MODEL 1
REMARK VINA RESULT: -6.881305608      0.000      0.000
REMARK  10 active torsions:
REMARK  status: ('A' for Active; 'I' for Inactive)
REMARK       I    between atoms: C1_4  and  N3_6 
REMARK    1  A    between atoms: N3_6  and  C2_8 
REMARK    2  A    between atoms: C4_10  and  C5_11 
REMARK    3  A    between atoms: C5_11  and  O2_13 
REMARK    4  A    between atoms: O2_13  and  C6_14 
REMARK    5  A    between atoms: C6_14  and  C7_15 
REMARK    6  A    between atoms: C7_15  and  O3_16 
REMARK    7  A    between atoms: O3_16  and  C8_17 
REMARK    8  A    between atoms: C8_17  and  C9_18 
REMARK    9  A    between atoms: C9_18  and  N4_19 
REMARK   10  A    between atoms: C10_25  and  N6_26 
ROOT
HETATM    1  C2  UNL     1       5.597  33.599  20.800  1.00  0.00     0.125 A 
HETATM    2  C3  UNL     1       5.369  34.510  19.791  1.00  0.00     0.085 A 
HETATM    3  C4  UNL     1       4.105  34.915  19.436  1.00  0.00     0.128 A 
HETATM    4  N5  UNL     1       3.086  34.375  20.128  1.00  0.00    -0.186 N 
ATOM      5  H5  UNL     1       2.132  34.650  19.894  1.00  0.00     0.184 HD
HETATM    6  C10 UNL     1       3.281  33.481  21.120  1.00  0.00     0.678 A 
HETATM    7  N7  UNL     1       4.529  33.103  21.446  1.00  0.00    -0.177 N 
ATOM      8  H7  UNL     1       4.668  32.427  22.197  1.00  0.00     0.185 HD
ENDROOT
BRANCH   3   9
HETATM    9  C5  UNL     1       3.907  35.884  18.362  1.00  0.00     0.310 C 
HETATM   10  O1  UNL     1       4.180  35.545  17.182  1.00  0.00    -0.258 OA
BRANCH   9  11
HETATM   11  O2  UNL     1       3.437  37.151  18.560  1.00  0.00    -0.314 OA
BRANCH  11  12
HETATM   12  C6  UNL     1       3.485  37.914  19.720  1.00  0.00     0.205 C 
BRANCH  12  13
HETATM   13  C7  UNL     1       4.193  39.251  19.567  1.00  0.00     0.194 C 
BRANCH  13  14
HETATM   14  O3  UNL     1       4.652  39.400  18.281  1.00  0.00    -0.387 OA
BRANCH  14  15
HETATM   15  C8  UNL     1       6.003  39.584  18.238  1.00  0.00     0.195 C 
BRANCH  15  16
HETATM   16  C9  UNL     1       6.736  38.392  17.725  1.00  0.00     0.255 C 
BRANCH  16  17
HETATM   17  N4  UNL     1       6.016  37.862  16.589  1.00  0.00    -0.077 N 
ATOM     18  H43 UNL     1       5.308  37.179  16.858  1.00  0.00     0.274 HD
ATOM     19  H42 UNL     1       5.393  38.550  16.165  1.00  0.00     0.274 HD
ATOM     20  H41 UNL     1       6.691  37.484  15.924  1.00  0.00     0.274 HD
ENDBRANCH  16  17
ENDBRANCH  15  16
ENDBRANCH  14  15
ENDBRANCH  13  14
ENDBRANCH  12  13
ENDBRANCH  11  12
ENDBRANCH   9  11
ENDBRANCH   3   9
BRANCH   1  21
HETATM   21  N3  UNL     1       6.777  33.224  21.126  1.00  0.00    -0.317 N 
HETATM   22  C1  UNL     1       7.018  32.185  22.063  1.00  0.00     0.187 C 
HETATM   23  N1  UNL     1       6.827  30.980  21.666  1.00  0.00    -0.373 N 
HETATM   24  N2  UNL     1       7.456  32.453  23.393  1.00  0.00    -0.064 NA
ATOM     25  H12 UNL     1       6.999  30.234  22.339  1.00  0.00     0.158 HD
ATOM     26  H11 UNL     1       6.513  30.789  20.714  1.00  0.00     0.158 HD
ATOM     27  H3  UNL     1       7.575  33.690  20.696  1.00  0.00     0.170 HD
ENDBRANCH   1  21
BRANCH   6  28
HETATM   28  N6  UNL     1       2.312  32.954  21.793  1.00  0.00    -0.234 N 
ATOM     29  H62 UNL     1       1.438  32.786  21.294  1.00  0.00     0.174 HD
ATOM     30  H61 UNL     1       2.391  32.705  22.779  1.00  0.00     0.174 HD
ENDBRANCH   6  28
TORSDOF 10
ENDMDL
MODEL 2
REMARK VINA RESULT: -6.856927341      2.588      5.548
REMARK  10 active torsions:
REMARK  status: ('A' for Active; 'I' for Inactive)
REMARK       I    between atoms: C1_4  and  N3_6 
REMARK    1  A    between atoms: N3_6  and  C2_8 
REMARK    2  A    between atoms: C4_10  and  C5_11 
REMARK    3  A    between atoms: C5_11  and  O2_13 
REMARK    4  A    between atoms: O2_13  and  C6_14 
REMARK    5  A    between atoms: C6_14  and  C7_15 
REMARK    6  A    between atoms: C7_15  and  O3_16 
REMARK    7  A    between atoms: O3_16  and  C8_17 
REMARK    8  A    between atoms: C8_17  and  C9_18 
REMARK    9  A    between atoms: C9_18  and  N4_19 
REMARK   10  A    between atoms: C10_25  and  N6_26 
ROOT
HETATM    1  C2  UNL     1       5.067  36.432  18.673  1.00  0.00     0.125 A 
HETATM    2  C3  UNL     1       3.698  36.313  18.781  1.00  0.00     0.085 A 
HETATM    3  C4  UNL     1       3.006  36.740  19.889  1.00  0.00     0.128 A 
HETATM    4  N5  UNL     1       3.736  37.286  20.877  1.00  0.00    -0.186 N 
ATOM      5  H5  UNL     1       3.260  37.615  21.717  1.00  0.00     0.184 HD
HETATM    6  C10 UNL     1       5.077  37.415  20.798  1.00  0.00     0.678 A 
HETATM    7  N7  UNL     1       5.727  36.988  19.701  1.00  0.00    -0.177 N 
ATOM      8  H7  UNL     1       6.741  37.090  19.649  1.00  0.00     0.185 HD
ENDROOT
BRANCH   3   9
HETATM    9  C5  UNL     1       1.555  36.595  19.963  1.00  0.00     0.310 C 
HETATM   10  O1  UNL     1       0.832  37.404  19.327  1.00  0.00    -0.258 OA
BRANCH   9  11
HETATM   11  O2  UNL     1       0.926  35.624  20.689  1.00  0.00    -0.314 OA
BRANCH  11  12
HETATM   12  C6  UNL     1       1.498  34.600  21.435  1.00  0.00     0.205 C 
BRANCH  12  13
HETATM   13  C7  UNL     1       1.785  33.331  20.647  1.00  0.00     0.194 C 
BRANCH  13  14
HETATM   14  O3  UNL     1       3.124  33.245  20.357  1.00  0.00    -0.387 OA
BRANCH  14  15
HETATM   15  C8  UNL     1       3.898  33.376  21.473  1.00  0.00     0.195 C 
BRANCH  15  16
HETATM   16  C9  UNL     1       5.328  33.655  21.160  1.00  0.00     0.255 C 
BRANCH  16  17
HETATM   17  N4  UNL     1       5.718  32.845  20.028  1.00  0.00    -0.077 N 
ATOM     18  H43 UNL     1       6.463  33.272  19.478  1.00  0.00     0.274 HD
ATOM     19  H42 UNL     1       6.217  31.999  20.305  1.00  0.00     0.274 HD
ATOM     20  H41 UNL     1       4.888  32.644  19.471  1.00  0.00     0.274 HD
ENDBRANCH  16  17
ENDBRANCH  15  16
ENDBRANCH  14  15
ENDBRANCH  13  14
ENDBRANCH  12  13
ENDBRANCH  11  12
ENDBRANCH   9  11
ENDBRANCH   3   9
BRANCH   1  21
HETATM   21  N3  UNL     1       5.707  36.032  17.639  1.00  0.00    -0.317 N 
HETATM   22  C1  UNL     1       5.370  36.443  16.323  1.00  0.00     0.187 C 
HETATM   23  N1  UNL     1       5.703  37.632  15.976  1.00  0.00    -0.373 N 
HETATM   24  N2  UNL     1       4.688  35.582  15.413  1.00  0.00    -0.064 NA
ATOM     25  H12 UNL     1       5.460  37.928  15.031  1.00  0.00     0.158 HD
ATOM     26  H11 UNL     1       6.190  38.248  16.627  1.00  0.00     0.158 HD
ATOM     27  H3  UNL     1       6.491  35.391  17.766  1.00  0.00     0.170 HD
ENDBRANCH   1  21
BRANCH   6  28
HETATM   28  N6  UNL     1       5.791  37.938  21.739  1.00  0.00    -0.234 N 
ATOM     29  H62 UNL     1       6.777  37.675  21.774  1.00  0.00     0.174 HD
ATOM     30  H61 UNL     1       5.414  38.588  22.428  1.00  0.00     0.174 HD
ENDBRANCH   6  28
TORSDOF 10
ENDMDL
MODEL 3
REMARK VINA RESULT: -6.843025473      2.122      4.169
REMARK  10 active torsions:
REMARK  status: ('A' for Active; 'I' for Inactive)
REMARK       I    between atoms: C1_4  and  N3_6 
REMARK    1  A    between atoms: N3_6  and  C2_8 
REMARK    2  A    between atoms: C4_10  and  C5_11 
REMARK    3  A    between atoms: C5_11  and  O2_13 
REMARK    4  A    between atoms: O2_13  and  C6_14 
REMARK    5  A    between atoms: C6_14  and  C7_15 
REMARK    6  A    between atoms: C7_15  and  O3_16 
REMARK    7  A    between atoms: O3_16  and  C8_17 
REMARK    8  A    between atoms: C8_17  and  C9_18 
REMARK    9  A    between atoms: C9_18  and  N4_19 
REMARK   10  A    between atoms: C10_25  and  N6_26 
ROOT
HETATM    1  C2  UNL     1       4.270  33.185  21.489  1.00  0.00     0.125 A 
HETATM    2  C3  UNL     1       4.699  34.439  21.111  1.00  0.00     0.085 A 
HETATM    3  C4  UNL     1       6.021  34.721  20.861  1.00  0.00     0.128 A 
HETATM    4  N5  UNL     1       6.888  33.704  21.006  1.00  0.00    -0.186 N 
ATOM      5  H5  UNL     1       7.879  33.873  20.830  1.00  0.00     0.184 HD
HETATM    6  C10 UNL     1       6.495  32.467  21.375  1.00  0.00     0.678 A 
HETATM    7  N7  UNL     1       5.195  32.219  21.612  1.00  0.00    -0.177 N 
ATOM      8  H7  UNL     1       4.907  31.281  21.891  1.00  0.00     0.185 HD
ENDROOT
BRANCH   3   9
HETATM    9  C5  UNL     1       6.434  36.063  20.462  1.00  0.00     0.310 C 
HETATM   10  O1  UNL     1       6.866  36.852  21.341  1.00  0.00    -0.258 OA
BRANCH   9  11
HETATM   11  O2  UNL     1       6.380  36.521  19.176  1.00  0.00    -0.314 OA
BRANCH  11  12
HETATM   12  C6  UNL     1       5.306  37.103  18.514  1.00  0.00     0.205 C 
BRANCH  12  13
HETATM   13  C7  UNL     1       4.241  36.119  18.055  1.00  0.00     0.194 C 
BRANCH  13  14
HETATM   14  O3  UNL     1       3.002  36.528  18.484  1.00  0.00    -0.387 OA
BRANCH  14  15
HETATM   15  C8  UNL     1       3.081  37.336  19.580  1.00  0.00     0.195 C 
BRANCH  15  16
HETATM   16  C9  UNL     1       1.785  37.989  19.917  1.00  0.00     0.255 C 
BRANCH  16  17
HETATM   17  N4  UNL     1       0.739  36.994  19.857  1.00  0.00    -0.077 N 
ATOM     18  H43 UNL     1      -0.051  37.290  19.284  1.00  0.00     0.274 HD
ATOM     19  H42 UNL     1       1.008  36.175  19.311  1.00  0.00     0.274 HD
ATOM     20  H41 UNL     1       0.463  36.755  20.809  1.00  0.00     0.274 HD
ENDBRANCH  16  17
ENDBRANCH  15  16
ENDBRANCH  14  15
ENDBRANCH  13  14
ENDBRANCH  12  13
ENDBRANCH  11  12
ENDBRANCH   9  11
ENDBRANCH   3   9
BRANCH   1  21
HETATM   21  N3  UNL     1       3.038  32.927  21.721  1.00  0.00    -0.317 N 
HETATM   22  C1  UNL     1       1.996  33.312  20.838  1.00  0.00     0.187 C 
HETATM   23  N1  UNL     1       1.857  32.630  19.761  1.00  0.00    -0.373 N 
HETATM   24  N2  UNL     1       1.130  34.410  21.123  1.00  0.00    -0.064 NA
ATOM     25  H12 UNL     1       1.108  32.907  19.126  1.00  0.00     0.158 HD
ATOM     26  H11 UNL     1       2.476  31.845  19.557  1.00  0.00     0.158 HD
ATOM     27  H3  UNL     1       2.795  32.425  22.576  1.00  0.00     0.170 HD
ENDBRANCH   1  21
BRANCH   6  28
HETATM   28  N6  UNL     1       7.317  31.480  21.517  1.00  0.00    -0.234 N 
ATOM     29  H62 UNL     1       8.311  31.706  21.560  1.00  0.00     0.174 HD
ATOM     30  H61 UNL     1       7.012  30.509  21.587  1.00  0.00     0.174 HD
ENDBRANCH   6  28
TORSDOF 10
ENDMDL
MODEL 4
REMARK VINA RESULT: -6.769396053      1.247      1.751
REMARK  10 active torsions:
REMARK  status: ('A' for Active; 'I' for Inactive)
REMARK       I    between atoms: C1_4  and  N3_6 
REMARK    1  A    between atoms: N3_6  and  C2_8 
REMARK    2  A    between atoms: C4_10  and  C5_11 
REMARK    3  A    between atoms: C5_11  and  O2_13 
REMARK    4  A    between atoms: O2_13  and  C6_14 
REMARK    5  A    between atoms: C6_14  and  C7_15 
REMARK    6  A    between atoms: C7_15  and  O3_16 
REMARK    7  A    between atoms: O3_16  and  C8_17 
REMARK    8  A    between atoms: C8_17  and  C9_18 
REMARK    9  A    between atoms: C9_18  and  N4_19 
REMARK   10  A    between atoms: C10_25  and  N6_26 
ROOT
HETATM    1  C2  UNL     1       5.539  33.551  20.790  1.00  0.00     0.125 A 
HETATM    2  C3  UNL     1       5.259  34.428  19.764  1.00  0.00     0.085 A 
HETATM    3  C4  UNL     1       3.976  34.801  19.442  1.00  0.00     0.128 A 
HETATM    4  N5  UNL     1       2.992  34.263  20.184  1.00  0.00    -0.186 N 
ATOM      5  H5  UNL     1       2.026  34.514  19.977  1.00  0.00     0.184 HD
HETATM    6  C10 UNL     1       3.238  33.402  21.194  1.00  0.00     0.678 A 
HETATM    7  N7  UNL     1       4.504  33.056  21.486  1.00  0.00    -0.177 N 
ATOM      8  H7  UNL     1       4.681  32.404  22.251  1.00  0.00     0.185 HD
ENDROOT
BRANCH   3   9
HETATM    9  C5  UNL     1       3.723  35.733  18.348  1.00  0.00     0.310 C 
HETATM   10  O1  UNL     1       2.959  36.712  18.549  1.00  0.00    -0.258 OA
BRANCH   9  11
HETATM   11  O2  UNL     1       4.271  35.608  17.103  1.00  0.00    -0.314 OA
BRANCH  11  12
HETATM   12  C6  UNL     1       5.186  36.446  16.477  1.00  0.00     0.205 C 
BRANCH  12  13
HETATM   13  C7  UNL     1       5.882  37.427  17.407  1.00  0.00     0.194 C 
BRANCH  13  14
HETATM   14  O3  UNL     1       5.340  38.681  17.264  1.00  0.00    -0.387 OA
BRANCH  14  15
HETATM   15  C8  UNL     1       5.357  39.382  18.434  1.00  0.00     0.195 C 
BRANCH  15  16
HETATM   16  C9  UNL     1       5.756  38.552  19.605  1.00  0.00     0.255 C 
BRANCH  16  17
HETATM   17  N4  UNL     1       4.642  38.487  20.524  1.00  0.00    -0.077 N 
ATOM     18  H43 UNL     1       4.633  39.264  21.185  1.00  0.00     0.274 HD
ATOM     19  H42 UNL     1       3.749  38.680  20.070  1.00  0.00     0.274 HD
ATOM     20  H41 UNL     1       4.657  37.579  20.989  1.00  0.00     0.274 HD
ENDBRANCH  16  17
ENDBRANCH  15  16
ENDBRANCH  14  15
ENDBRANCH  13  14
ENDBRANCH  12  13
ENDBRANCH  11  12
ENDBRANCH   9  11
ENDBRANCH   3   9
BRANCH   1  21
HETATM   21  N3  UNL     1       6.736  33.207  21.085  1.00  0.00    -0.317 N 
HETATM   22  C1  UNL     1       7.028  32.175  22.014  1.00  0.00     0.187 C 
HETATM   23  N1  UNL     1       6.858  30.966  21.623  1.00  0.00    -0.373 N 
HETATM   24  N2  UNL     1       7.494  32.456  23.333  1.00  0.00    -0.064 NA
ATOM     25  H12 UNL     1       7.067  30.225  22.292  1.00  0.00     0.158 HD
ATOM     26  H11 UNL     1       6.524  30.766  20.680  1.00  0.00     0.158 HD
ATOM     27  H3  UNL     1       7.511  33.694  20.634  1.00  0.00     0.170 HD
ENDBRANCH   1  21
BRANCH   6  28
HETATM   28  N6  UNL     1       2.303  32.878  21.916  1.00  0.00    -0.234 N 
ATOM     29  H62 UNL     1       1.353  33.218  21.764  1.00  0.00     0.174 HD
ATOM     30  H61 UNL     1       2.479  32.154  22.613  1.00  0.00     0.174 HD
ENDBRANCH   6  28
TORSDOF 10
ENDMDL
MODEL 5
REMARK VINA RESULT: -6.698615436      1.992      3.812
REMARK  10 active torsions:
REMARK  status: ('A' for Active; 'I' for Inactive)
REMARK       I    between atoms: C1_4  and  N3_6 
REMARK    1  A    between atoms: N3_6  and  C2_8 
REMARK    2  A    between atoms: C4_10  and  C5_11 
REMARK    3  A    between atoms: C5_11  and  O2_13 
REMARK    4  A    between atoms: O2_13  and  C6_14 
REMARK    5  A    between atoms: C6_14  and  C7_15 
REMARK    6  A    between atoms: C7_15  and  O3_16 
REMARK    7  A    between atoms: O3_16  and  C8_17 
REMARK    8  A    between atoms: C8_17  and  C9_18 
REMARK    9  A    between atoms: C9_18  and  N4_19 
REMARK   10  A    between atoms: C10_25  and  N6_26 
ROOT
HETATM    1  C2  UNL     1       4.255  33.308  21.480  1.00  0.00     0.125 A 
HETATM    2  C3  UNL     1       4.692  34.567  21.130  1.00  0.00     0.085 A 
HETATM    3  C4  UNL     1       6.012  34.840  20.860  1.00  0.00     0.128 A 
HETATM    4  N5  UNL     1       6.869  33.809  20.956  1.00  0.00    -0.186 N 
ATOM      5  H5  UNL     1       7.857  33.971  20.764  1.00  0.00     0.184 HD
HETATM    6  C10 UNL     1       6.468  32.567  21.297  1.00  0.00     0.678 A 
HETATM    7  N7  UNL     1       5.170  32.328  21.555  1.00  0.00    -0.177 N 
ATOM      8  H7  UNL     1       4.876  31.386  21.813  1.00  0.00     0.185 HD
ENDROOT
BRANCH   3   9
HETATM    9  C5  UNL     1       6.433  36.189  20.491  1.00  0.00     0.310 C 
HETATM   10  O1  UNL     1       6.695  37.013  21.403  1.00  0.00    -0.258 OA
BRANCH   9  11
HETATM   11  O2  UNL     1       6.562  36.616  19.200  1.00  0.00    -0.314 OA
BRANCH  11  12
HETATM   12  C6  UNL     1       6.976  37.861  18.742  1.00  0.00     0.205 C 
BRANCH  12  13
HETATM   13  C7  UNL     1       5.922  38.626  17.957  1.00  0.00     0.194 C 
BRANCH  13  14
HETATM   14  O3  UNL     1       4.984  37.760  17.453  1.00  0.00    -0.387 OA
BRANCH  14  15
HETATM   15  C8  UNL     1       5.341  37.276  16.228  1.00  0.00     0.195 C 
BRANCH  15  16
HETATM   16  C9  UNL     1       4.898  35.870  16.006  1.00  0.00     0.255 C 
BRANCH  16  17
HETATM   17  N4  UNL     1       4.379  35.350  17.251  1.00  0.00    -0.077 N 
ATOM     18  H43 UNL     1       4.994  34.654  17.672  1.00  0.00     0.274 HD
ATOM     19  H42 UNL     1       4.409  36.036  18.005  1.00  0.00     0.274 HD
ATOM     20  H41 UNL     1       3.439  34.991  17.086  1.00  0.00     0.274 HD
ENDBRANCH  16  17
ENDBRANCH  15  16
ENDBRANCH  14  15
ENDBRANCH  13  14
ENDBRANCH  12  13
ENDBRANCH  11  12
ENDBRANCH   9  11
ENDBRANCH   3   9
BRANCH   1  21
HETATM   21  N3  UNL     1       3.025  33.058  21.732  1.00  0.00    -0.317 N 
HETATM   22  C1  UNL     1       1.978  33.389  20.833  1.00  0.00     0.187 C 
HETATM   23  N1  UNL     1       1.837  32.648  19.796  1.00  0.00    -0.373 N 
HETATM   24  N2  UNL     1       1.108  34.497  21.060  1.00  0.00    -0.064 NA
ATOM     25  H12 UNL     1       1.085  32.886  19.150  1.00  0.00     0.158 HD
ATOM     26  H11 UNL     1       2.460  31.855  19.633  1.00  0.00     0.158 HD
ATOM     27  H3  UNL     1       2.788  32.603  22.614  1.00  0.00     0.170 HD
ENDBRANCH   1  21
BRANCH   6  28
HETATM   28  N6  UNL     1       7.280  31.566  21.393  1.00  0.00    -0.234 N 
ATOM     29  H62 UNL     1       8.240  31.772  21.670  1.00  0.00     0.174 HD
ATOM     30  H61 UNL     1       7.000  30.603  21.206  1.00  0.00     0.174 HD
ENDBRANCH   6  28
TORSDOF 10
ENDMDL
