MODEL 1
REMARK VINA RESULT: -7.799118090      0.000      0.000
REMARK  6 active torsions:
REMARK  status: ('A' for Active; 'I' for Inactive)
REMARK    1  A    between atoms: C3_3  and  O1_4 
REMARK    2  A    between atoms: O1_4  and  C4_5 
REMARK    3  A    between atoms: C4_5  and  C5_6 
REMARK    4  A    between atoms: C5_6  and  N1_7 
REMARK    5  A    between atoms: N2_9  and  N3_11 
REMARK    6  A    between atoms: C9_21  and  N6_22 
ROOT
HETATM    1  C1  UNL     1       6.916  30.501  21.189  1.00  0.00     0.014 C 
HETATM    2  C2  UNL     1       6.872  31.463  21.912  1.00  0.00    -0.091 C 
HETATM    3  C3  UNL     1       6.820  32.653  22.780  1.00  0.00     0.260 C 
ENDROOT
BRANCH   3   4
HETATM    4  O1  UNL     1       5.922  33.540  22.234  1.00  0.00    -0.378 OA
BRANCH   4   5
HETATM    5  C4  UNL     1       6.515  34.712  21.779  1.00  0.00     0.189 C 
BRANCH   5   6
HETATM    6  C5  UNL     1       5.402  35.635  21.340  1.00  0.00     0.174 C 
BRANCH   6   7
HETATM    7  N1  UNL     1       5.219  35.790  19.948  1.00  0.00    -0.172 N 
HETATM    8  C6  UNL     1       4.414  34.948  19.212  1.00  0.00     0.702 A 
HETATM    9  N2  UNL     1       3.837  34.012  19.893  1.00  0.00    -0.138 N 
HETATM   10  N4  UNL     1       4.218  35.056  17.911  1.00  0.00    -0.152 N 
ATOM     11  H2  UNL     1       4.016  33.967  20.896  1.00  0.00     0.205 HD
HETATM   12  C7  UNL     1       4.792  36.001  17.184  1.00  0.00     0.289 A 
ATOM     13  H4  UNL     1       3.604  34.386  17.449  1.00  0.00     0.187 HD
HETATM   14  O2  UNL     1       4.638  36.145  15.946  1.00  0.00    -0.265 OA
HETATM   15  C8  UNL     1       5.625  36.898  17.857  1.00  0.00     0.150 A 
HETATM   16  N5  UNL     1       6.236  37.875  17.171  1.00  0.00    -0.184 N 
HETATM   17  C11 UNL     1       5.818  36.765  19.237  1.00  0.00     0.153 A 
HETATM   18  C9  UNL     1       7.046  38.749  17.788  1.00  0.00     0.679 A 
ATOM     19  H5  UNL     1       6.082  37.955  16.166  1.00  0.00     0.184 HD
HETATM   20  N7  UNL     1       7.268  38.673  19.097  1.00  0.00    -0.154 N 
HETATM   21  C10 UNL     1       6.655  37.684  19.816  1.00  0.00     0.289 A 
ATOM     22  H7  UNL     1       7.886  39.341  19.557  1.00  0.00     0.187 HD
HETATM   23  O3  UNL     1       6.876  37.625  21.048  1.00  0.00    -0.265 OA
BRANCH   9  24
HETATM   24  N3  UNL     1       2.993  33.071  19.336  1.00  0.00    -0.331 N 
ATOM     25  H32 UNL     1       2.010  33.110  19.605  1.00  0.00     0.177 HD
ATOM     26  H31 UNL     1       3.303  32.352  18.681  1.00  0.00     0.177 HD
ENDBRANCH   9  24
BRANCH  18  27
HETATM   27  N6  UNL     1       7.610  39.670  17.092  1.00  0.00    -0.234 N 
ATOM     28  H62 UNL     1       7.592  39.623  16.073  1.00  0.00     0.174 HD
ATOM     29  H61 UNL     1       8.071  40.440  17.576  1.00  0.00     0.174 HD
ENDBRANCH  18  27
ENDBRANCH   6   7
ENDBRANCH   5   6
ENDBRANCH   4   5
ENDBRANCH   3   4
TORSDOF 6
ENDMDL
MODEL 2
REMARK VINA RESULT: -7.508094140      1.717      3.244
REMARK  6 active torsions:
REMARK  status: ('A' for Active; 'I' for Inactive)
REMARK    1  A    between atoms: C3_3  and  O1_4 
REMARK    2  A    between atoms: O1_4  and  C4_5 
REMARK    3  A    between atoms: C4_5  and  C5_6 
REMARK    4  A    between atoms: C5_6  and  N1_7 
REMARK    5  A    between atoms: N2_9  and  N3_11 
REMARK    6  A    between atoms: C9_21  and  N6_22 
ROOT
HETATM    1  C1  UNL     1       7.112  30.576  21.477  1.00  0.00     0.014 C 
HETATM    2  C2  UNL     1       6.990  31.678  21.947  1.00  0.00    -0.091 C 
HETATM    3  C3  UNL     1       6.831  33.034  22.502  1.00  0.00     0.260 C 
ENDROOT
BRANCH   3   4
HETATM    4  O1  UNL     1       5.543  33.447  22.254  1.00  0.00    -0.378 OA
BRANCH   4   5
HETATM    5  C4  UNL     1       5.259  33.574  20.899  1.00  0.00     0.189 C 
BRANCH   5   6
HETATM    6  C5  UNL     1       4.554  34.899  20.712  1.00  0.00     0.174 C 
BRANCH   6   7
HETATM    7  N1  UNL     1       5.327  35.960  20.190  1.00  0.00    -0.172 N 
HETATM    8  C6  UNL     1       6.130  36.748  20.986  1.00  0.00     0.702 A 
HETATM    9  N2  UNL     1       6.123  36.439  22.242  1.00  0.00    -0.138 N 
HETATM   10  N4  UNL     1       6.864  37.750  20.540  1.00  0.00    -0.152 N 
ATOM     11  H2  UNL     1       5.541  35.658  22.543  1.00  0.00     0.205 HD
HETATM   12  C7  UNL     1       6.894  38.092  19.263  1.00  0.00     0.289 A 
ATOM     13  H4  UNL     1       7.429  38.279  21.204  1.00  0.00     0.187 HD
HETATM   14  O2  UNL     1       7.577  39.035  18.789  1.00  0.00    -0.265 OA
HETATM   15  C8  UNL     1       6.107  37.340  18.387  1.00  0.00     0.150 A 
HETATM   16  N5  UNL     1       6.096  37.643  17.082  1.00  0.00    -0.184 N 
HETATM   17  C11 UNL     1       5.335  36.282  18.882  1.00  0.00     0.153 A 
HETATM   18  C9  UNL     1       5.346  36.943  16.217  1.00  0.00     0.679 A 
ATOM     19  H5  UNL     1       6.665  38.418  16.741  1.00  0.00     0.184 HD
HETATM   20  N7  UNL     1       4.591  35.927  16.628  1.00  0.00    -0.154 N 
HETATM   21  C10 UNL     1       4.588  35.600  17.957  1.00  0.00     0.289 A 
ATOM     22  H7  UNL     1       4.024  35.401  15.964  1.00  0.00     0.187 HD
HETATM   23  O3  UNL     1       3.872  34.642  18.327  1.00  0.00    -0.265 OA
BRANCH   9  24
HETATM   24  N3  UNL     1       6.862  37.111  23.198  1.00  0.00    -0.331 N 
ATOM     25  H32 UNL     1       7.729  37.550  22.892  1.00  0.00     0.177 HD
ATOM     26  H31 UNL     1       6.583  37.184  24.177  1.00  0.00     0.177 HD
ENDBRANCH   9  24
BRANCH  18  27
HETATM   27  N6  UNL     1       5.366  37.268  14.974  1.00  0.00    -0.234 N 
ATOM     28  H62 UNL     1       5.313  38.249  14.702  1.00  0.00     0.174 HD
ATOM     29  H61 UNL     1       5.434  36.530  14.273  1.00  0.00     0.174 HD
ENDBRANCH  18  27
ENDBRANCH   6   7
ENDBRANCH   5   6
ENDBRANCH   4   5
ENDBRANCH   3   4
TORSDOF 6
ENDMDL
MODEL 3
REMARK VINA RESULT: -7.505875688      2.247      2.487
REMARK  6 active torsions:
REMARK  status: ('A' for Active; 'I' for Inactive)
REMARK    1  A    between atoms: C3_3  and  O1_4 
REMARK    2  A    between atoms: O1_4  and  C4_5 
REMARK    3  A    between atoms: C4_5  and  C5_6 
REMARK    4  A    between atoms: C5_6  and  N1_7 
REMARK    5  A    between atoms: N2_9  and  N3_11 
REMARK    6  A    between atoms: C9_21  and  N6_22 
ROOT
HETATM    1  C1  UNL     1       7.096  30.509  21.290  1.00  0.00     0.014 C 
HETATM    2  C2  UNL     1       7.040  31.536  21.917  1.00  0.00    -0.091 C 
HETATM    3  C3  UNL     1       6.974  32.804  22.666  1.00  0.00     0.260 C 
ENDROOT
BRANCH   3   4
HETATM    4  O1  UNL     1       6.049  33.614  22.049  1.00  0.00    -0.378 OA
BRANCH   4   5
HETATM    5  C4  UNL     1       6.353  34.967  22.146  1.00  0.00     0.189 C 
BRANCH   5   6
HETATM    6  C5  UNL     1       6.312  35.536  20.746  1.00  0.00     0.174 C 
BRANCH   6   7
HETATM    7  N1  UNL     1       5.074  36.060  20.312  1.00  0.00    -0.172 N 
HETATM    8  C6  UNL     1       4.093  35.269  19.753  1.00  0.00     0.702 A 
HETATM    9  N2  UNL     1       4.392  34.014  19.663  1.00  0.00    -0.138 N 
HETATM   10  N4  UNL     1       2.926  35.719  19.333  1.00  0.00    -0.152 N 
ATOM     11  H2  UNL     1       5.305  33.711  20.000  1.00  0.00     0.205 HD
HETATM   12  C7  UNL     1       2.588  36.996  19.411  1.00  0.00     0.289 A 
ATOM     13  H4  UNL     1       2.259  35.059  18.933  1.00  0.00     0.187 HD
HETATM   14  O2  UNL     1       1.491  37.472  19.026  1.00  0.00    -0.265 OA
HETATM   15  C8  UNL     1       3.529  37.866  19.966  1.00  0.00     0.150 A 
HETATM   16  N5  UNL     1       3.244  39.172  20.069  1.00  0.00    -0.184 N 
HETATM   17  C11 UNL     1       4.762  37.367  20.406  1.00  0.00     0.153 A 
HETATM   18  C9  UNL     1       4.128  40.033  20.593  1.00  0.00     0.679 A 
ATOM     19  H5  UNL     1       2.340  39.515  19.743  1.00  0.00     0.184 HD
HETATM   20  N7  UNL     1       5.316  39.618  21.027  1.00  0.00    -0.154 N 
HETATM   21  C10 UNL     1       5.628  38.290  20.933  1.00  0.00     0.289 A 
ATOM     22  H7  UNL     1       5.982  40.281  21.424  1.00  0.00     0.187 HD
HETATM   23  O3  UNL     1       6.750  37.916  21.346  1.00  0.00    -0.265 OA
BRANCH   9  24
HETATM   24  N3  UNL     1       3.541  33.063  19.133  1.00  0.00    -0.331 N 
ATOM     25  H32 UNL     1       3.285  33.162  18.150  1.00  0.00     0.177 HD
ATOM     26  H31 UNL     1       3.164  32.282  19.670  1.00  0.00     0.177 HD
ENDBRANCH   9  24
BRANCH  18  27
HETATM   27  N6  UNL     1       3.813  41.276  20.673  1.00  0.00    -0.234 N 
ATOM     28  H62 UNL     1       4.104  41.826  21.481  1.00  0.00     0.174 HD
ATOM     29  H61 UNL     1       3.270  41.696  19.918  1.00  0.00     0.174 HD
ENDBRANCH  18  27
ENDBRANCH   6   7
ENDBRANCH   5   6
ENDBRANCH   4   5
ENDBRANCH   3   4
TORSDOF 6
ENDMDL
MODEL 4
REMARK VINA RESULT: -7.481131176      2.760      5.788
REMARK  6 active torsions:
REMARK  status: ('A' for Active; 'I' for Inactive)
REMARK    1  A    between atoms: C3_3  and  O1_4 
REMARK    2  A    between atoms: O1_4  and  C4_5 
REMARK    3  A    between atoms: C4_5  and  C5_6 
REMARK    4  A    between atoms: C5_6  and  N1_7 
REMARK    5  A    between atoms: N2_9  and  N3_11 
REMARK    6  A    between atoms: C9_21  and  N6_22 
ROOT
HETATM    1  C1  UNL     1       7.542  39.015  17.782  1.00  0.00     0.014 C 
HETATM    2  C2  UNL     1       6.533  39.511  18.212  1.00  0.00    -0.091 C 
HETATM    3  C3  UNL     1       5.286  40.110  18.721  1.00  0.00     0.260 C 
ENDROOT
BRANCH   3   4
HETATM    4  O1  UNL     1       4.308  39.144  18.695  1.00  0.00    -0.378 OA
BRANCH   4   5
HETATM    5  C4  UNL     1       4.471  38.172  19.675  1.00  0.00     0.189 C 
BRANCH   5   6
HETATM    6  C5  UNL     1       4.355  36.827  18.994  1.00  0.00     0.174 C 
BRANCH   6   7
HETATM    7  N1  UNL     1       3.831  35.768  19.769  1.00  0.00    -0.172 N 
HETATM    8  C6  UNL     1       2.516  35.737  20.182  1.00  0.00     0.702 A 
HETATM    9  N2  UNL     1       1.802  36.746  19.802  1.00  0.00    -0.138 N 
HETATM   10  N4  UNL     1       1.987  34.770  20.908  1.00  0.00    -0.152 N 
ATOM     11  H2  UNL     1       2.251  37.471  19.242  1.00  0.00     0.205 HD
HETATM   12  C7  UNL     1       2.689  33.723  21.312  1.00  0.00     0.289 A 
ATOM     13  H4  UNL     1       1.003  34.831  21.166  1.00  0.00     0.187 HD
HETATM   14  O2  UNL     1       2.233  32.778  22.003  1.00  0.00    -0.265 OA
HETATM   15  C8  UNL     1       4.033  33.679  20.935  1.00  0.00     0.150 A 
HETATM   16  N5  UNL     1       4.793  32.644  21.318  1.00  0.00    -0.184 N 
HETATM   17  C11 UNL     1       4.573  34.716  20.164  1.00  0.00     0.153 A 
HETATM   18  C9  UNL     1       6.089  32.574  20.976  1.00  0.00     0.679 A 
ATOM     19  H5  UNL     1       4.381  31.898  21.879  1.00  0.00     0.184 HD
HETATM   20  N7  UNL     1       6.658  33.530  20.246  1.00  0.00    -0.154 N 
HETATM   21  C10 UNL     1       5.900  34.595  19.843  1.00  0.00     0.289 A 
ATOM     22  H7  UNL     1       7.644  33.469  19.991  1.00  0.00     0.187 HD
HETATM   23  O3  UNL     1       6.451  35.486  19.157  1.00  0.00    -0.265 OA
BRANCH   9  24
HETATM   24  N3  UNL     1       0.464  36.896  20.114  1.00  0.00    -0.331 N 
ATOM     25  H32 UNL     1      -0.047  36.057  20.387  1.00  0.00     0.177 HD
ATOM     26  H31 UNL     1      -0.025  37.791  20.085  1.00  0.00     0.177 HD
ENDBRANCH   9  24
BRANCH  18  27
HETATM   27  N6  UNL     1       6.781  31.564  21.365  1.00  0.00    -0.234 N 
ATOM     28  H62 UNL     1       7.266  30.984  20.680  1.00  0.00     0.174 HD
ATOM     29  H61 UNL     1       6.833  31.356  22.362  1.00  0.00     0.174 HD
ENDBRANCH  18  27
ENDBRANCH   6   7
ENDBRANCH   5   6
ENDBRANCH   4   5
ENDBRANCH   3   4
TORSDOF 6
ENDMDL
MODEL 5
REMARK VINA RESULT: -7.373283204      2.753      5.100
REMARK  6 active torsions:
REMARK  status: ('A' for Active; 'I' for Inactive)
REMARK    1  A    between atoms: C3_3  and  O1_4 
REMARK    2  A    between atoms: O1_4  and  C4_5 
REMARK    3  A    between atoms: C4_5  and  C5_6 
REMARK    4  A    between atoms: C5_6  and  N1_7 
REMARK    5  A    between atoms: N2_9  and  N3_11 
REMARK    6  A    between atoms: C9_21  and  N6_22 
ROOT
HETATM    1  C1  UNL     1       7.062  36.352  22.833  1.00  0.00     0.014 C 
HETATM    2  C2  UNL     1       6.660  37.209  22.088  1.00  0.00    -0.091 C 
HETATM    3  C3  UNL     1       6.160  38.242  21.163  1.00  0.00     0.260 C 
ENDROOT
BRANCH   3   4
HETATM    4  O1  UNL     1       4.843  37.960  20.882  1.00  0.00    -0.378 OA
BRANCH   4   5
HETATM    5  C4  UNL     1       4.516  38.143  19.544  1.00  0.00     0.189 C 
BRANCH   5   6
HETATM    6  C5  UNL     1       4.442  36.772  18.911  1.00  0.00     0.174 C 
BRANCH   6   7
HETATM    7  N1  UNL     1       3.908  35.735  19.706  1.00  0.00    -0.172 N 
HETATM    8  C6  UNL     1       2.596  35.732  20.130  1.00  0.00     0.702 A 
HETATM    9  N2  UNL     1       1.896  36.747  19.740  1.00  0.00    -0.138 N 
HETATM   10  N4  UNL     1       2.058  34.786  20.876  1.00  0.00    -0.152 N 
ATOM     11  H2  UNL     1       2.352  37.455  19.165  1.00  0.00     0.205 HD
HETATM   12  C7  UNL     1       2.746  33.735  21.292  1.00  0.00     0.289 A 
ATOM     13  H4  UNL     1       1.077  34.867  21.142  1.00  0.00     0.187 HD
HETATM   14  O2  UNL     1       2.280  32.808  22.002  1.00  0.00    -0.265 OA
HETATM   15  C8  UNL     1       4.086  33.662  20.904  1.00  0.00     0.150 A 
HETATM   16  N5  UNL     1       4.832  32.621  21.298  1.00  0.00    -0.184 N 
HETATM   17  C11 UNL     1       4.636  34.677  20.113  1.00  0.00     0.153 A 
HETATM   18  C9  UNL     1       6.123  32.525  20.947  1.00  0.00     0.679 A 
ATOM     19  H5  UNL     1       4.412  31.891  21.875  1.00  0.00     0.184 HD
HETATM   20  N7  UNL     1       6.702  33.459  20.196  1.00  0.00    -0.154 N 
HETATM   21  C10 UNL     1       5.958  34.530  19.782  1.00  0.00     0.289 A 
ATOM     22  H7  UNL     1       7.684  33.378  19.935  1.00  0.00     0.187 HD
HETATM   23  O3  UNL     1       6.518  35.400  19.077  1.00  0.00    -0.265 OA
BRANCH   9  24
HETATM   24  N3  UNL     1       0.563  36.924  20.061  1.00  0.00    -0.331 N 
ATOM     25  H32 UNL     1       0.114  36.190  20.607  1.00  0.00     0.177 HD
ATOM     26  H31 UNL     1       0.019  37.741  19.781  1.00  0.00     0.177 HD
ENDBRANCH   9  24
BRANCH  18  27
HETATM   27  N6  UNL     1       6.802  31.509  21.346  1.00  0.00    -0.234 N 
ATOM     28  H62 UNL     1       6.327  30.713  21.772  1.00  0.00     0.174 HD
ATOM     29  H61 UNL     1       7.815  31.517  21.229  1.00  0.00     0.174 HD
ENDBRANCH  18  27
ENDBRANCH   6   7
ENDBRANCH   5   6
ENDBRANCH   4   5
ENDBRANCH   3   4
TORSDOF 6
ENDMDL
