MODEL 1
REMARK VINA RESULT: -7.411561231      0.000      0.000
REMARK  7 active torsions:
REMARK  status: ('A' for Active; 'I' for Inactive)
REMARK    1  A    between atoms: C5_11  and  C6_12 
REMARK    2  A    between atoms: C6_12  and  N3_13 
REMARK    3  A    between atoms: N3_13  and  C7_16 
REMARK    4  A    between atoms: C7_16  and  C8_17 
REMARK    5  A    between atoms: C8_17  and  N4_18 
REMARK    6  A    between atoms: C10_22  and  N6_23 
REMARK    7  A    between atoms: C11_28  and  N8_29 
ROOT
HETATM    1  C7  UNL     1       6.416  36.243  21.164  1.00  0.00     0.255 C 
ENDROOT
BRANCH   1   2
HETATM    2  N3  UNL     1       5.067  36.842  21.189  1.00  0.00    -0.069 N 
ATOM      3  H32 UNL     1       4.862  37.272  22.091  1.00  0.00     0.277 HD
ATOM      4  H31 UNL     1       4.338  36.128  21.189  1.00  0.00     0.277 HD
BRANCH   2   5
HETATM    5  C6  UNL     1       4.899  37.765  20.117  1.00  0.00     0.278 C 
BRANCH   5   6
HETATM    6  C5  UNL     1       4.876  37.092  18.809  1.00  0.00     0.058 A 
HETATM    7  C2  UNL     1       5.712  37.654  17.812  1.00  0.00     0.023 A 
HETATM    8  C1  UNL     1       6.559  38.847  18.138  1.00  0.00     0.069 C 
HETATM    9  N1  UNL     1       5.722  37.098  16.597  1.00  0.00    -0.312 N 
HETATM   10  C3  UNL     1       4.948  36.030  16.346  1.00  0.00     0.327 A 
ATOM     11  H1  UNL     1       6.315  37.483  15.862  1.00  0.00     0.170 HD
HETATM   12  O1  UNL     1       4.951  35.496  15.200  1.00  0.00    -0.247 OA
HETATM   13  N2  UNL     1       4.152  35.485  17.273  1.00  0.00    -0.275 N 
HETATM   14  C4  UNL     1       4.106  36.004  18.506  1.00  0.00     0.259 A 
ATOM     15  H2  UNL     1       3.580  34.673  17.040  1.00  0.00     0.173 HD
HETATM   16  O2  UNL     1       3.353  35.476  19.342  1.00  0.00    -0.267 OA
ENDBRANCH   5   6
ENDBRANCH   2   5
ENDBRANCH   1   2
BRANCH   1  17
HETATM   17  C8  UNL     1       6.579  35.429  22.410  1.00  0.00     0.195 C 
BRANCH  17  18
HETATM   18  N4  UNL     1       6.654  34.020  22.067  1.00  0.00    -0.123 N 
HETATM   19  N5  UNL     1       6.381  33.618  20.838  1.00  0.00    -0.292 N 
HETATM   20  C9  UNL     1       6.450  32.337  20.494  1.00  0.00     0.156 A 
ATOM     21  H5  UNL     1       6.110  34.308  20.138  1.00  0.00     0.186 HD
HETATM   22  C10 UNL     1       6.815  31.379  21.426  1.00  0.00     0.131 A 
HETATM   23  N7  UNL     1       7.082  31.827  22.648  1.00  0.00    -0.175 N 
HETATM   24  C11 UNL     1       7.012  33.132  23.003  1.00  0.00     0.694 A 
ATOM     25  H7  UNL     1       7.354  31.149  23.359  1.00  0.00     0.186 HD
BRANCH  22  26
HETATM   26  N6  UNL     1       6.883  30.129  21.088  1.00  0.00    -0.384 N 
ATOM     27  H62 UNL     1       7.406  29.789  20.281  1.00  0.00     0.157 HD
ATOM     28  H61 UNL     1       6.399  29.420  21.638  1.00  0.00     0.157 HD
ENDBRANCH  22  26
BRANCH  24  29
HETATM   29  N8  UNL     1       7.291  33.405  24.225  1.00  0.00    -0.233 N 
ATOM     30  H82 UNL     1       7.124  34.365  24.523  1.00  0.00     0.174 HD
ATOM     31  H81 UNL     1       7.667  32.749  24.909  1.00  0.00     0.174 HD
ENDBRANCH  24  29
ENDBRANCH  17  18
ENDBRANCH   1  17
TORSDOF 7
ENDMDL
MODEL 2
REMARK VINA RESULT: -7.190214456      1.712      2.418
REMARK  7 active torsions:
REMARK  status: ('A' for Active; 'I' for Inactive)
REMARK    1  A    between atoms: C5_11  and  C6_12 
REMARK    2  A    between atoms: C6_12  and  N3_13 
REMARK    3  A    between atoms: N3_13  and  C7_16 
REMARK    4  A    between atoms: C7_16  and  C8_17 
REMARK    5  A    between atoms: C8_17  and  N4_18 
REMARK    6  A    between atoms: C10_22  and  N6_23 
REMARK    7  A    between atoms: C11_28  and  N8_29 
ROOT
HETATM    1  C7  UNL     1       6.496  36.488  21.266  1.00  0.00     0.255 C 
ENDROOT
BRANCH   1   2
HETATM    2  N3  UNL     1       5.220  37.219  21.135  1.00  0.00    -0.069 N 
ATOM      3  H32 UNL     1       4.989  37.728  21.988  1.00  0.00     0.277 HD
ATOM      4  H31 UNL     1       4.423  36.583  21.113  1.00  0.00     0.277 HD
BRANCH   2   5
HETATM    5  C6  UNL     1       5.239  38.077  19.999  1.00  0.00     0.278 C 
BRANCH   5   6
HETATM    6  C5  UNL     1       5.118  37.327  18.738  1.00  0.00     0.058 A 
HETATM    7  C2  UNL     1       6.125  37.577  17.774  1.00  0.00     0.023 A 
HETATM    8  C1  UNL     1       7.231  38.541  18.085  1.00  0.00     0.069 C 
HETATM    9  N1  UNL     1       6.061  36.938  16.601  1.00  0.00    -0.312 N 
HETATM   10  C3  UNL     1       5.056  36.082  16.362  1.00  0.00     0.327 A 
ATOM     11  H1  UNL     1       6.775  37.100  15.891  1.00  0.00     0.170 HD
HETATM   12  O1  UNL     1       4.986  35.473  15.257  1.00  0.00    -0.247 OA
HETATM   13  N2  UNL     1       4.095  35.833  17.260  1.00  0.00    -0.275 N 
HETATM   14  C4  UNL     1       4.113  36.446  18.449  1.00  0.00     0.259 A 
ATOM     15  H2  UNL     1       3.348  35.174  17.038  1.00  0.00     0.173 HD
HETATM   16  O2  UNL     1       3.204  36.195  19.258  1.00  0.00    -0.267 OA
ENDBRANCH   5   6
ENDBRANCH   2   5
ENDBRANCH   1   2
BRANCH   1  17
HETATM   17  C8  UNL     1       6.220  35.210  21.994  1.00  0.00     0.195 C 
BRANCH  17  18
HETATM   18  N4  UNL     1       5.173  34.472  21.307  1.00  0.00    -0.123 N 
HETATM   19  N5  UNL     1       3.912  34.602  21.680  1.00  0.00    -0.292 N 
HETATM   20  C9  UNL     1       2.934  33.947  21.065  1.00  0.00     0.156 A 
ATOM     21  H5  UNL     1       3.685  35.221  22.459  1.00  0.00     0.186 HD
HETATM   22  C10 UNL     1       3.216  33.101  20.004  1.00  0.00     0.131 A 
HETATM   23  N7  UNL     1       4.496  33.001  19.663  1.00  0.00    -0.175 N 
HETATM   24  C11 UNL     1       5.495  33.667  20.288  1.00  0.00     0.694 A 
ATOM     25  H7  UNL     1       4.739  32.387  18.886  1.00  0.00     0.186 HD
BRANCH  22  26
HETATM   26  N6  UNL     1       2.260  32.463  19.404  1.00  0.00    -0.384 N 
ATOM     27  H62 UNL     1       1.887  31.570  19.725  1.00  0.00     0.157 HD
ATOM     28  H61 UNL     1       1.834  32.847  18.560  1.00  0.00     0.157 HD
ENDBRANCH  22  26
BRANCH  24  29
HETATM   29  N8  UNL     1       6.681  33.458  19.846  1.00  0.00    -0.233 N 
ATOM     30  H82 UNL     1       7.414  33.351  20.548  1.00  0.00     0.174 HD
ATOM     31  H81 UNL     1       6.947  33.396  18.863  1.00  0.00     0.174 HD
ENDBRANCH  24  29
ENDBRANCH  17  18
ENDBRANCH   1  17
TORSDOF 7
ENDMDL
MODEL 3
REMARK VINA RESULT: -7.145944028      2.294      4.061
REMARK  7 active torsions:
REMARK  status: ('A' for Active; 'I' for Inactive)
REMARK    1  A    between atoms: C5_11  and  C6_12 
REMARK    2  A    between atoms: C6_12  and  N3_13 
REMARK    3  A    between atoms: N3_13  and  C7_16 
REMARK    4  A    between atoms: C7_16  and  C8_17 
REMARK    5  A    between atoms: C8_17  and  N4_18 
REMARK    6  A    between atoms: C10_22  and  N6_23 
REMARK    7  A    between atoms: C11_28  and  N8_29 
ROOT
HETATM    1  C7  UNL     1       5.023  38.468  20.591  1.00  0.00     0.255 C 
ENDROOT
BRANCH   1   2
HETATM    2  N3  UNL     1       4.338  38.414  19.285  1.00  0.00    -0.069 N 
ATOM      3  H32 UNL     1       4.781  37.745  18.655  1.00  0.00     0.277 HD
ATOM      4  H31 UNL     1       4.494  39.264  18.742  1.00  0.00     0.277 HD
BRANCH   2   5
HETATM    5  C6  UNL     1       2.950  38.142  19.448  1.00  0.00     0.278 C 
BRANCH   5   6
HETATM    6  C5  UNL     1       2.705  36.750  19.860  1.00  0.00     0.058 A 
HETATM    7  C2  UNL     1       2.010  36.583  21.083  1.00  0.00     0.023 A 
HETATM    8  C1  UNL     1       1.560  37.787  21.854  1.00  0.00     0.069 C 
HETATM    9  N1  UNL     1       1.772  35.342  21.519  1.00  0.00    -0.312 N 
HETATM   10  C3  UNL     1       2.191  34.290  20.799  1.00  0.00     0.327 A 
ATOM     11  H1  UNL     1       1.274  35.195  22.396  1.00  0.00     0.170 HD
HETATM   12  O1  UNL     1       1.971  33.112  21.202  1.00  0.00    -0.247 OA
HETATM   13  N2  UNL     1       2.849  34.427  19.641  1.00  0.00    -0.275 N 
HETATM   14  C4  UNL     1       3.112  35.648  19.161  1.00  0.00     0.259 A 
ATOM     15  H2  UNL     1       3.150  33.600  19.124  1.00  0.00     0.173 HD
HETATM   16  O2  UNL     1       3.728  35.740  18.085  1.00  0.00    -0.267 OA
ENDBRANCH   5   6
ENDBRANCH   2   5
ENDBRANCH   1   2
BRANCH   1  17
HETATM   17  C8  UNL     1       6.388  37.878  20.418  1.00  0.00     0.195 C 
BRANCH  17  18
HETATM   18  N4  UNL     1       6.318  36.433  20.555  1.00  0.00    -0.123 N 
HETATM   19  N5  UNL     1       6.049  35.888  21.728  1.00  0.00    -0.292 N 
HETATM   20  C9  UNL     1       5.970  34.571  21.881  1.00  0.00     0.156 A 
ATOM     21  H5  UNL     1       5.898  36.494  22.535  1.00  0.00     0.186 HD
HETATM   22  C10 UNL     1       6.169  33.726  20.801  1.00  0.00     0.131 A 
HETATM   23  N7  UNL     1       6.437  34.317  19.642  1.00  0.00    -0.175 N 
HETATM   24  C11 UNL     1       6.519  35.659  19.482  1.00  0.00     0.694 A 
ATOM     25  H7  UNL     1       6.589  33.725  18.825  1.00  0.00     0.186 HD
BRANCH  22  26
HETATM   26  N6  UNL     1       6.091  32.441  20.952  1.00  0.00    -0.384 N 
ATOM     27  H62 UNL     1       5.251  31.959  21.271  1.00  0.00     0.157 HD
ATOM     28  H61 UNL     1       6.896  31.849  20.750  1.00  0.00     0.157 HD
ENDBRANCH  22  26
BRANCH  24  29
HETATM   29  N8  UNL     1       6.793  36.075  18.300  1.00  0.00    -0.233 N 
ATOM     30  H82 UNL     1       6.003  36.187  17.665  1.00  0.00     0.174 HD
ATOM     31  H81 UNL     1       7.725  36.294  17.948  1.00  0.00     0.174 HD
ENDBRANCH  24  29
ENDBRANCH  17  18
ENDBRANCH   1  17
TORSDOF 7
ENDMDL
MODEL 4
REMARK VINA RESULT: -7.060314412      1.761      3.007
REMARK  7 active torsions:
REMARK  status: ('A' for Active; 'I' for Inactive)
REMARK    1  A    between atoms: C5_11  and  C6_12 
REMARK    2  A    between atoms: C6_12  and  N3_13 
REMARK    3  A    between atoms: N3_13  and  C7_16 
REMARK    4  A    between atoms: C7_16  and  C8_17 
REMARK    5  A    between atoms: C8_17  and  N4_18 
REMARK    6  A    between atoms: C10_22  and  N6_23 
REMARK    7  A    between atoms: C11_28  and  N8_29 
ROOT
HETATM    1  C7  UNL     1       4.091  34.539  19.763  1.00  0.00     0.255 C 
ENDROOT
BRANCH   1   2
HETATM    2  N3  UNL     1       3.585  35.359  18.645  1.00  0.00    -0.069 N 
ATOM      3  H32 UNL     1       2.654  35.063  18.352  1.00  0.00     0.277 HD
ATOM      4  H31 UNL     1       4.089  35.165  17.778  1.00  0.00     0.277 HD
BRANCH   2   5
HETATM    5  C6  UNL     1       3.618  36.744  18.973  1.00  0.00     0.278 C 
BRANCH   5   6
HETATM    6  C5  UNL     1       4.811  37.412  18.431  1.00  0.00     0.058 A 
HETATM    7  C2  UNL     1       5.501  38.265  19.328  1.00  0.00     0.023 A 
HETATM    8  C1  UNL     1       5.009  38.419  20.735  1.00  0.00     0.069 C 
HETATM    9  N1  UNL     1       6.584  38.914  18.889  1.00  0.00    -0.312 N 
HETATM   10  C3  UNL     1       6.993  38.748  17.621  1.00  0.00     0.327 A 
ATOM     11  H1  UNL     1       7.099  39.533  19.515  1.00  0.00     0.170 HD
HETATM   12  O1  UNL     1       8.016  39.357  17.196  1.00  0.00    -0.247 OA
HETATM   13  N2  UNL     1       6.355  37.948  16.758  1.00  0.00    -0.275 N 
HETATM   14  C4  UNL     1       5.265  37.275  17.149  1.00  0.00     0.259 A 
ATOM     15  H2  UNL     1       6.699  37.850  15.803  1.00  0.00     0.173 HD
HETATM   16  O2  UNL     1       4.695  36.543  16.322  1.00  0.00    -0.267 OA
ENDBRANCH   5   6
ENDBRANCH   2   5
ENDBRANCH   1   2
BRANCH   1  17
HETATM   17  C8  UNL     1       5.587  34.588  19.728  1.00  0.00     0.195 C 
BRANCH  17  18
HETATM   18  N4  UNL     1       6.124  34.053  20.968  1.00  0.00    -0.123 N 
HETATM   19  N5  UNL     1       6.234  34.827  22.033  1.00  0.00    -0.292 N 
HETATM   20  C9  UNL     1       6.713  34.364  23.182  1.00  0.00     0.156 A 
ATOM     21  H5  UNL     1       5.945  35.803  21.972  1.00  0.00     0.186 HD
HETATM   22  C10 UNL     1       7.112  33.041  23.293  1.00  0.00     0.131 A 
HETATM   23  N7  UNL     1       6.984  32.301  22.198  1.00  0.00    -0.175 N 
HETATM   24  C11 UNL     1       6.497  32.769  21.025  1.00  0.00     0.694 A 
ATOM     25  H7  UNL     1       7.268  31.322  22.244  1.00  0.00     0.186 HD
BRANCH  22  26
HETATM   26  N6  UNL     1       7.579  32.590  24.415  1.00  0.00    -0.384 N 
ATOM     27  H62 UNL     1       7.462  33.067  25.310  1.00  0.00     0.157 HD
ATOM     28  H61 UNL     1       8.097  31.712  24.442  1.00  0.00     0.157 HD
ENDBRANCH  22  26
BRANCH  24  29
HETATM   29  N8  UNL     1       6.442  31.931  20.056  1.00  0.00    -0.233 N 
ATOM     30  H82 UNL     1       5.510  31.696  19.713  1.00  0.00     0.174 HD
ATOM     31  H81 UNL     1       7.243  31.483  19.611  1.00  0.00     0.174 HD
ENDBRANCH  24  29
ENDBRANCH  17  18
ENDBRANCH   1  17
TORSDOF 7
ENDMDL
MODEL 5
REMARK VINA RESULT: -7.051750205      2.782      4.061
REMARK  7 active torsions:
REMARK  status: ('A' for Active; 'I' for Inactive)
REMARK    1  A    between atoms: C5_11  and  C6_12 
REMARK    2  A    between atoms: C6_12  and  N3_13 
REMARK    3  A    between atoms: N3_13  and  C7_16 
REMARK    4  A    between atoms: C7_16  and  C8_17 
REMARK    5  A    between atoms: C8_17  and  N4_18 
REMARK    6  A    between atoms: C10_22  and  N6_23 
REMARK    7  A    between atoms: C11_28  and  N8_29 
ROOT
HETATM    1  C7  UNL     1       1.535  36.125  21.269  1.00  0.00     0.255 C 
ENDROOT
BRANCH   1   2
HETATM    2  N3  UNL     1       1.294  36.641  19.906  1.00  0.00    -0.069 N 
ATOM      3  H32 UNL     1       0.307  36.588  19.653  1.00  0.00     0.277 HD
ATOM      4  H31 UNL     1       1.670  36.014  19.194  1.00  0.00     0.277 HD
BRANCH   2   5
HETATM    5  C6  UNL     1       1.803  37.963  19.765  1.00  0.00     0.278 C 
BRANCH   5   6
HETATM    6  C5  UNL     1       3.274  37.995  19.807  1.00  0.00     0.058 A 
HETATM    7  C2  UNL     1       3.844  38.870  20.764  1.00  0.00     0.023 A 
HETATM    8  C1  UNL     1       2.952  39.671  21.665  1.00  0.00     0.069 C 
HETATM    9  N1  UNL     1       5.176  38.956  20.840  1.00  0.00    -0.312 N 
HETATM   10  C3  UNL     1       5.939  38.222  20.016  1.00  0.00     0.327 A 
ATOM     11  H1  UNL     1       5.610  39.579  21.521  1.00  0.00     0.170 HD
HETATM   12  O1  UNL     1       7.200  38.296  20.080  1.00  0.00    -0.247 OA
HETATM   13  N2  UNL     1       5.420  37.390  19.105  1.00  0.00    -0.275 N 
HETATM   14  C4  UNL     1       4.092  37.267  18.989  1.00  0.00     0.259 A 
ATOM     15  H2  UNL     1       6.037  36.850  18.498  1.00  0.00     0.173 HD
HETATM   16  O2  UNL     1       3.644  36.488  18.131  1.00  0.00    -0.267 OA
ENDBRANCH   5   6
ENDBRANCH   2   5
ENDBRANCH   1   2
BRANCH   1  17
HETATM   17  C8  UNL     1       1.635  34.634  21.183  1.00  0.00     0.195 C 
BRANCH  17  18
HETATM   18  N4  UNL     1       3.003  34.252  20.876  1.00  0.00    -0.123 N 
HETATM   19  N5  UNL     1       4.014  34.868  21.464  1.00  0.00    -0.292 N 
HETATM   20  C9  UNL     1       5.274  34.536  21.210  1.00  0.00     0.156 A 
ATOM     21  H5  UNL     1       3.821  35.618  22.129  1.00  0.00     0.186 HD
HETATM   22  C10 UNL     1       5.564  33.521  20.312  1.00  0.00     0.131 A 
HETATM   23  N7  UNL     1       4.518  32.929  19.745  1.00  0.00    -0.175 N 
HETATM   24  C11 UNL     1       3.233  33.266  20.001  1.00  0.00     0.694 A 
ATOM     25  H7  UNL     1       4.695  32.177  19.079  1.00  0.00     0.186 HD
BRANCH  22  26
HETATM   26  N6  UNL     1       6.794  33.196  20.065  1.00  0.00    -0.384 N 
ATOM     27  H62 UNL     1       7.530  33.875  19.867  1.00  0.00     0.157 HD
ATOM     28  H61 UNL     1       7.078  32.216  20.061  1.00  0.00     0.157 HD
ENDBRANCH  22  26
BRANCH  24  29
HETATM   29  N8  UNL     1       2.334  32.605  19.367  1.00  0.00    -0.233 N 
ATOM     30  H82 UNL     1       2.227  31.624  19.626  1.00  0.00     0.174 HD
ATOM     31  H81 UNL     1       1.731  32.975  18.633  1.00  0.00     0.174 HD
ENDBRANCH  24  29
ENDBRANCH  17  18
ENDBRANCH   1  17
TORSDOF 7
ENDMDL
