MODEL 1
REMARK VINA RESULT: -7.754857871      0.000      0.000
REMARK  7 active torsions:
REMARK  status: ('A' for Active; 'I' for Inactive)
REMARK    1  A    between atoms: N1_2  and  C2_5 
REMARK    2  A    between atoms: C2_5  and  O1_6 
REMARK    3  A    between atoms: O1_6  and  C3_7 
REMARK    4  A    between atoms: C6_16  and  C7_17 
REMARK    5  A    between atoms: C7_17  and  N4_18 
REMARK    6  A    between atoms: N4_18  and  N5_20 
REMARK    7  A    between atoms: N5_20  and  C8_22 
ROOT
HETATM    1  C3  UNL     1       5.761  37.239  19.260  1.00  0.00     0.165 A 
HETATM    2  N2  UNL     1       6.771  38.070  18.859  1.00  0.00    -0.288 N 
ATOM      3  H2  UNL     1       7.376  38.478  19.571  1.00  0.00     0.172 HD
HETATM    4  C4  UNL     1       7.004  38.371  17.583  1.00  0.00     0.329 A 
HETATM    5  O2  UNL     1       7.950  39.145  17.244  1.00  0.00    -0.247 OA
HETATM    6  N3  UNL     1       6.205  37.830  16.638  1.00  0.00    -0.275 N 
ATOM      7  H3  UNL     1       6.382  38.060  15.660  1.00  0.00     0.173 HD
HETATM    8  C5  UNL     1       5.191  37.007  16.926  1.00  0.00     0.265 A 
HETATM    9  O3  UNL     1       4.451  36.507  16.049  1.00  0.00    -0.267 OA
HETATM   10  C6  UNL     1       4.974  36.710  18.282  1.00  0.00     0.100 A 
ENDROOT
BRANCH  10  11
HETATM   11  C7  UNL     1       3.907  35.790  18.603  1.00  0.00     0.129 C 
BRANCH  11  12
HETATM   12  N4  UNL     1       4.044  34.544  18.373  1.00  0.00    -0.296 N 
ATOM     13  H4  UNL     1       4.276  34.263  17.421  1.00  0.00     0.186 HD
BRANCH  12  14
HETATM   14  N5  UNL     1       3.899  33.540  19.318  1.00  0.00    -0.131 N 
ATOM     15  H5  UNL     1       3.108  32.900  19.247  1.00  0.00     0.205 HD
BRANCH  14  16
HETATM   16  C8  UNL     1       4.754  33.394  20.301  1.00  0.00     0.715 A 
HETATM   17  N6  UNL     1       4.730  34.000  21.511  1.00  0.00    -0.127 N 
HETATM   18  N7  UNL     1       5.759  33.597  22.229  1.00  0.00    -0.237 N 
ATOM     19  H6  UNL     1       4.023  34.667  21.820  1.00  0.00     0.206 HD
HETATM   20  C9  UNL     1       6.460  32.726  21.494  1.00  0.00     0.353 A 
ATOM     21  H7  UNL     1       5.981  33.897  23.179  1.00  0.00     0.192 HD
HETATM   22  O4  UNL     1       7.512  32.125  21.837  1.00  0.00    -0.245 OA
HETATM   23  N8  UNL     1       5.828  32.605  20.292  1.00  0.00    -0.137 N 
ATOM     24  H8  UNL     1       6.126  32.011  19.517  1.00  0.00     0.189 HD
ENDBRANCH  14  16
ENDBRANCH  12  14
ENDBRANCH  11  12
ENDBRANCH  10  11
BRANCH   1  25
HETATM   25  O1  UNL     1       5.595  36.992  20.605  1.00  0.00    -0.307 OA
BRANCH  25  26
HETATM   26  C2  UNL     1       6.737  36.969  21.433  1.00  0.00     0.408 C 
BRANCH  26  27
HETATM   27  N1  UNL     1       6.402  37.159  22.828  1.00  0.00    -0.058 N 
HETATM   28  C1  UNL     1       7.323  36.529  23.716  1.00  0.00     0.269 C 
ATOM     29  H12 UNL     1       5.448  36.853  23.018  1.00  0.00     0.279 HD
ATOM     30  H11 UNL     1       6.307  38.151  23.047  1.00  0.00     0.279 HD
ENDBRANCH  26  27
ENDBRANCH  25  26
ENDBRANCH   1  25
TORSDOF 7
ENDMDL
MODEL 2
REMARK VINA RESULT: -7.648337841      2.809      4.957
REMARK  7 active torsions:
REMARK  status: ('A' for Active; 'I' for Inactive)
REMARK    1  A    between atoms: N1_2  and  C2_5 
REMARK    2  A    between atoms: C2_5  and  O1_6 
REMARK    3  A    between atoms: O1_6  and  C3_7 
REMARK    4  A    between atoms: C6_16  and  C7_17 
REMARK    5  A    between atoms: C7_17  and  N4_18 
REMARK    6  A    between atoms: N4_18  and  N5_20 
REMARK    7  A    between atoms: N5_20  and  C8_22 
ROOT
HETATM    1  C3  UNL     1       4.651  35.663  18.746  1.00  0.00     0.165 A 
HETATM    2  N2  UNL     1       4.306  35.435  17.442  1.00  0.00    -0.288 N 
ATOM      3  H2  UNL     1       3.560  34.767  17.246  1.00  0.00     0.172 HD
HETATM    4  C4  UNL     1       4.896  36.043  16.415  1.00  0.00     0.329 A 
HETATM    5  O2  UNL     1       4.552  35.810  15.217  1.00  0.00    -0.247 OA
HETATM    6  N3  UNL     1       5.884  36.928  16.672  1.00  0.00    -0.275 N 
ATOM      7  H3  UNL     1       6.337  37.395  15.886  1.00  0.00     0.173 HD
HETATM    8  C5  UNL     1       6.294  37.220  17.911  1.00  0.00     0.265 A 
HETATM    9  O3  UNL     1       7.209  38.041  18.148  1.00  0.00    -0.267 OA
HETATM   10  C6  UNL     1       5.649  36.561  18.971  1.00  0.00     0.100 A 
ENDROOT
BRANCH  10  11
HETATM   11  C7  UNL     1       6.057  36.898  20.316  1.00  0.00     0.129 C 
BRANCH  11  12
HETATM   12  N4  UNL     1       5.185  37.033  21.235  1.00  0.00    -0.296 N 
ATOM     13  H4  UNL     1       5.087  36.272  21.907  1.00  0.00     0.186 HD
BRANCH  12  14
HETATM   14  N5  UNL     1       4.360  38.136  21.393  1.00  0.00    -0.131 N 
ATOM     15  H5  UNL     1       4.734  38.978  21.832  1.00  0.00     0.205 HD
BRANCH  14  16
HETATM   16  C8  UNL     1       3.113  38.123  20.993  1.00  0.00     0.715 A 
HETATM   17  N6  UNL     1       2.400  39.154  20.484  1.00  0.00    -0.127 N 
HETATM   18  N7  UNL     1       1.178  38.751  20.198  1.00  0.00    -0.237 N 
ATOM     19  H6  UNL     1       2.753  40.100  20.343  1.00  0.00     0.206 HD
HETATM   20  C9  UNL     1       1.086  37.454  20.517  1.00  0.00     0.353 A 
ATOM     21  H7  UNL     1       0.434  39.326  19.802  1.00  0.00     0.192 HD
HETATM   22  O4  UNL     1       0.074  36.716  20.389  1.00  0.00    -0.245 OA
HETATM   23  N8  UNL     1       2.296  37.069  21.013  1.00  0.00    -0.137 N 
ATOM     24  H8  UNL     1       2.536  36.134  21.344  1.00  0.00     0.189 HD
ENDBRANCH  14  16
ENDBRANCH  12  14
ENDBRANCH  11  12
ENDBRANCH  10  11
BRANCH   1  25
HETATM   25  O1  UNL     1       3.986  34.980  19.741  1.00  0.00    -0.307 OA
BRANCH  25  26
HETATM   26  C2  UNL     1       3.966  33.570  19.694  1.00  0.00     0.408 C 
BRANCH  26  27
HETATM   27  N1  UNL     1       2.620  33.042  19.767  1.00  0.00    -0.058 N 
HETATM   28  C1  UNL     1       1.935  33.417  20.960  1.00  0.00     0.269 C 
ATOM     29  H12 UNL     1       2.620  32.029  19.651  1.00  0.00     0.279 HD
ATOM     30  H11 UNL     1       2.082  33.305  18.941  1.00  0.00     0.279 HD
ENDBRANCH  26  27
ENDBRANCH  25  26
ENDBRANCH   1  25
TORSDOF 7
ENDMDL
MODEL 3
REMARK VINA RESULT: -7.578395727      1.713      3.520
REMARK  7 active torsions:
REMARK  status: ('A' for Active; 'I' for Inactive)
REMARK    1  A    between atoms: N1_2  and  C2_5 
REMARK    2  A    between atoms: C2_5  and  O1_6 
REMARK    3  A    between atoms: O1_6  and  C3_7 
REMARK    4  A    between atoms: C6_16  and  C7_17 
REMARK    5  A    between atoms: C7_17  and  N4_18 
REMARK    6  A    between atoms: N4_18  and  N5_20 
REMARK    7  A    between atoms: N5_20  and  C8_22 
ROOT
HETATM    1  C3  UNL     1       4.364  35.593  18.654  1.00  0.00     0.165 A 
HETATM    2  N2  UNL     1       4.146  35.433  17.313  1.00  0.00    -0.288 N 
ATOM      3  H2  UNL     1       3.391  34.816  17.014  1.00  0.00     0.172 HD
HETATM    4  C4  UNL     1       4.870  36.045  16.379  1.00  0.00     0.329 A 
HETATM    5  O2  UNL     1       4.641  35.875  15.143  1.00  0.00    -0.247 OA
HETATM    6  N3  UNL     1       5.870  36.864  16.772  1.00  0.00    -0.275 N 
ATOM      7  H3  UNL     1       6.426  37.333  16.057  1.00  0.00     0.173 HD
HETATM    8  C5  UNL     1       6.164  37.086  18.058  1.00  0.00     0.265 A 
HETATM    9  O3  UNL     1       7.090  37.845  18.421  1.00  0.00    -0.267 OA
HETATM   10  C6  UNL     1       5.379  36.426  19.017  1.00  0.00     0.100 A 
ENDROOT
BRANCH  10  11
HETATM   11  C7  UNL     1       5.661  36.690  20.410  1.00  0.00     0.129 C 
BRANCH  11  12
HETATM   12  N4  UNL     1       6.279  35.827  21.114  1.00  0.00    -0.296 N 
ATOM     13  H4  UNL     1       7.299  35.841  21.089  1.00  0.00     0.186 HD
BRANCH  12  14
HETATM   14  N5  UNL     1       5.673  34.869  21.912  1.00  0.00    -0.131 N 
ATOM     15  H5  UNL     1       4.761  35.070  22.324  1.00  0.00     0.205 HD
BRANCH  14  16
HETATM   16  C8  UNL     1       6.243  33.714  22.151  1.00  0.00     0.715 A 
HETATM   17  N6  UNL     1       6.965  33.360  23.239  1.00  0.00    -0.127 N 
HETATM   18  N7  UNL     1       7.373  32.113  23.115  1.00  0.00    -0.237 N 
ATOM     19  H6  UNL     1       7.164  33.966  24.035  1.00  0.00     0.206 HD
HETATM   20  C9  UNL     1       6.920  31.645  21.946  1.00  0.00     0.353 A 
ATOM     21  H7  UNL     1       7.936  31.596  23.791  1.00  0.00     0.192 HD
HETATM   22  O4  UNL     1       7.104  30.493  21.473  1.00  0.00    -0.245 OA
HETATM   23  N8  UNL     1       6.216  32.649  21.349  1.00  0.00    -0.137 N 
ATOM     24  H8  UNL     1       5.748  32.594  20.444  1.00  0.00     0.189 HD
ENDBRANCH  14  16
ENDBRANCH  12  14
ENDBRANCH  11  12
ENDBRANCH  10  11
BRANCH   1  25
HETATM   25  O1  UNL     1       3.565  34.912  19.546  1.00  0.00    -0.307 OA
BRANCH  25  26
HETATM   26  C2  UNL     1       3.515  33.505  19.469  1.00  0.00     0.408 C 
BRANCH  26  27
HETATM   27  N1  UNL     1       2.255  32.978  19.951  1.00  0.00    -0.058 N 
HETATM   28  C1  UNL     1       1.791  33.629  21.131  1.00  0.00     0.269 C 
ATOM     29  H12 UNL     1       2.313  31.970  20.092  1.00  0.00     0.279 HD
ATOM     30  H11 UNL     1       1.547  33.005  19.218  1.00  0.00     0.279 HD
ENDBRANCH  26  27
ENDBRANCH  25  26
ENDBRANCH   1  25
TORSDOF 7
ENDMDL
MODEL 4
REMARK VINA RESULT: -7.551426147      2.116      5.712
REMARK  7 active torsions:
REMARK  status: ('A' for Active; 'I' for Inactive)
REMARK    1  A    between atoms: N1_2  and  C2_5 
REMARK    2  A    between atoms: C2_5  and  O1_6 
REMARK    3  A    between atoms: O1_6  and  C3_7 
REMARK    4  A    between atoms: C6_16  and  C7_17 
REMARK    5  A    between atoms: C7_17  and  N4_18 
REMARK    6  A    between atoms: N4_18  and  N5_20 
REMARK    7  A    between atoms: N5_20  and  C8_22 
ROOT
HETATM    1  C3  UNL     1       4.829  33.962  21.308  1.00  0.00     0.165 A 
HETATM    2  N2  UNL     1       3.666  33.247  21.220  1.00  0.00    -0.288 N 
ATOM      3  H2  UNL     1       3.646  32.303  21.607  1.00  0.00     0.172 HD
HETATM    4  C4  UNL     1       2.559  33.723  20.655  1.00  0.00     0.329 A 
HETATM    5  O2  UNL     1       1.496  33.034  20.590  1.00  0.00    -0.247 OA
HETATM    6  N3  UNL     1       2.584  34.973  20.143  1.00  0.00    -0.275 N 
ATOM      7  H3  UNL     1       1.735  35.339  19.710  1.00  0.00     0.173 HD
HETATM    8  C5  UNL     1       3.670  35.752  20.179  1.00  0.00     0.265 A 
HETATM    9  O3  UNL     1       3.691  36.910  19.705  1.00  0.00    -0.267 OA
HETATM   10  C6  UNL     1       4.820  35.219  20.783  1.00  0.00     0.100 A 
ENDROOT
BRANCH  10  11
HETATM   11  C7  UNL     1       5.988  36.066  20.864  1.00  0.00     0.129 C 
BRANCH  11  12
HETATM   12  N4  UNL     1       6.772  36.175  19.865  1.00  0.00    -0.296 N 
ATOM     13  H4  UNL     1       7.446  35.425  19.711  1.00  0.00     0.186 HD
BRANCH  12  14
HETATM   14  N5  UNL     1       6.780  37.235  18.972  1.00  0.00    -0.131 N 
ATOM     15  H5  UNL     1       7.200  38.121  19.255  1.00  0.00     0.205 HD
BRANCH  14  16
HETATM   16  C8  UNL     1       6.261  37.127  17.774  1.00  0.00     0.715 A 
HETATM   17  N6  UNL     1       6.306  38.035  16.771  1.00  0.00    -0.127 N 
HETATM   18  N7  UNL     1       5.670  37.564  15.717  1.00  0.00    -0.237 N 
ATOM     19  H6  UNL     1       6.763  38.945  16.823  1.00  0.00     0.206 HD
HETATM   20  C9  UNL     1       5.206  36.347  16.025  1.00  0.00     0.353 A 
ATOM     21  H7  UNL     1       5.552  38.044  14.824  1.00  0.00     0.192 HD
HETATM   22  O4  UNL     1       4.546  35.580  15.275  1.00  0.00    -0.245 OA
HETATM   23  N8  UNL     1       5.578  36.081  17.309  1.00  0.00    -0.137 N 
ATOM     24  H8  UNL     1       5.369  35.227  17.827  1.00  0.00     0.189 HD
ENDBRANCH  14  16
ENDBRANCH  12  14
ENDBRANCH  11  12
ENDBRANCH  10  11
BRANCH   1  25
HETATM   25  O1  UNL     1       5.926  33.381  21.906  1.00  0.00    -0.307 OA
BRANCH  25  26
HETATM   26  C2  UNL     1       6.622  32.374  21.207  1.00  0.00     0.408 C 
BRANCH  26  27
HETATM   27  N1  UNL     1       6.347  31.054  21.736  1.00  0.00    -0.058 N 
HETATM   28  C1  UNL     1       7.068  30.022  21.067  1.00  0.00     0.269 C 
ATOM     29  H12 UNL     1       5.346  30.861  21.729  1.00  0.00     0.279 HD
ATOM     30  H11 UNL     1       6.517  31.024  22.741  1.00  0.00     0.279 HD
ENDBRANCH  26  27
ENDBRANCH  25  26
ENDBRANCH   1  25
TORSDOF 7
ENDMDL
MODEL 5
REMARK VINA RESULT: -7.548177898      2.147      4.659
REMARK  7 active torsions:
REMARK  status: ('A' for Active; 'I' for Inactive)
REMARK    1  A    between atoms: N1_2  and  C2_5 
REMARK    2  A    between atoms: C2_5  and  O1_6 
REMARK    3  A    between atoms: O1_6  and  C3_7 
REMARK    4  A    between atoms: C6_16  and  C7_17 
REMARK    5  A    between atoms: C7_17  and  N4_18 
REMARK    6  A    between atoms: N4_18  and  N5_20 
REMARK    7  A    between atoms: N5_20  and  C8_22 
ROOT
HETATM    1  C3  UNL     1       6.415  35.866  19.700  1.00  0.00     0.165 A 
HETATM    2  N2  UNL     1       6.415  37.083  20.326  1.00  0.00    -0.288 N 
ATOM      3  H2  UNL     1       6.443  37.925  19.750  1.00  0.00     0.172 HD
HETATM    4  C4  UNL     1       6.381  37.221  21.649  1.00  0.00     0.329 A 
HETATM    5  O2  UNL     1       6.382  38.365  22.198  1.00  0.00    -0.247 OA
HETATM    6  N3  UNL     1       6.343  36.107  22.412  1.00  0.00    -0.275 N 
ATOM      7  H3  UNL     1       6.316  36.213  23.427  1.00  0.00     0.173 HD
HETATM    8  C5  UNL     1       6.340  34.873  21.898  1.00  0.00     0.265 A 
HETATM    9  O3  UNL     1       6.305  33.842  22.606  1.00  0.00    -0.267 OA
HETATM   10  C6  UNL     1       6.376  34.763  20.498  1.00  0.00     0.100 A 
ENDROOT
BRANCH  10  11
HETATM   11  C7  UNL     1       6.332  33.436  19.929  1.00  0.00     0.129 C 
BRANCH  11  12
HETATM   12  N4  UNL     1       5.259  32.751  19.982  1.00  0.00    -0.296 N 
ATOM     13  H4  UNL     1       5.301  31.844  20.447  1.00  0.00     0.186 HD
BRANCH  12  14
HETATM   14  N5  UNL     1       4.038  33.142  19.454  1.00  0.00    -0.131 N 
ATOM     15  H5  UNL     1       3.863  33.015  18.457  1.00  0.00     0.205 HD
BRANCH  14  16
HETATM   16  C8  UNL     1       3.104  33.672  20.205  1.00  0.00     0.715 A 
HETATM   17  N6  UNL     1       2.346  33.050  21.138  1.00  0.00    -0.127 N 
HETATM   18  N7  UNL     1       1.516  33.916  21.684  1.00  0.00    -0.237 N 
ATOM     19  H6  UNL     1       2.408  32.062  21.382  1.00  0.00     0.206 HD
HETATM   20  C9  UNL     1       1.726  35.108  21.112  1.00  0.00     0.353 A 
ATOM     21  H7  UNL     1       0.833  33.714  22.415  1.00  0.00     0.192 HD
HETATM   22  O4  UNL     1       1.126  36.184  21.368  1.00  0.00    -0.245 OA
HETATM   23  N8  UNL     1       2.718  34.948  20.190  1.00  0.00    -0.137 N 
ATOM     24  H8  UNL     1       3.100  35.680  19.590  1.00  0.00     0.189 HD
ENDBRANCH  14  16
ENDBRANCH  12  14
ENDBRANCH  11  12
ENDBRANCH  10  11
BRANCH   1  25
HETATM   25  O1  UNL     1       6.459  35.824  18.323  1.00  0.00    -0.307 OA
BRANCH  25  26
HETATM   26  C2  UNL     1       6.812  36.996  17.623  1.00  0.00     0.408 C 
BRANCH  26  27
HETATM   27  N1  UNL     1       5.820  37.360  16.634  1.00  0.00    -0.058 N 
HETATM   28  C1  UNL     1       5.132  36.234  16.092  1.00  0.00     0.269 C 
ATOM     29  H12 UNL     1       6.235  37.923  15.892  1.00  0.00     0.279 HD
ATOM     30  H11 UNL     1       5.162  38.040  17.013  1.00  0.00     0.279 HD
ENDBRANCH  26  27
ENDBRANCH  25  26
ENDBRANCH   1  25
TORSDOF 7
ENDMDL
