MODEL 1
REMARK VINA RESULT: -8.422175397      0.000      0.000
REMARK  15 active torsions:
REMARK  status: ('A' for Active; 'I' for Inactive)
REMARK    1  A    between atoms: C2_2  and  C5_5 
REMARK    2  A    between atoms: C5_5  and  N1_6 
REMARK    3  A    between atoms: C5_5  and  N4_31 
REMARK       I    between atoms: N1_6  and  C6_8 
REMARK    4  A    between atoms: C6_8  and  C7_10 
REMARK    5  A    between atoms: C7_10  and  C8_11 
REMARK    6  A    between atoms: C8_11  and  C9_12 
REMARK    7  A    between atoms: C9_12  and  C10_13 
REMARK    8  A    between atoms: C10_13  and  C11_14 
REMARK    9  A    between atoms: C11_14  and  C12_15 
REMARK       I    between atoms: C12_15  and  N2_17 
REMARK   10  A    between atoms: C18_23  and  C19_24 
REMARK   11  A    between atoms: C27_37  and  C28_38 
REMARK   12  A    between atoms: C28_38  and  C29_39 
REMARK   13  A    between atoms: C29_39  and  C30_40 
REMARK   14  A    between atoms: C30_40  and  C31_41 
REMARK   15  A    between atoms: C31_41  and  N5_42 
REMARK       I    between atoms: N5_42  and  C32_44 
ROOT
HETATM    1  N1  UNL     1       4.545  -6.109  29.102  1.00  0.00    -0.312 N 
ATOM      2  H1  UNL     1       3.753  -6.223  28.468  1.00  0.00     0.170 HD
HETATM    3  C6  UNL     1       4.297  -6.183  30.542  1.00  0.00     0.242 C 
HETATM    4  O1  UNL     1       5.312  -6.034  31.239  1.00  0.00    -0.269 OA
ENDROOT
BRANCH   1   5
HETATM    5  C5  UNL     1       5.836  -5.887  28.538  1.00  0.00     0.104 C 
BRANCH   5   6
HETATM    6  C2  UNL     1       6.168  -6.913  27.455  1.00  0.00     0.008 C 
HETATM    7  C1  UNL     1       6.498  -6.292  26.144  1.00  0.00     0.022 C 
HETATM    8  C3  UNL     1       5.112  -7.960  27.266  1.00  0.00     0.022 C 
HETATM    9  C4  UNL     1       7.428  -7.681  27.909  1.00  0.00     0.022 C 
ENDBRANCH   5   6
BRANCH   5  10
HETATM   10  N4  UNL     1       6.221  -4.558  28.224  1.00  0.00    -0.238 N 
HETATM   11  C24 UNL     1       7.532  -4.137  28.632  1.00  0.00     0.234 C 
HETATM   12  O4  UNL     1       8.064  -4.818  29.578  1.00  0.00    -0.272 OA
HETATM   13  C25 UNL     1       8.395  -3.042  28.149  1.00  0.00     0.130 C 
HETATM   14  C26 UNL     1       7.523  -1.962  27.557  1.00  0.00     0.178 C 
HETATM   15  O5  UNL     1       6.965  -2.495  26.393  1.00  0.00    -0.376 OA
HETATM   16  C27 UNL     1       5.563  -2.621  26.541  1.00  0.00     0.214 C 
HETATM   17  C33 UNL     1       5.281  -3.706  27.533  1.00  0.00     0.261 C 
HETATM   18  O7  UNL     1       4.087  -3.906  27.805  1.00  0.00    -0.270 OA
BRANCH  16  19
HETATM   19  C28 UNL     1       5.019  -3.001  25.207  1.00  0.00     0.042 C 
BRANCH  19  20
HETATM   20  C29 UNL     1       4.042  -2.053  24.610  1.00  0.00     0.004 C 
BRANCH  20  21
HETATM   21  C30 UNL     1       2.599  -2.414  24.913  1.00  0.00     0.020 C 
BRANCH  21  22
HETATM   22  C31 UNL     1       2.062  -1.535  26.017  1.00  0.00     0.124 C 
BRANCH  22  23
HETATM   23  N5  UNL     1       1.556  -2.330  27.095  1.00  0.00    -0.345 N 
HETATM   24  C32 UNL     1       1.341  -1.862  28.387  1.00  0.00     0.328 C 
HETATM   25  N6  UNL     1       0.839  -2.707  29.419  1.00  0.00    -0.040 NA
HETATM   26  O6  UNL     1       1.572  -0.670  28.737  1.00  0.00    -0.251 OA
ATOM     27  H5  UNL     1       1.337  -3.307  26.902  1.00  0.00     0.163 HD
ENDBRANCH  22  23
ENDBRANCH  21  22
ENDBRANCH  20  21
ENDBRANCH  19  20
ENDBRANCH  16  19
ENDBRANCH   5  10
ENDBRANCH   1   5
BRANCH   3  28
HETATM   28  C7  UNL     1       2.981  -6.412  31.065  1.00  0.00     0.048 C 
BRANCH  28  29
HETATM   29  C8  UNL     1       2.645  -6.465  32.488  1.00  0.00     0.033 C 
BRANCH  29  30
HETATM   30  C9  UNL     1       1.251  -6.415  32.955  1.00  0.00     0.004 C 
BRANCH  30  31
HETATM   31  C10 UNL     1       0.322  -7.543  32.791  1.00  0.00     0.010 C 
BRANCH  31  32
HETATM   32  C11 UNL     1      -0.654  -7.434  31.645  1.00  0.00     0.103 C 
BRANCH  32  33
HETATM   33  C12 UNL     1      -2.074  -7.436  32.050  1.00  0.00     0.219 C 
HETATM   34  O2  UNL     1      -2.573  -8.325  32.774  1.00  0.00    -0.273 OA
HETATM   35  N2  UNL     1      -2.884  -6.368  31.590  1.00  0.00    -0.352 N 
HETATM   36  C13 UNL     1      -4.297  -6.354  31.995  1.00  0.00     0.126 C 
HETATM   37  C23 UNL     1      -2.457  -5.287  30.755  1.00  0.00     0.126 C 
HETATM   38  C14 UNL     1      -4.442  -5.069  32.809  1.00  0.00     0.029 C 
HETATM   39  C15 UNL     1      -4.160  -3.864  31.958  1.00  0.00    -0.037 C 
HETATM   40  C16 UNL     1      -5.125  -3.675  30.834  1.00  0.00     0.010 C 
HETATM   41  C21 UNL     1      -4.205  -2.654  32.873  1.00  0.00     0.010 C 
HETATM   42  C22 UNL     1      -2.752  -3.967  31.449  1.00  0.00     0.029 C 
HETATM   43  C17 UNL     1      -6.087  -2.510  31.059  1.00  0.00     0.014 C 
HETATM   44  C18 UNL     1      -6.670  -2.682  32.443  1.00  0.00     0.075 C 
HETATM   45  C20 UNL     1      -5.591  -2.494  33.476  1.00  0.00     0.014 C 
BRANCH  44  46
HETATM   46  C19 UNL     1      -7.789  -1.718  32.689  1.00  0.00     0.235 C 
HETATM   47  N3  UNL     1      -7.547  -0.320  32.674  1.00  0.00    -0.062 NA
HETATM   48  O3  UNL     1      -8.948  -2.141  32.909  1.00  0.00    -0.277 OA
ENDBRANCH  44  46
ENDBRANCH  32  33
ENDBRANCH  31  32
ENDBRANCH  30  31
ENDBRANCH  29  30
ENDBRANCH  28  29
ENDBRANCH   3  28
TORSDOF 15
ENDMDL
MODEL 2
REMARK VINA RESULT: -8.383502826      4.192      8.207
REMARK  15 active torsions:
REMARK  status: ('A' for Active; 'I' for Inactive)
REMARK    1  A    between atoms: C2_2  and  C5_5 
REMARK    2  A    between atoms: C5_5  and  N1_6 
REMARK    3  A    between atoms: C5_5  and  N4_31 
REMARK       I    between atoms: N1_6  and  C6_8 
REMARK    4  A    between atoms: C6_8  and  C7_10 
REMARK    5  A    between atoms: C7_10  and  C8_11 
REMARK    6  A    between atoms: C8_11  and  C9_12 
REMARK    7  A    between atoms: C9_12  and  C10_13 
REMARK    8  A    between atoms: C10_13  and  C11_14 
REMARK    9  A    between atoms: C11_14  and  C12_15 
REMARK       I    between atoms: C12_15  and  N2_17 
REMARK   10  A    between atoms: C18_23  and  C19_24 
REMARK   11  A    between atoms: C27_37  and  C28_38 
REMARK   12  A    between atoms: C28_38  and  C29_39 
REMARK   13  A    between atoms: C29_39  and  C30_40 
REMARK   14  A    between atoms: C30_40  and  C31_41 
REMARK   15  A    between atoms: C31_41  and  N5_42 
REMARK       I    between atoms: N5_42  and  C32_44 
ROOT
HETATM    1  N1  UNL     1      -2.877  -5.667  32.536  1.00  0.00    -0.312 N 
ATOM      2  H1  UNL     1      -3.021  -5.216  31.632  1.00  0.00     0.170 HD
HETATM    3  C6  UNL     1      -3.714  -5.248  33.661  1.00  0.00     0.242 C 
HETATM    4  O1  UNL     1      -3.474  -5.846  34.721  1.00  0.00    -0.269 OA
ENDROOT
BRANCH   1   5
HETATM    5  C5  UNL     1      -1.872  -6.673  32.637  1.00  0.00     0.104 C 
BRANCH   5   6
HETATM    6  C2  UNL     1      -2.381  -8.035  32.169  1.00  0.00     0.008 C 
HETATM    7  C1  UNL     1      -1.369  -8.800  31.389  1.00  0.00     0.022 C 
HETATM    8  C3  UNL     1      -3.667  -7.973  31.401  1.00  0.00     0.022 C 
HETATM    9  C4  UNL     1      -2.695  -8.875  33.426  1.00  0.00     0.022 C 
ENDBRANCH   5   6
BRANCH   5  10
HETATM   10  N4  UNL     1      -0.554  -6.362  32.213  1.00  0.00    -0.238 N 
HETATM   11  C24 UNL     1      -0.407  -5.698  30.948  1.00  0.00     0.234 C 
HETATM   12  O4  UNL     1      -1.395  -5.817  30.141  1.00  0.00    -0.272 OA
HETATM   13  C25 UNL     1       0.697  -4.887  30.398  1.00  0.00     0.130 C 
HETATM   14  C26 UNL     1       1.984  -5.307  31.062  1.00  0.00     0.178 C 
HETATM   15  O5  UNL     1       1.895  -4.901  32.396  1.00  0.00    -0.376 OA
HETATM   16  C27 UNL     1       1.863  -6.033  33.246  1.00  0.00     0.214 C 
HETATM   17  C33 UNL     1       0.555  -6.738  33.058  1.00  0.00     0.261 C 
HETATM   18  O7  UNL     1       0.396  -7.782  33.708  1.00  0.00    -0.270 OA
BRANCH  16  19
HETATM   19  C28 UNL     1       1.969  -5.527  34.644  1.00  0.00     0.042 C 
BRANCH  19  20
HETATM   20  C29 UNL     1       2.404  -4.114  34.791  1.00  0.00     0.004 C 
BRANCH  20  21
HETATM   21  C30 UNL     1       3.691  -3.964  35.581  1.00  0.00     0.020 C 
BRANCH  21  22
HETATM   22  C31 UNL     1       4.798  -3.463  34.683  1.00  0.00     0.124 C 
BRANCH  22  23
HETATM   23  N5  UNL     1       4.785  -4.157  33.431  1.00  0.00    -0.345 N 
HETATM   24  C32 UNL     1       5.898  -4.758  32.851  1.00  0.00     0.328 C 
HETATM   25  N6  UNL     1       5.821  -5.431  31.597  1.00  0.00    -0.040 NA
HETATM   26  O6  UNL     1       7.043  -4.752  33.386  1.00  0.00    -0.251 OA
ATOM     27  H5  UNL     1       3.900  -4.215  32.929  1.00  0.00     0.163 HD
ENDBRANCH  22  23
ENDBRANCH  21  22
ENDBRANCH  20  21
ENDBRANCH  19  20
ENDBRANCH  16  19
ENDBRANCH   5  10
ENDBRANCH   1   5
BRANCH   3  28
HETATM   28  C7  UNL     1      -4.717  -4.233  33.513  1.00  0.00     0.048 C 
BRANCH  28  29
HETATM   29  C8  UNL     1      -4.559  -3.012  32.723  1.00  0.00     0.033 C 
BRANCH  29  30
HETATM   30  C9  UNL     1      -4.690  -3.017  31.258  1.00  0.00     0.004 C 
BRANCH  30  31
HETATM   31  C10 UNL     1      -4.975  -1.799  30.485  1.00  0.00     0.010 C 
BRANCH  31  32
HETATM   32  C11 UNL     1      -5.144  -0.532  31.287  1.00  0.00     0.103 C 
BRANCH  32  33
HETATM   33  C12 UNL     1      -6.461   0.117  31.132  1.00  0.00     0.219 C 
HETATM   34  O2  UNL     1      -6.671   1.044  30.319  1.00  0.00    -0.273 OA
HETATM   35  N2  UNL     1      -7.519  -0.352  31.949  1.00  0.00    -0.352 N 
HETATM   36  C13 UNL     1      -8.838   0.280  31.796  1.00  0.00     0.126 C 
HETATM   37  C23 UNL     1      -7.431  -1.396  32.924  1.00  0.00     0.126 C 
HETATM   38  C14 UNL     1      -9.748  -0.856  31.329  1.00  0.00     0.029 C 
HETATM   39  C15 UNL     1      -9.834  -1.933  32.373  1.00  0.00    -0.037 C 
HETATM   40  C16 UNL     1     -10.460  -1.490  33.654  1.00  0.00     0.010 C 
HETATM   41  C21 UNL     1     -10.650  -3.064  31.774  1.00  0.00     0.010 C 
HETATM   42  C22 UNL     1      -8.454  -2.474  32.605  1.00  0.00     0.029 C 
HETATM   43  C17 UNL     1     -11.867  -2.051  33.859  1.00  0.00     0.014 C 
HETATM   44  C18 UNL     1     -12.638  -1.781  32.588  1.00  0.00     0.075 C 
HETATM   45  C20 UNL     1     -12.062  -2.595  31.460  1.00  0.00     0.014 C 
BRANCH  44  46
HETATM   46  C19 UNL     1     -14.093  -2.094  32.755  1.00  0.00     0.235 C 
HETATM   47  N3  UNL     1     -15.070  -1.381  32.014  1.00  0.00    -0.062 NA
HETATM   48  O3  UNL     1     -14.457  -2.991  33.551  1.00  0.00    -0.277 OA
ENDBRANCH  44  46
ENDBRANCH  32  33
ENDBRANCH  31  32
ENDBRANCH  30  31
ENDBRANCH  29  30
ENDBRANCH  28  29
ENDBRANCH   3  28
TORSDOF 15
ENDMDL
MODEL 3
REMARK VINA RESULT: -8.347256562      4.226     12.618
REMARK  15 active torsions:
REMARK  status: ('A' for Active; 'I' for Inactive)
REMARK    1  A    between atoms: C2_2  and  C5_5 
REMARK    2  A    between atoms: C5_5  and  N1_6 
REMARK    3  A    between atoms: C5_5  and  N4_31 
REMARK       I    between atoms: N1_6  and  C6_8 
REMARK    4  A    between atoms: C6_8  and  C7_10 
REMARK    5  A    between atoms: C7_10  and  C8_11 
REMARK    6  A    between atoms: C8_11  and  C9_12 
REMARK    7  A    between atoms: C9_12  and  C10_13 
REMARK    8  A    between atoms: C10_13  and  C11_14 
REMARK    9  A    between atoms: C11_14  and  C12_15 
REMARK       I    between atoms: C12_15  and  N2_17 
REMARK   10  A    between atoms: C18_23  and  C19_24 
REMARK   11  A    between atoms: C27_37  and  C28_38 
REMARK   12  A    between atoms: C28_38  and  C29_39 
REMARK   13  A    between atoms: C29_39  and  C30_40 
REMARK   14  A    between atoms: C30_40  and  C31_41 
REMARK   15  A    between atoms: C31_41  and  N5_42 
REMARK       I    between atoms: N5_42  and  C32_44 
ROOT
HETATM    1  N1  UNL     1      -6.996  -2.142  31.862  1.00  0.00    -0.312 N 
ATOM      2  H1  UNL     1      -6.847  -2.314  30.867  1.00  0.00     0.170 HD
HETATM    3  C6  UNL     1      -6.145  -2.846  32.823  1.00  0.00     0.242 C 
HETATM    4  O1  UNL     1      -6.393  -2.580  34.009  1.00  0.00    -0.269 OA
ENDROOT
BRANCH   1   5
HETATM    5  C5  UNL     1      -8.021  -1.228  32.244  1.00  0.00     0.104 C 
BRANCH   5   6
HETATM    6  C2  UNL     1      -7.557   0.224  32.138  1.00  0.00     0.008 C 
HETATM    7  C1  UNL     1      -8.636   1.152  31.702  1.00  0.00     0.022 C 
HETATM    8  C3  UNL     1      -6.348   0.414  31.272  1.00  0.00     0.022 C 
HETATM    9  C4  UNL     1      -7.125   0.682  33.548  1.00  0.00     0.022 C 
ENDBRANCH   5   6
BRANCH   5  10
HETATM   10  N4  UNL     1      -9.343  -1.456  31.781  1.00  0.00    -0.238 N 
HETATM   11  C24 UNL     1     -10.299  -1.948  32.732  1.00  0.00     0.234 C 
HETATM   12  O4  UNL     1      -9.808  -2.523  33.766  1.00  0.00    -0.272 OA
HETATM   13  C25 UNL     1     -11.775  -1.911  32.736  1.00  0.00     0.130 C 
HETATM   14  C26 UNL     1     -12.261  -1.832  31.309  1.00  0.00     0.178 C 
HETATM   15  O5  UNL     1     -11.888  -0.574  30.830  1.00  0.00    -0.376 OA
HETATM   16  C27 UNL     1     -10.932  -0.713  29.796  1.00  0.00     0.214 C 
HETATM   17  C33 UNL     1      -9.647  -1.199  30.393  1.00  0.00     0.261 C 
HETATM   18  O7  UNL     1      -8.719  -1.413  29.598  1.00  0.00    -0.270 OA
BRANCH  16  19
HETATM   19  C28 UNL     1     -10.734   0.642  29.205  1.00  0.00     0.042 C 
BRANCH  19  20
HETATM   20  C29 UNL     1      -9.903   0.696  27.974  1.00  0.00     0.004 C 
BRANCH  20  21
HETATM   21  C30 UNL     1     -10.517  -0.052  26.805  1.00  0.00     0.020 C 
BRANCH  21  22
HETATM   22  C31 UNL     1      -9.550  -0.092  25.646  1.00  0.00     0.124 C 
BRANCH  22  23
HETATM   23  N5  UNL     1      -8.456   0.804  25.870  1.00  0.00    -0.345 N 
HETATM   24  C32 UNL     1      -7.832   1.550  24.875  1.00  0.00     0.328 C 
HETATM   25  N6  UNL     1      -6.742   2.423  25.163  1.00  0.00    -0.040 NA
HETATM   26  O6  UNL     1      -8.180   1.511  23.661  1.00  0.00    -0.251 OA
ATOM     27  H5  UNL     1      -8.111   0.903  26.824  1.00  0.00     0.163 HD
ENDBRANCH  22  23
ENDBRANCH  21  22
ENDBRANCH  20  21
ENDBRANCH  19  20
ENDBRANCH  16  19
ENDBRANCH   5  10
ENDBRANCH   1   5
BRANCH   3  28
HETATM   28  C7  UNL     1      -5.123  -3.756  32.393  1.00  0.00     0.048 C 
BRANCH  28  29
HETATM   29  C8  UNL     1      -4.506  -4.779  33.237  1.00  0.00     0.033 C 
BRANCH  29  30
HETATM   30  C9  UNL     1      -4.481  -6.196  32.841  1.00  0.00     0.004 C 
BRANCH  30  31
HETATM   31  C10 UNL     1      -3.268  -6.853  32.332  1.00  0.00     0.010 C 
BRANCH  31  32
HETATM   32  C11 UNL     1      -2.941  -6.604  30.881  1.00  0.00     0.103 C 
BRANCH  32  33
HETATM   33  C12 UNL     1      -1.918  -5.563  30.656  1.00  0.00     0.219 C 
HETATM   34  O2  UNL     1      -2.200  -4.401  30.291  1.00  0.00    -0.273 OA
HETATM   35  N2  UNL     1      -0.565  -5.921  30.876  1.00  0.00    -0.352 N 
HETATM   36  C13 UNL     1       0.462  -4.890  30.665  1.00  0.00     0.126 C 
HETATM   37  C23 UNL     1      -0.090  -7.207  31.287  1.00  0.00     0.126 C 
HETATM   38  C14 UNL     1       1.108  -4.717  32.039  1.00  0.00     0.029 C 
HETATM   39  C15 UNL     1       1.771  -5.990  32.481  1.00  0.00    -0.037 C 
HETATM   40  C16 UNL     1       2.908  -6.417  31.612  1.00  0.00     0.010 C 
HETATM   41  C21 UNL     1       2.272  -5.761  33.895  1.00  0.00     0.010 C 
HETATM   42  C22 UNL     1       0.723  -7.061  32.563  1.00  0.00     0.029 C 
HETATM   43  C17 UNL     1       4.273  -6.217  32.270  1.00  0.00     0.014 C 
HETATM   44  C18 UNL     1       4.304  -4.801  32.796  1.00  0.00     0.075 C 
HETATM   45  C20 UNL     1       3.312  -4.653  33.919  1.00  0.00     0.014 C 
BRANCH  44  46
HETATM   46  C19 UNL     1       5.674  -4.424  33.270  1.00  0.00     0.235 C 
HETATM   47  N3  UNL     1       5.841  -3.682  34.467  1.00  0.00    -0.062 NA
HETATM   48  O3  UNL     1       6.684  -4.764  32.610  1.00  0.00    -0.277 OA
ENDBRANCH  44  46
ENDBRANCH  32  33
ENDBRANCH  31  32
ENDBRANCH  30  31
ENDBRANCH  29  30
ENDBRANCH  28  29
ENDBRANCH   3  28
TORSDOF 15
ENDMDL
MODEL 4
REMARK VINA RESULT: -8.245723603      6.400     15.236
REMARK  15 active torsions:
REMARK  status: ('A' for Active; 'I' for Inactive)
REMARK    1  A    between atoms: C2_2  and  C5_5 
REMARK    2  A    between atoms: C5_5  and  N1_6 
REMARK    3  A    between atoms: C5_5  and  N4_31 
REMARK       I    between atoms: N1_6  and  C6_8 
REMARK    4  A    between atoms: C6_8  and  C7_10 
REMARK    5  A    between atoms: C7_10  and  C8_11 
REMARK    6  A    between atoms: C8_11  and  C9_12 
REMARK    7  A    between atoms: C9_12  and  C10_13 
REMARK    8  A    between atoms: C10_13  and  C11_14 
REMARK    9  A    between atoms: C11_14  and  C12_15 
REMARK       I    between atoms: C12_15  and  N2_17 
REMARK   10  A    between atoms: C18_23  and  C19_24 
REMARK   11  A    between atoms: C27_37  and  C28_38 
REMARK   12  A    between atoms: C28_38  and  C29_39 
REMARK   13  A    between atoms: C29_39  and  C30_40 
REMARK   14  A    between atoms: C30_40  and  C31_41 
REMARK   15  A    between atoms: C31_41  and  N5_42 
REMARK       I    between atoms: N5_42  and  C32_44 
ROOT
HETATM    1  N1  UNL     1     -10.680   1.515  30.077  1.00  0.00    -0.312 N 
ATOM      2  H1  UNL     1     -11.008   1.809  30.998  1.00  0.00     0.170 HD
HETATM    3  C6  UNL     1      -9.320   1.878  29.677  1.00  0.00     0.242 C 
HETATM    4  O1  UNL     1      -9.002   1.483  28.544  1.00  0.00    -0.269 OA
ENDROOT
BRANCH   1   5
HETATM    5  C5  UNL     1     -11.570   0.772  29.248  1.00  0.00     0.104 C 
BRANCH   5   6
HETATM    6  C2  UNL     1     -11.678  -0.686  29.692  1.00  0.00     0.008 C 
HETATM    7  C1  UNL     1     -13.068  -1.216  29.621  1.00  0.00     0.022 C 
HETATM    8  C3  UNL     1     -11.107  -0.951  31.052  1.00  0.00     0.022 C 
HETATM    9  C4  UNL     1     -10.832  -1.536  28.720  1.00  0.00     0.022 C 
ENDBRANCH   5   6
BRANCH   5  10
HETATM   10  N4  UNL     1     -12.805   1.364  28.873  1.00  0.00    -0.238 N 
HETATM   11  C24 UNL     1     -13.319   1.047  27.571  1.00  0.00     0.234 C 
HETATM   12  O4  UNL     1     -12.460   0.619  26.723  1.00  0.00    -0.272 OA
HETATM   13  C25 UNL     1     -14.687   1.126  27.021  1.00  0.00     0.130 C 
HETATM   14  C26 UNL     1     -15.457   2.175  27.785  1.00  0.00     0.178 C 
HETATM   15  O5  UNL     1     -15.637   1.675  29.077  1.00  0.00    -0.376 OA
HETATM   16  C27 UNL     1     -14.926   2.471  30.008  1.00  0.00     0.214 C 
HETATM   17  C33 UNL     1     -13.459   2.253  29.804  1.00  0.00     0.261 C 
HETATM   18  O7  UNL     1     -12.700   2.922  30.522  1.00  0.00    -0.270 OA
BRANCH  16  19
HETATM   19  C28 UNL     1     -15.323   2.004  31.367  1.00  0.00     0.042 C 
BRANCH  19  20
HETATM   20  C29 UNL     1     -15.431   0.532  31.540  1.00  0.00     0.004 C 
BRANCH  20  21
HETATM   21  C30 UNL     1     -14.886   0.046  32.871  1.00  0.00     0.020 C 
BRANCH  21  22
HETATM   22  C31 UNL     1     -14.906  -1.463  32.923  1.00  0.00     0.124 C 
BRANCH  22  23
HETATM   23  N5  UNL     1     -13.727  -1.962  33.563  1.00  0.00    -0.345 N 
HETATM   24  C32 UNL     1     -13.064  -3.129  33.196  1.00  0.00     0.328 C 
HETATM   25  N6  UNL     1     -11.895  -3.576  33.879  1.00  0.00    -0.040 NA
HETATM   26  O6  UNL     1     -13.442  -3.868  32.244  1.00  0.00    -0.251 OA
ATOM     27  H5  UNL     1     -13.347  -1.426  34.343  1.00  0.00     0.163 HD
ENDBRANCH  22  23
ENDBRANCH  21  22
ENDBRANCH  20  21
ENDBRANCH  19  20
ENDBRANCH  16  19
ENDBRANCH   5  10
ENDBRANCH   1   5
BRANCH   3  28
HETATM   28  C7  UNL     1      -8.457   2.625  30.546  1.00  0.00     0.048 C 
BRANCH  28  29
HETATM   29  C8  UNL     1      -8.105   2.235  31.911  1.00  0.00     0.033 C 
BRANCH  29  30
HETATM   30  C9  UNL     1      -7.862   0.830  32.274  1.00  0.00     0.004 C 
BRANCH  30  31
HETATM   31  C10 UNL     1      -7.128  -0.097  31.399  1.00  0.00     0.010 C 
BRANCH  31  32
HETATM   32  C11 UNL     1      -7.298  -1.565  31.701  1.00  0.00     0.103 C 
BRANCH  32  33
HETATM   33  C12 UNL     1      -6.309  -2.111  32.651  1.00  0.00     0.219 C 
HETATM   34  O2  UNL     1      -6.430  -2.011  33.892  1.00  0.00    -0.273 OA
HETATM   35  N2  UNL     1      -5.183  -2.778  32.108  1.00  0.00    -0.352 N 
HETATM   36  C13 UNL     1      -4.195  -3.334  33.044  1.00  0.00     0.126 C 
HETATM   37  C23 UNL     1      -4.905  -2.965  30.716  1.00  0.00     0.126 C 
HETATM   38  C14 UNL     1      -4.226  -4.838  32.774  1.00  0.00     0.029 C 
HETATM   39  C15 UNL     1      -3.794  -5.136  31.367  1.00  0.00    -0.037 C 
HETATM   40  C16 UNL     1      -2.380  -4.759  31.072  1.00  0.00     0.010 C 
HETATM   41  C21 UNL     1      -3.976  -6.628  31.155  1.00  0.00     0.010 C 
HETATM   42  C22 UNL     1      -4.743  -4.449  30.429  1.00  0.00     0.029 C 
HETATM   43  C17 UNL     1      -1.452  -5.966  30.945  1.00  0.00     0.014 C 
HETATM   44  C18 UNL     1      -1.692  -6.835  32.157  1.00  0.00     0.075 C 
HETATM   45  C20 UNL     1      -3.081  -7.413  32.101  1.00  0.00     0.014 C 
BRANCH  44  46
HETATM   46  C19 UNL     1      -0.682  -7.938  32.247  1.00  0.00     0.235 C 
HETATM   47  N3  UNL     1       0.409  -7.839  33.149  1.00  0.00    -0.062 NA
HETATM   48  O3  UNL     1      -0.795  -8.956  31.525  1.00  0.00    -0.277 OA
ENDBRANCH  44  46
ENDBRANCH  32  33
ENDBRANCH  31  32
ENDBRANCH  30  31
ENDBRANCH  29  30
ENDBRANCH  28  29
ENDBRANCH   3  28
TORSDOF 15
ENDMDL
MODEL 5
REMARK VINA RESULT: -8.205485022      3.517      9.386
REMARK  15 active torsions:
REMARK  status: ('A' for Active; 'I' for Inactive)
REMARK    1  A    between atoms: C2_2  and  C5_5 
REMARK    2  A    between atoms: C5_5  and  N1_6 
REMARK    3  A    between atoms: C5_5  and  N4_31 
REMARK       I    between atoms: N1_6  and  C6_8 
REMARK    4  A    between atoms: C6_8  and  C7_10 
REMARK    5  A    between atoms: C7_10  and  C8_11 
REMARK    6  A    between atoms: C8_11  and  C9_12 
REMARK    7  A    between atoms: C9_12  and  C10_13 
REMARK    8  A    between atoms: C10_13  and  C11_14 
REMARK    9  A    between atoms: C11_14  and  C12_15 
REMARK       I    between atoms: C12_15  and  N2_17 
REMARK   10  A    between atoms: C18_23  and  C19_24 
REMARK   11  A    between atoms: C27_37  and  C28_38 
REMARK   12  A    between atoms: C28_38  and  C29_39 
REMARK   13  A    between atoms: C29_39  and  C30_40 
REMARK   14  A    between atoms: C30_40  and  C31_41 
REMARK   15  A    between atoms: C31_41  and  N5_42 
REMARK       I    between atoms: N5_42  and  C32_44 
ROOT
HETATM    1  N1  UNL     1      -2.930  -5.491  32.422  1.00  0.00    -0.312 N 
ATOM      2  H1  UNL     1      -2.973  -5.043  31.506  1.00  0.00     0.170 HD
HETATM    3  C6  UNL     1      -3.812  -4.994  33.479  1.00  0.00     0.242 C 
HETATM    4  O1  UNL     1      -3.695  -5.593  34.560  1.00  0.00    -0.269 OA
ENDROOT
BRANCH   1   5
HETATM    5  C5  UNL     1      -2.013  -6.568  32.605  1.00  0.00     0.104 C 
BRANCH   5   6
HETATM    6  C2  UNL     1      -2.626  -7.910  32.208  1.00  0.00     0.008 C 
HETATM    7  C1  UNL     1      -1.700  -8.761  31.411  1.00  0.00     0.022 C 
HETATM    8  C3  UNL     1      -3.940  -7.791  31.496  1.00  0.00     0.022 C 
HETATM    9  C4  UNL     1      -2.933  -8.688  33.505  1.00  0.00     0.022 C 
ENDBRANCH   5   6
BRANCH   5  10
HETATM   10  N4  UNL     1      -0.667  -6.393  32.194  1.00  0.00    -0.238 N 
HETATM   11  C24 UNL     1      -0.443  -5.815  30.898  1.00  0.00     0.234 C 
HETATM   12  O4  UNL     1      -1.424  -5.895  30.078  1.00  0.00    -0.272 OA
HETATM   13  C25 UNL     1       0.735  -5.131  30.329  1.00  0.00     0.130 C 
HETATM   14  C26 UNL     1       1.971  -5.620  31.043  1.00  0.00     0.178 C 
HETATM   15  O5  UNL     1       1.894  -5.135  32.351  1.00  0.00    -0.376 OA
HETATM   16  C27 UNL     1       1.751  -6.212  33.260  1.00  0.00     0.214 C 
HETATM   17  C33 UNL     1       0.392  -6.813  33.081  1.00  0.00     0.261 C 
HETATM   18  O7  UNL     1       0.133  -7.803  33.783  1.00  0.00    -0.270 OA
BRANCH  16  19
HETATM   19  C28 UNL     1       1.876  -5.640  34.631  1.00  0.00     0.042 C 
BRANCH  19  20
HETATM   20  C29 UNL     1       2.293  -4.216  34.703  1.00  0.00     0.004 C 
BRANCH  20  21
HETATM   21  C30 UNL     1       3.515  -3.995  35.577  1.00  0.00     0.020 C 
BRANCH  21  22
HETATM   22  C31 UNL     1       4.691  -3.571  34.730  1.00  0.00     0.124 C 
BRANCH  22  23
HETATM   23  N5  UNL     1       4.684  -4.259  33.475  1.00  0.00    -0.345 N 
HETATM   24  C32 UNL     1       5.815  -4.779  32.854  1.00  0.00     0.328 C 
HETATM   25  N6  UNL     1       5.742  -5.451  31.599  1.00  0.00    -0.040 NA
HETATM   26  O6  UNL     1       6.974  -4.696  33.349  1.00  0.00    -0.251 OA
ATOM     27  H5  UNL     1       3.788  -4.377  33.002  1.00  0.00     0.163 HD
ENDBRANCH  22  23
ENDBRANCH  21  22
ENDBRANCH  20  21
ENDBRANCH  19  20
ENDBRANCH  16  19
ENDBRANCH   5  10
ENDBRANCH   1   5
BRANCH   3  28
HETATM   28  C7  UNL     1      -4.721  -3.909  33.249  1.00  0.00     0.048 C 
BRANCH  28  29
HETATM   29  C8  UNL     1      -5.287  -3.556  31.947  1.00  0.00     0.033 C 
BRANCH  29  30
HETATM   30  C9  UNL     1      -4.562  -2.697  30.997  1.00  0.00     0.004 C 
BRANCH  30  31
HETATM   31  C10 UNL     1      -3.665  -3.241  29.966  1.00  0.00     0.010 C 
BRANCH  31  32
HETATM   32  C11 UNL     1      -3.151  -2.252  28.949  1.00  0.00     0.103 C 
BRANCH  32  33
HETATM   33  C12 UNL     1      -1.688  -2.055  28.975  1.00  0.00     0.219 C 
HETATM   34  O2  UNL     1      -0.966  -2.448  29.918  1.00  0.00    -0.273 OA
HETATM   35  N2  UNL     1      -1.100  -1.393  27.870  1.00  0.00    -0.352 N 
HETATM   36  C13 UNL     1       0.357  -1.199  27.880  1.00  0.00     0.126 C 
HETATM   37  C23 UNL     1      -1.795  -0.883  26.727  1.00  0.00     0.126 C 
HETATM   38  C14 UNL     1       0.849  -1.984  26.664  1.00  0.00     0.029 C 
HETATM   39  C15 UNL     1       0.284  -1.411  25.396  1.00  0.00    -0.037 C 
HETATM   40  C16 UNL     1       0.726  -0.013  25.110  1.00  0.00     0.010 C 
HETATM   41  C21 UNL     1       0.724  -2.322  24.264  1.00  0.00     0.010 C 
HETATM   42  C22 UNL     1      -1.212  -1.501  25.465  1.00  0.00     0.029 C 
HETATM   43  C17 UNL     1       1.730   0.076  23.962  1.00  0.00     0.014 C 
HETATM   44  C18 UNL     1       2.811  -0.942  24.243  1.00  0.00     0.075 C 
HETATM   45  C20 UNL     1       2.239  -2.332  24.146  1.00  0.00     0.014 C 
BRANCH  44  46
HETATM   46  C19 UNL     1       3.961  -0.793  23.295  1.00  0.00     0.235 C 
HETATM   47  N3  UNL     1       4.980   0.160  23.548  1.00  0.00    -0.062 NA
HETATM   48  O3  UNL     1       4.029  -1.512  22.271  1.00  0.00    -0.277 OA
ENDBRANCH  44  46
ENDBRANCH  32  33
ENDBRANCH  31  32
ENDBRANCH  30  31
ENDBRANCH  29  30
ENDBRANCH  28  29
ENDBRANCH   3  28
TORSDOF 15
ENDMDL
