MODEL 1
REMARK VINA RESULT: -5.661218630      0.000      0.000
REMARK  18 active torsions:
REMARK  status: ('A' for Active; 'I' for Inactive)
REMARK    1  A    between atoms: C2_2  and  N1_3 
REMARK    2  A    between atoms: N1_3  and  C3_6 
REMARK    3  A    between atoms: C3_6  and  C4_7 
REMARK    4  A    between atoms: C4_7  and  C5_8 
REMARK    5  A    between atoms: C5_8  and  N2_9 
REMARK    6  A    between atoms: C6_10  and  O1_11 
REMARK    7  A    between atoms: C7_13  and  C8_14 
REMARK    8  A    between atoms: C8_14  and  C9_15 
REMARK    9  A    between atoms: C13_22  and  C14_23 
REMARK   10  A    between atoms: C14_23  and  C15_24 
REMARK   11  A    between atoms: C18_29  and  O3_30 
REMARK   12  A    between atoms: C19_32  and  C20_33 
REMARK   13  A    between atoms: C20_33  and  C22_35 
REMARK   14  A    between atoms: C25_39  and  O4_40 
REMARK   15  A    between atoms: C26_42  and  C27_43 
REMARK   16  A    between atoms: C27_43  and  C28_44 
REMARK   17  A    between atoms: C32_51  and  C33_52 
REMARK   18  A    between atoms: C33_52  and  C34_53 
ROOT
HETATM    1  N2  UNL     1       5.502  -3.589  24.707  1.00  0.00    -0.350 N 
HETATM    2  C6  UNL     1       5.559  -3.860  23.320  1.00  0.00     0.137 C 
HETATM    3  C7  UNL     1       4.514  -3.932  22.300  1.00  0.00     0.159 C 
HETATM    4  N3  UNL     1       4.487  -2.760  21.406  1.00  0.00    -0.347 N 
ATOM      5  H3  UNL     1       5.042  -2.794  20.550  1.00  0.00     0.163 HD
HETATM    6  C12 UNL     1       3.729  -1.581  21.669  1.00  0.00     0.241 C 
HETATM    7  O2  UNL     1       4.424  -0.532  21.720  1.00  0.00    -0.271 OA
HETATM    8  C13 UNL     1       2.255  -1.556  21.881  1.00  0.00     0.176 C 
HETATM    9  N4  UNL     1       1.907  -2.198  23.125  1.00  0.00    -0.356 N 
ATOM     10  H4  UNL     1       2.715  -2.195  23.748  1.00  0.00     0.162 HD
HETATM   11  C18 UNL     1       0.864  -2.804  23.740  1.00  0.00     0.164 C 
HETATM   12  C19 UNL     1      -0.382  -2.274  24.414  1.00  0.00     0.089 C 
HETATM   13  N5  UNL     1      -0.113  -1.031  25.100  1.00  0.00    -0.327 N 
HETATM   14  C24 UNL     1      -1.033   0.071  24.899  1.00  0.00     0.159 C 
HETATM   15  C25 UNL     1       1.031  -0.836  25.935  1.00  0.00     0.165 C 
HETATM   16  C26 UNL     1       1.803  -1.651  26.849  1.00  0.00     0.063 C 
HETATM   17  N6  UNL     1       3.241  -1.720  26.589  1.00  0.00    -0.325 N 
ATOM     18  H6  UNL     1       3.642  -0.811  26.358  1.00  0.00     0.169 HD
HETATM   19  C31 UNL     1       4.167  -2.714  26.584  1.00  0.00     0.245 C 
HETATM   20  O5  UNL     1       5.020  -2.744  27.558  1.00  0.00    -0.271 OA
HETATM   21  C32 UNL     1       4.442  -3.869  25.632  1.00  0.00     0.178 C 
ENDROOT
BRANCH   1  22
HETATM   22  C5  UNL     1       6.745  -2.920  25.186  1.00  0.00     0.127 C 
BRANCH  22  23
HETATM   23  C4  UNL     1       6.932  -1.559  24.607  1.00  0.00     0.047 C 
BRANCH  23  24
HETATM   24  C3  UNL     1       7.134  -0.550  25.751  1.00  0.00     0.234 C 
BRANCH  24  25
HETATM   25  N1  UNL     1       7.448  -1.200  26.990  1.00  0.00    -0.075 N 
ATOM     26  H12 UNL     1       7.091  -2.155  27.037  1.00  0.00     0.277 HD
ATOM     27  H11 UNL     1       6.926  -0.820  27.779  1.00  0.00     0.277 HD
BRANCH  25  28
HETATM   28  C2  UNL     1       8.883  -1.127  27.180  1.00  0.00     0.228 C 
HETATM   29  C1  UNL     1       9.383  -2.499  27.553  1.00  0.00     0.034 C 
ENDBRANCH  25  28
ENDBRANCH  24  25
ENDBRANCH  23  24
ENDBRANCH  22  23
ENDBRANCH   1  22
BRANCH   2  30
HETATM   30  O1  UNL     1       6.747  -4.090  22.840  1.00  0.00    -0.348 OA
ATOM     31  H1  UNL     1       6.810  -4.818  22.232  1.00  0.00     0.219 HD
ENDBRANCH   2  30
BRANCH  21  32
HETATM   32  C33 UNL     1       4.580  -5.100  26.451  1.00  0.00     0.039 C 
BRANCH  32  33
HETATM   33  C34 UNL     1       3.441  -5.873  26.936  1.00  0.00    -0.020 C 
HETATM   34  C35 UNL     1       3.609  -6.027  28.500  1.00  0.00     0.009 C 
HETATM   35  C36 UNL     1       3.460  -7.311  26.483  1.00  0.00     0.009 C 
ENDBRANCH  32  33
ENDBRANCH  21  32
BRANCH   3  36
HETATM   36  C8  UNL     1       4.889  -5.129  21.404  1.00  0.00     0.037 C 
BRANCH  36  37
HETATM   37  C9  UNL     1       3.729  -6.091  21.388  1.00  0.00    -0.020 C 
HETATM   38  C10 UNL     1       2.439  -5.466  20.921  1.00  0.00     0.009 C 
HETATM   39  C11 UNL     1       3.592  -6.691  22.774  1.00  0.00     0.009 C 
ENDBRANCH  36  37
ENDBRANCH   3  36
BRANCH  16  40
HETATM   40  C27 UNL     1       1.220  -2.862  27.465  1.00  0.00     0.065 C 
BRANCH  40  41
HETATM   41  C28 UNL     1       0.429  -2.610  28.730  1.00  0.00    -0.017 C 
HETATM   42  C29 UNL     1      -1.005  -2.346  28.315  1.00  0.00     0.010 C 
HETATM   43  C30 UNL     1       0.430  -3.795  29.657  1.00  0.00     0.010 C 
ENDBRANCH  40  41
ENDBRANCH  16  40
BRANCH   8  44
HETATM   44  C14 UNL     1       1.687  -0.194  21.813  1.00  0.00     0.038 C 
BRANCH  44  45
HETATM   45  C15 UNL     1       1.354   0.429  20.523  1.00  0.00    -0.020 C 
HETATM   46  C16 UNL     1       1.865   1.709  20.051  1.00  0.00     0.009 C 
HETATM   47  C17 UNL     1      -0.203   0.387  20.321  1.00  0.00     0.009 C 
ENDBRANCH  44  45
ENDBRANCH   8  44
BRANCH  15  48
HETATM   48  O4  UNL     1       1.478   0.384  25.836  1.00  0.00    -0.344 OA
ATOM     49  H4  UNL     1       0.769   0.994  25.670  1.00  0.00     0.219 HD
ENDBRANCH  15  48
BRANCH  11  50
HETATM   50  O3  UNL     1       0.889  -4.112  23.797  1.00  0.00    -0.345 OA
ATOM     51  H3  UNL     1       0.894  -4.505  24.662  1.00  0.00     0.219 HD
ENDBRANCH  11  50
BRANCH  12  52
HETATM   52  C20 UNL     1      -1.592  -2.511  23.643  1.00  0.00    -0.053 C 
HETATM   53  C21 UNL     1      -1.447  -2.624  22.144  1.00  0.00     0.046 C 
BRANCH  52  54
HETATM   54  C22 UNL     1      -2.584  -3.543  24.080  1.00  0.00     0.031 C 
HETATM   55  C23 UNL     1      -2.543  -4.722  23.122  1.00  0.00     0.010 C 
ENDBRANCH  52  54
ENDBRANCH  12  52
TORSDOF 18
ENDMDL
MODEL 2
REMARK VINA RESULT: -5.470682015      2.994      6.819
REMARK  18 active torsions:
REMARK  status: ('A' for Active; 'I' for Inactive)
REMARK    1  A    between atoms: C2_2  and  N1_3 
REMARK    2  A    between atoms: N1_3  and  C3_6 
REMARK    3  A    between atoms: C3_6  and  C4_7 
REMARK    4  A    between atoms: C4_7  and  C5_8 
REMARK    5  A    between atoms: C5_8  and  N2_9 
REMARK    6  A    between atoms: C6_10  and  O1_11 
REMARK    7  A    between atoms: C7_13  and  C8_14 
REMARK    8  A    between atoms: C8_14  and  C9_15 
REMARK    9  A    between atoms: C13_22  and  C14_23 
REMARK   10  A    between atoms: C14_23  and  C15_24 
REMARK   11  A    between atoms: C18_29  and  O3_30 
REMARK   12  A    between atoms: C19_32  and  C20_33 
REMARK   13  A    between atoms: C20_33  and  C22_35 
REMARK   14  A    between atoms: C25_39  and  O4_40 
REMARK   15  A    between atoms: C26_42  and  C27_43 
REMARK   16  A    between atoms: C27_43  and  C28_44 
REMARK   17  A    between atoms: C32_51  and  C33_52 
REMARK   18  A    between atoms: C33_52  and  C34_53 
ROOT
HETATM    1  N2  UNL     1       4.882  -6.712  28.153  1.00  0.00    -0.350 N 
HETATM    2  C6  UNL     1       5.444  -5.437  28.394  1.00  0.00     0.137 C 
HETATM    3  C7  UNL     1       5.804  -4.347  27.489  1.00  0.00     0.159 C 
HETATM    4  N3  UNL     1       4.858  -3.216  27.528  1.00  0.00    -0.347 N 
ATOM      5  H3  UNL     1       5.041  -2.458  28.187  1.00  0.00     0.163 HD
HETATM    6  C12 UNL     1       3.703  -3.121  26.697  1.00  0.00     0.241 C 
HETATM    7  O2  UNL     1       2.625  -3.015  27.340  1.00  0.00    -0.271 OA
HETATM    8  C13 UNL     1       3.730  -3.154  25.209  1.00  0.00     0.176 C 
HETATM    9  N4  UNL     1       4.108  -4.462  24.734  1.00  0.00    -0.356 N 
ATOM     10  H4  UNL     1       3.917  -5.156  25.456  1.00  0.00     0.162 HD
HETATM   11  C18 UNL     1       4.633  -5.074  23.646  1.00  0.00     0.164 C 
HETATM   12  C19 UNL     1       4.053  -5.467  22.306  1.00  0.00     0.089 C 
HETATM   13  N5  UNL     1       2.676  -5.884  22.438  1.00  0.00    -0.327 N 
HETATM   14  C24 UNL     1       1.706  -5.338  21.508  1.00  0.00     0.159 C 
HETATM   15  C25 UNL     1       2.228  -6.778  23.460  1.00  0.00     0.165 C 
HETATM   16  C26 UNL     1       2.773  -7.933  24.142  1.00  0.00     0.063 C 
HETATM   17  N6  UNL     1       2.803  -7.860  25.603  1.00  0.00    -0.325 N 
ATOM     18  H6  UNL     1       1.941  -7.479  25.994  1.00  0.00     0.169 HD
HETATM   19  C31 UNL     1       3.710  -8.182  26.560  1.00  0.00     0.245 C 
HETATM   20  O5  UNL     1       3.472  -9.229  27.285  1.00  0.00    -0.271 OA
HETATM   21  C32 UNL     1       5.024  -7.550  26.997  1.00  0.00     0.178 C 
ENDROOT
BRANCH   1  22
HETATM   22  C5  UNL     1       4.045  -7.168  29.300  1.00  0.00     0.127 C 
BRANCH  22  23
HETATM   23  C4  UNL     1       2.783  -6.386  29.443  1.00  0.00     0.047 C 
BRANCH  23  24
HETATM   24  C3  UNL     1       2.362  -6.381  30.923  1.00  0.00     0.234 C 
BRANCH  24  25
HETATM   25  N1  UNL     1       3.448  -6.022  31.789  1.00  0.00    -0.075 N 
ATOM     26  H12 UNL     1       4.031  -5.279  31.403  1.00  0.00     0.277 HD
ATOM     27  H11 UNL     1       4.165  -6.745  31.844  1.00  0.00     0.277 HD
BRANCH  25  28
HETATM   28  C2  UNL     1       2.892  -5.684  33.084  1.00  0.00     0.228 C 
HETATM   29  C1  UNL     1       1.775  -6.647  33.388  1.00  0.00     0.034 C 
ENDBRANCH  25  28
ENDBRANCH  24  25
ENDBRANCH  23  24
ENDBRANCH  22  23
ENDBRANCH   1  22
BRANCH   2  30
HETATM   30  O1  UNL     1       5.694  -5.158  29.641  1.00  0.00    -0.348 OA
ATOM     31  H1  UNL     1       6.345  -5.708  30.062  1.00  0.00     0.219 HD
ENDBRANCH   2  30
BRANCH  21  32
HETATM   32  C33 UNL     1       6.036  -8.633  27.080  1.00  0.00     0.039 C 
BRANCH  32  33
HETATM   33  C34 UNL     1       7.432  -8.458  26.691  1.00  0.00    -0.020 C 
HETATM   34  C35 UNL     1       8.205  -7.902  27.953  1.00  0.00     0.009 C 
HETATM   35  C36 UNL     1       7.638  -7.348  25.692  1.00  0.00     0.009 C 
ENDBRANCH  32  33
ENDBRANCH  21  32
BRANCH   3  36
HETATM   36  C8  UNL     1       7.140  -3.789  28.020  1.00  0.00     0.037 C 
BRANCH  36  37
HETATM   37  C9  UNL     1       8.036  -3.505  26.842  1.00  0.00    -0.020 C 
HETATM   38  C10 UNL     1       9.339  -4.261  26.885  1.00  0.00     0.009 C 
HETATM   39  C11 UNL     1       8.258  -2.007  26.766  1.00  0.00     0.009 C 
ENDBRANCH  36  37
ENDBRANCH   3  36
BRANCH  16  40
HETATM   40  C27 UNL     1       3.858  -8.733  23.534  1.00  0.00     0.065 C 
BRANCH  40  41
HETATM   41  C28 UNL     1       3.508 -10.184  23.284  1.00  0.00    -0.017 C 
HETATM   42  C29 UNL     1       4.310 -11.013  24.268  1.00  0.00     0.010 C 
HETATM   43  C30 UNL     1       2.050 -10.475  23.517  1.00  0.00     0.010 C 
ENDBRANCH  40  41
ENDBRANCH  16  40
BRANCH   8  44
HETATM   44  C14 UNL     1       2.455  -2.719  24.602  1.00  0.00     0.038 C 
BRANCH  44  45
HETATM   45  C15 UNL     1       2.295  -1.363  24.053  1.00  0.00    -0.020 C 
HETATM   46  C16 UNL     1       3.381  -0.513  23.583  1.00  0.00     0.009 C 
HETATM   47  C17 UNL     1       1.362  -0.533  25.004  1.00  0.00     0.009 C 
ENDBRANCH  44  45
ENDBRANCH   8  44
BRANCH  15  48
HETATM   48  O4  UNL     1       1.032  -6.461  23.867  1.00  0.00    -0.344 OA
ATOM     49  H4  UNL     1       0.993  -6.429  24.816  1.00  0.00     0.219 HD
ENDBRANCH  15  48
BRANCH  11  50
HETATM   50  O3  UNL     1       5.893  -5.424  23.714  1.00  0.00    -0.345 OA
ATOM     51  H3  UNL     1       6.080  -6.355  23.737  1.00  0.00     0.219 HD
ENDBRANCH  11  50
BRANCH  12  52
HETATM   52  C20 UNL     1       4.531  -4.636  21.212  1.00  0.00    -0.053 C 
HETATM   53  C21 UNL     1       4.844  -3.192  21.525  1.00  0.00     0.046 C 
BRANCH  52  54
HETATM   54  C22 UNL     1       5.590  -5.137  20.281  1.00  0.00     0.031 C 
HETATM   55  C23 UNL     1       6.872  -4.351  20.504  1.00  0.00     0.010 C 
ENDBRANCH  52  54
ENDBRANCH  12  52
TORSDOF 18
ENDMDL
MODEL 3
REMARK VINA RESULT: -5.390759720      2.037      6.378
REMARK  18 active torsions:
REMARK  status: ('A' for Active; 'I' for Inactive)
REMARK    1  A    between atoms: C2_2  and  N1_3 
REMARK    2  A    between atoms: N1_3  and  C3_6 
REMARK    3  A    between atoms: C3_6  and  C4_7 
REMARK    4  A    between atoms: C4_7  and  C5_8 
REMARK    5  A    between atoms: C5_8  and  N2_9 
REMARK    6  A    between atoms: C6_10  and  O1_11 
REMARK    7  A    between atoms: C7_13  and  C8_14 
REMARK    8  A    between atoms: C8_14  and  C9_15 
REMARK    9  A    between atoms: C13_22  and  C14_23 
REMARK   10  A    between atoms: C14_23  and  C15_24 
REMARK   11  A    between atoms: C18_29  and  O3_30 
REMARK   12  A    between atoms: C19_32  and  C20_33 
REMARK   13  A    between atoms: C20_33  and  C22_35 
REMARK   14  A    between atoms: C25_39  and  O4_40 
REMARK   15  A    between atoms: C26_42  and  C27_43 
REMARK   16  A    between atoms: C27_43  and  C28_44 
REMARK   17  A    between atoms: C32_51  and  C33_52 
REMARK   18  A    between atoms: C33_52  and  C34_53 
ROOT
HETATM    1  N2  UNL     1       2.792  -1.763  26.055  1.00  0.00    -0.350 N 
HETATM    2  C6  UNL     1       2.070  -1.049  25.070  1.00  0.00     0.137 C 
HETATM    3  C7  UNL     1       1.802  -1.339  23.662  1.00  0.00     0.159 C 
HETATM    4  N3  UNL     1       0.421  -1.792  23.411  1.00  0.00    -0.347 N 
ATOM      5  H3  UNL     1      -0.284  -1.088  23.191  1.00  0.00     0.163 HD
HETATM    6  C12 UNL     1       0.016  -3.159  23.457  1.00  0.00     0.241 C 
HETATM    7  O2  UNL     1      -0.904  -3.386  24.286  1.00  0.00    -0.271 OA
HETATM    8  C13 UNL     1       0.611  -4.243  22.628  1.00  0.00     0.176 C 
HETATM    9  N4  UNL     1       1.968  -4.510  23.034  1.00  0.00    -0.356 N 
ATOM     10  H4  UNL     1       2.106  -4.193  23.993  1.00  0.00     0.162 HD
HETATM   11  C18 UNL     1       3.121  -5.043  22.563  1.00  0.00     0.164 C 
HETATM   12  C19 UNL     1       3.588  -6.466  22.358  1.00  0.00     0.089 C 
HETATM   13  N5  UNL     1       3.079  -7.336  23.394  1.00  0.00    -0.327 N 
HETATM   14  C24 UNL     1       2.480  -8.595  22.994  1.00  0.00     0.159 C 
HETATM   15  C25 UNL     1       3.110  -6.993  24.782  1.00  0.00     0.165 C 
HETATM   16  C26 UNL     1       4.015  -6.276  25.655  1.00  0.00     0.063 C 
HETATM   17  N6  UNL     1       3.433  -5.170  26.414  1.00  0.00    -0.325 N 
ATOM     18  H6  UNL     1       2.523  -5.404  26.813  1.00  0.00     0.169 HD
HETATM   19  C31 UNL     1       3.821  -3.903  26.713  1.00  0.00     0.245 C 
HETATM   20  O5  UNL     1       4.193  -3.660  27.929  1.00  0.00    -0.271 OA
HETATM   21  C32 UNL     1       3.923  -2.629  25.886  1.00  0.00     0.178 C 
ENDROOT
BRANCH   1  22
HETATM   22  C5  UNL     1       2.234  -1.531  27.418  1.00  0.00     0.127 C 
BRANCH  22  23
HETATM   23  C4  UNL     1       0.832  -2.019  27.563  1.00  0.00     0.047 C 
BRANCH  23  24
HETATM   24  C3  UNL     1       0.611  -2.486  29.012  1.00  0.00     0.234 C 
BRANCH  24  25
HETATM   25  N1  UNL     1       1.255  -3.740  29.276  1.00  0.00    -0.075 N 
ATOM     26  H12 UNL     1       2.224  -3.630  29.577  1.00  0.00     0.277 HD
ATOM     27  H11 UNL     1       1.435  -4.278  28.429  1.00  0.00     0.277 HD
BRANCH  25  28
HETATM   28  C2  UNL     1       0.447  -4.462  30.238  1.00  0.00     0.228 C 
HETATM   29  C1  UNL     1      -0.997  -4.096  30.015  1.00  0.00     0.034 C 
ENDBRANCH  25  28
ENDBRANCH  24  25
ENDBRANCH  23  24
ENDBRANCH  22  23
ENDBRANCH   1  22
BRANCH   2  30
HETATM   30  O1  UNL     1       1.538   0.072  25.464  1.00  0.00    -0.348 OA
ATOM     31  H1  UNL     1       1.150   0.059  26.331  1.00  0.00     0.219 HD
ENDBRANCH   2  30
BRANCH  21  32
HETATM   32  C33 UNL     1       5.260  -2.036  26.143  1.00  0.00     0.039 C 
BRANCH  32  33
HETATM   33  C34 UNL     1       6.410  -2.242  25.268  1.00  0.00    -0.020 C 
HETATM   34  C35 UNL     1       7.480  -3.070  26.086  1.00  0.00     0.009 C 
HETATM   35  C36 UNL     1       7.167  -0.973  24.970  1.00  0.00     0.009 C 
ENDBRANCH  32  33
ENDBRANCH  21  32
BRANCH   3  36
HETATM   36  C8  UNL     1       1.936   0.010  22.927  1.00  0.00     0.037 C 
BRANCH  36  37
HETATM   37  C9  UNL     1       2.994  -0.134  21.864  1.00  0.00    -0.020 C 
HETATM   38  C10 UNL     1       2.712  -1.245  20.884  1.00  0.00     0.009 C 
HETATM   39  C11 UNL     1       4.334  -0.318  22.550  1.00  0.00     0.009 C 
ENDBRANCH  36  37
ENDBRANCH   3  36
BRANCH  16  40
HETATM   40  C27 UNL     1       5.441  -6.108  25.300  1.00  0.00     0.065 C 
BRANCH  40  41
HETATM   41  C28 UNL     1       6.398  -6.953  26.112  1.00  0.00    -0.017 C 
HETATM   42  C29 UNL     1       7.749  -6.879  25.427  1.00  0.00     0.010 C 
HETATM   43  C30 UNL     1       6.566  -6.445  27.518  1.00  0.00     0.010 C 
ENDBRANCH  40  41
ENDBRANCH  16  40
BRANCH   8  44
HETATM   44  C14 UNL     1      -0.197  -5.480  22.635  1.00  0.00     0.038 C 
BRANCH  44  45
HETATM   45  C15 UNL     1      -1.030  -5.854  21.482  1.00  0.00    -0.020 C 
HETATM   46  C16 UNL     1      -2.331  -5.279  21.163  1.00  0.00     0.009 C 
HETATM   47  C17 UNL     1      -1.122  -7.419  21.401  1.00  0.00     0.009 C 
ENDBRANCH  44  45
ENDBRANCH   8  44
BRANCH  15  48
HETATM   48  O4  UNL     1       2.055  -7.444  25.398  1.00  0.00    -0.344 OA
ATOM     49  H4  UNL     1       1.597  -8.084  24.865  1.00  0.00     0.219 HD
ENDBRANCH  15  48
BRANCH  11  50
HETATM   50  O3  UNL     1       4.059  -4.202  22.204  1.00  0.00    -0.345 OA
ATOM     51  H3  UNL     1       4.912  -4.314  22.605  1.00  0.00     0.219 HD
ENDBRANCH  11  50
BRANCH  12  52
HETATM   52  C20 UNL     1       3.648  -6.850  20.957  1.00  0.00    -0.053 C 
HETATM   53  C21 UNL     1       2.570  -6.314  20.045  1.00  0.00     0.046 C 
BRANCH  52  54
HETATM   54  C22 UNL     1       4.941  -6.798  20.206  1.00  0.00     0.031 C 
HETATM   55  C23 UNL     1       6.092  -7.065  21.162  1.00  0.00     0.010 C 
ENDBRANCH  52  54
ENDBRANCH  12  52
TORSDOF 18
ENDMDL
MODEL 4
REMARK VINA RESULT: -5.293294019      4.771      8.554
REMARK  18 active torsions:
REMARK  status: ('A' for Active; 'I' for Inactive)
REMARK    1  A    between atoms: C2_2  and  N1_3 
REMARK    2  A    between atoms: N1_3  and  C3_6 
REMARK    3  A    between atoms: C3_6  and  C4_7 
REMARK    4  A    between atoms: C4_7  and  C5_8 
REMARK    5  A    between atoms: C5_8  and  N2_9 
REMARK    6  A    between atoms: C6_10  and  O1_11 
REMARK    7  A    between atoms: C7_13  and  C8_14 
REMARK    8  A    between atoms: C8_14  and  C9_15 
REMARK    9  A    between atoms: C13_22  and  C14_23 
REMARK   10  A    between atoms: C14_23  and  C15_24 
REMARK   11  A    between atoms: C18_29  and  O3_30 
REMARK   12  A    between atoms: C19_32  and  C20_33 
REMARK   13  A    between atoms: C20_33  and  C22_35 
REMARK   14  A    between atoms: C25_39  and  O4_40 
REMARK   15  A    between atoms: C26_42  and  C27_43 
REMARK   16  A    between atoms: C27_43  and  C28_44 
REMARK   17  A    between atoms: C32_51  and  C33_52 
REMARK   18  A    between atoms: C33_52  and  C34_53 
ROOT
HETATM    1  N2  UNL     1       5.455  -5.085  27.761  1.00  0.00    -0.350 N 
HETATM    2  C6  UNL     1       6.741  -5.289  28.313  1.00  0.00     0.137 C 
HETATM    3  C7  UNL     1       7.570  -6.488  28.428  1.00  0.00     0.159 C 
HETATM    4  N3  UNL     1       8.692  -6.518  27.471  1.00  0.00    -0.347 N 
ATOM      5  H3  UNL     1       9.584  -6.118  27.763  1.00  0.00     0.163 HD
HETATM    6  C12 UNL     1       8.599  -7.074  26.161  1.00  0.00     0.241 C 
HETATM    7  O2  UNL     1       8.878  -6.257  25.244  1.00  0.00    -0.271 OA
HETATM    8  C13 UNL     1       8.203  -8.478  25.867  1.00  0.00     0.176 C 
HETATM    9  N4  UNL     1       6.813  -8.693  26.183  1.00  0.00    -0.356 N 
ATOM     10  H4  UNL     1       6.320  -7.800  26.178  1.00  0.00     0.162 HD
HETATM   11  C18 UNL     1       5.944  -9.688  26.484  1.00  0.00     0.164 C 
HETATM   12  C19 UNL     1       5.245 -10.732  25.643  1.00  0.00     0.089 C 
HETATM   13  N5  UNL     1       4.896 -10.205  24.343  1.00  0.00    -0.327 N 
HETATM   14  C24 UNL     1       5.214 -11.006  23.176  1.00  0.00     0.159 C 
HETATM   15  C25 UNL     1       4.286  -8.925  24.161  1.00  0.00     0.165 C 
HETATM   16  C26 UNL     1       3.325  -8.120  24.883  1.00  0.00     0.063 C 
HETATM   17  N6  UNL     1       3.753  -6.762  25.225  1.00  0.00    -0.325 N 
ATOM     18  H6  UNL     1       4.232  -6.298  24.454  1.00  0.00     0.169 HD
HETATM   19  C31 UNL     1       3.659  -5.978  26.329  1.00  0.00     0.245 C 
HETATM   20  O5  UNL     1       2.826  -4.987  26.293  1.00  0.00    -0.271 OA
HETATM   21  C32 UNL     1       4.358  -6.005  27.682  1.00  0.00     0.178 C 
ENDROOT
BRANCH   1  22
HETATM   22  C5  UNL     1       5.308  -3.708  27.209  1.00  0.00     0.127 C 
BRANCH  22  23
HETATM   23  C4  UNL     1       6.035  -3.518  25.921  1.00  0.00     0.047 C 
BRANCH  23  24
HETATM   24  C3  UNL     1       6.614  -2.094  25.877  1.00  0.00     0.234 C 
BRANCH  24  25
HETATM   25  N1  UNL     1       6.929  -1.601  27.187  1.00  0.00    -0.075 N 
ATOM     26  H12 UNL     1       6.778  -2.297  27.917  1.00  0.00     0.277 HD
ATOM     27  H11 UNL     1       6.261  -0.907  27.519  1.00  0.00     0.277 HD
BRANCH  25  28
HETATM   28  C2  UNL     1       8.290  -1.103  27.161  1.00  0.00     0.228 C 
HETATM   29  C1  UNL     1       9.228  -2.281  27.178  1.00  0.00     0.034 C 
ENDBRANCH  25  28
ENDBRANCH  24  25
ENDBRANCH  23  24
ENDBRANCH  22  23
ENDBRANCH   1  22
BRANCH   2  30
HETATM   30  O1  UNL     1       7.312  -4.232  28.816  1.00  0.00    -0.348 OA
ATOM     31  H1  UNL     1       7.188  -4.104  29.749  1.00  0.00     0.219 HD
ENDBRANCH   2  30
BRANCH  21  32
HETATM   32  C33 UNL     1       3.311  -5.886  28.728  1.00  0.00     0.039 C 
BRANCH  32  33
HETATM   33  C34 UNL     1       3.283  -6.709  29.933  1.00  0.00    -0.020 C 
HETATM   34  C35 UNL     1       1.980  -6.318  30.738  1.00  0.00     0.009 C 
HETATM   35  C36 UNL     1       4.368  -6.358  30.919  1.00  0.00     0.009 C 
ENDBRANCH  32  33
ENDBRANCH  21  32
BRANCH   3  36
HETATM   36  C8  UNL     1       8.218  -6.413  29.825  1.00  0.00     0.037 C 
BRANCH  36  37
HETATM   37  C9  UNL     1       9.715  -6.407  29.652  1.00  0.00    -0.020 C 
HETATM   38  C10 UNL     1      10.397  -7.588  30.295  1.00  0.00     0.009 C 
HETATM   39  C11 UNL     1      10.249  -5.092  30.187  1.00  0.00     0.009 C 
ENDBRANCH  36  37
ENDBRANCH   3  36
BRANCH  16  40
HETATM   40  C27 UNL     1       2.382  -8.737  25.841  1.00  0.00     0.065 C 
BRANCH  40  41
HETATM   41  C28 UNL     1       1.381  -9.686  25.219  1.00  0.00    -0.017 C 
HETATM   42  C29 UNL     1       0.727 -10.450  26.353  1.00  0.00     0.010 C 
HETATM   43  C30 UNL     1       0.297  -8.967  24.463  1.00  0.00     0.010 C 
ENDBRANCH  40  41
ENDBRANCH  16  40
BRANCH   8  44
HETATM   44  C14 UNL     1       8.497  -8.880  24.476  1.00  0.00     0.038 C 
BRANCH  44  45
HETATM   45  C15 UNL     1       9.686  -9.682  24.149  1.00  0.00    -0.020 C 
HETATM   46  C16 UNL     1      10.385 -10.565  25.073  1.00  0.00     0.009 C 
HETATM   47  C17 UNL     1      10.732  -8.771  23.412  1.00  0.00     0.009 C 
ENDBRANCH  44  45
ENDBRANCH   8  44
BRANCH  15  48
HETATM   48  O4  UNL     1       4.714  -8.356  23.070  1.00  0.00    -0.344 OA
ATOM     49  H4  UNL     1       4.650  -8.947  22.329  1.00  0.00     0.219 HD
ENDBRANCH  15  48
BRANCH  11  50
HETATM   50  O3  UNL     1       5.600  -9.814  27.741  1.00  0.00    -0.345 OA
ATOM     51  H3  UNL     1       5.807 -10.640  28.162  1.00  0.00     0.219 HD
ENDBRANCH  11  50
BRANCH  12  52
HETATM   52  C20 UNL     1       5.774 -12.072  25.842  1.00  0.00    -0.053 C 
HETATM   53  C21 UNL     1       7.242 -12.194  26.177  1.00  0.00     0.046 C 
BRANCH  52  54
HETATM   54  C22 UNL     1       5.035 -13.067  26.680  1.00  0.00     0.031 C 
HETATM   55  C23 UNL     1       3.544 -12.949  26.409  1.00  0.00     0.010 C 
ENDBRANCH  52  54
ENDBRANCH  12  52
TORSDOF 18
ENDMDL
MODEL 5
REMARK VINA RESULT: -5.243020846      2.033      7.721
REMARK  18 active torsions:
REMARK  status: ('A' for Active; 'I' for Inactive)
REMARK    1  A    between atoms: C2_2  and  N1_3 
REMARK    2  A    between atoms: N1_3  and  C3_6 
REMARK    3  A    between atoms: C3_6  and  C4_7 
REMARK    4  A    between atoms: C4_7  and  C5_8 
REMARK    5  A    between atoms: C5_8  and  N2_9 
REMARK    6  A    between atoms: C6_10  and  O1_11 
REMARK    7  A    between atoms: C7_13  and  C8_14 
REMARK    8  A    between atoms: C8_14  and  C9_15 
REMARK    9  A    between atoms: C13_22  and  C14_23 
REMARK   10  A    between atoms: C14_23  and  C15_24 
REMARK   11  A    between atoms: C18_29  and  O3_30 
REMARK   12  A    between atoms: C19_32  and  C20_33 
REMARK   13  A    between atoms: C20_33  and  C22_35 
REMARK   14  A    between atoms: C25_39  and  O4_40 
REMARK   15  A    between atoms: C26_42  and  C27_43 
REMARK   16  A    between atoms: C27_43  and  C28_44 
REMARK   17  A    between atoms: C32_51  and  C33_52 
REMARK   18  A    between atoms: C33_52  and  C34_53 
ROOT
HETATM    1  N2  UNL     1       2.072  -2.092  24.291  1.00  0.00    -0.350 N 
HETATM    2  C6  UNL     1       2.168  -1.597  25.612  1.00  0.00     0.137 C 
HETATM    3  C7  UNL     1       2.576  -2.236  26.861  1.00  0.00     0.159 C 
HETATM    4  N3  UNL     1       3.923  -1.836  27.311  1.00  0.00    -0.347 N 
ATOM      5  H3  UNL     1       4.003  -1.031  27.932  1.00  0.00     0.163 HD
HETATM    6  C12 UNL     1       5.118  -2.512  26.926  1.00  0.00     0.241 C 
HETATM    7  O2  UNL     1       5.956  -1.769  26.349  1.00  0.00    -0.271 OA
HETATM    8  C13 UNL     1       5.381  -3.959  27.158  1.00  0.00     0.176 C 
HETATM    9  N4  UNL     1       4.519  -4.772  26.336  1.00  0.00    -0.356 N 
ATOM     10  H4  UNL     1       4.196  -4.228  25.536  1.00  0.00     0.162 HD
HETATM   11  C18 UNL     1       3.994  -6.020  26.275  1.00  0.00     0.164 C 
HETATM   12  C19 UNL     1       4.567  -7.357  25.865  1.00  0.00     0.089 C 
HETATM   13  N5  UNL     1       5.507  -7.209  24.777  1.00  0.00    -0.327 N 
HETATM   14  C24 UNL     1       6.785  -7.886  24.883  1.00  0.00     0.159 C 
HETATM   15  C25 UNL     1       5.244  -6.401  23.627  1.00  0.00     0.165 C 
HETATM   16  C26 UNL     1       4.081  -6.075  22.830  1.00  0.00     0.063 C 
HETATM   17  N6  UNL     1       3.795  -4.649  22.666  1.00  0.00    -0.325 N 
ATOM     18  H6  UNL     1       4.634  -4.101  22.473  1.00  0.00     0.169 HD
HETATM   19  C31 UNL     1       2.673  -3.885  22.710  1.00  0.00     0.245 C 
HETATM   20  O5  UNL     1       2.219  -3.420  21.590  1.00  0.00    -0.271 OA
HETATM   21  C32 UNL     1       1.777  -3.426  23.852  1.00  0.00     0.178 C 
ENDROOT
BRANCH   1  22
HETATM   22  C5  UNL     1       2.329  -1.022  23.284  1.00  0.00     0.127 C 
BRANCH  22  23
HETATM   23  C4  UNL     1       3.722  -0.493  23.343  1.00  0.00     0.047 C 
BRANCH  23  24
HETATM   24  C3  UNL     1       3.796   0.813  22.533  1.00  0.00     0.234 C 
BRANCH  24  25
HETATM   25  N1  UNL     1       3.057   0.728  21.307  1.00  0.00    -0.075 N 
ATOM     26  H12 UNL     1       2.530  -0.141  21.224  1.00  0.00     0.277 HD
ATOM     27  H11 UNL     1       3.657   0.602  20.492  1.00  0.00     0.277 HD
BRANCH  25  28
HETATM   28  C2  UNL     1       2.218   1.905  21.209  1.00  0.00     0.228 C 
HETATM   29  C1  UNL     1       0.806   1.460  20.931  1.00  0.00     0.034 C 
ENDBRANCH  25  28
ENDBRANCH  24  25
ENDBRANCH  23  24
ENDBRANCH  22  23
ENDBRANCH   1  22
BRANCH   2  30
HETATM   30  O1  UNL     1       1.838  -0.347  25.770  1.00  0.00    -0.348 OA
ATOM     31  H1  UNL     1       2.396   0.153  26.354  1.00  0.00     0.219 HD
ENDBRANCH   2  30
BRANCH  21  32
HETATM   32  C33 UNL     1       0.373  -3.702  23.456  1.00  0.00     0.039 C 
BRANCH  32  33
HETATM   33  C34 UNL     1      -0.746  -2.835  23.813  1.00  0.00    -0.020 C 
HETATM   34  C35 UNL     1      -2.023  -3.755  23.963  1.00  0.00     0.009 C 
HETATM   35  C36 UNL     1      -1.164  -1.912  22.698  1.00  0.00     0.009 C 
ENDBRANCH  32  33
ENDBRANCH  21  32
BRANCH   3  36
HETATM   36  C8  UNL     1       1.606  -1.707  27.936  1.00  0.00     0.037 C 
BRANCH  36  37
HETATM   37  C9  UNL     1       0.410  -2.622  27.987  1.00  0.00    -0.020 C 
HETATM   38  C10 UNL     1      -0.876  -1.953  27.573  1.00  0.00     0.009 C 
HETATM   39  C11 UNL     1       0.316  -3.202  29.385  1.00  0.00     0.009 C 
ENDBRANCH  36  37
ENDBRANCH   3  36
BRANCH  16  40
HETATM   40  C27 UNL     1       2.892  -6.954  22.823  1.00  0.00     0.065 C 
BRANCH  40  41
HETATM   41  C28 UNL     1       3.158  -8.371  22.362  1.00  0.00    -0.017 C 
HETATM   42  C29 UNL     1       2.586  -9.297  23.418  1.00  0.00     0.010 C 
HETATM   43  C30 UNL     1       2.482  -8.689  21.056  1.00  0.00     0.010 C 
ENDBRANCH  40  41
ENDBRANCH  16  40
BRANCH   8  44
HETATM   44  C14 UNL     1       6.799  -4.325  26.959  1.00  0.00     0.038 C 
BRANCH  44  45
HETATM   45  C15 UNL     1       7.709  -4.494  28.102  1.00  0.00    -0.020 C 
HETATM   46  C16 UNL     1       7.307  -4.882  29.447  1.00  0.00     0.009 C 
HETATM   47  C17 UNL     1       8.663  -3.250  28.185  1.00  0.00     0.009 C 
ENDBRANCH  44  45
ENDBRANCH   8  44
BRANCH  15  48
HETATM   48  O4  UNL     1       6.332  -5.823  23.204  1.00  0.00    -0.344 OA
ATOM     49  H4  UNL     1       6.762  -6.349  22.540  1.00  0.00     0.219 HD
ENDBRANCH  15  48
BRANCH  11  50
HETATM   50  O3  UNL     1       2.739  -6.152  26.626  1.00  0.00    -0.345 OA
ATOM     51  H3  UNL     1       2.094  -6.124  25.930  1.00  0.00     0.219 HD
ENDBRANCH  11  50
BRANCH  12  52
HETATM   52  C20 UNL     1       4.787  -8.252  26.989  1.00  0.00    -0.053 C 
HETATM   53  C21 UNL     1       5.103  -7.622  28.325  1.00  0.00     0.046 C 
BRANCH  52  54
HETATM   54  C22 UNL     1       3.865  -9.403  27.239  1.00  0.00     0.031 C 
HETATM   55  C23 UNL     1       4.402 -10.643  26.544  1.00  0.00     0.010 C 
ENDBRANCH  52  54
ENDBRANCH  12  52
TORSDOF 18
ENDMDL
