MODEL 1
REMARK VINA RESULT: -5.823998191      0.000      0.000
REMARK  17 active torsions:
REMARK  status: ('A' for Active; 'I' for Inactive)
REMARK    1  A    between atoms: C2_2  and  C3_3 
REMARK    2  A    between atoms: C3_3  and  C4_4 
REMARK    3  A    between atoms: C4_4  and  N1_5 
REMARK    4  A    between atoms: C7_9  and  C8_10 
REMARK    5  A    between atoms: C8_10  and  C9_11 
REMARK    6  A    between atoms: C9_11  and  C10_12 
REMARK    7  A    between atoms: C10_12  and  C11_13 
REMARK    8  A    between atoms: C11_13  and  N2_14 
REMARK    9  A    between atoms: C13_22  and  C14_23 
REMARK   10  A    between atoms: C14_23  and  C15_24 
REMARK   11  A    between atoms: C18_28  and  C19_29 
REMARK   12  A    between atoms: C19_29  and  C21_31 
REMARK   13  A    between atoms: C23_33  and  O3_34 
REMARK   14  A    between atoms: C25_38  and  C26_39 
REMARK   15  A    between atoms: C26_39  and  C27_40 
REMARK   16  A    between atoms: C31_47  and  C32_48 
REMARK   17  A    between atoms: C32_48  and  C33_49 
ROOT
HETATM    1  N1  UNL     1       3.771  -9.173  26.171  1.00  0.00    -0.340 N 
HETATM    2  C5  UNL     1       3.080  -8.334  27.099  1.00  0.00     0.206 C 
HETATM    3  C6  UNL     1       3.826  -7.227  27.727  1.00  0.00     0.167 C 
HETATM    4  O1  UNL     1       3.252  -6.135  27.797  1.00  0.00    -0.294 OA
HETATM    5  C7  UNL     1       5.185  -7.248  28.294  1.00  0.00     0.156 C 
HETATM    6  N3  UNL     1       6.264  -7.225  27.352  1.00  0.00    -0.347 N 
ATOM      7  H3  UNL     1       6.912  -8.007  27.454  1.00  0.00     0.163 HD
HETATM    8  C12 UNL     1       6.603  -6.356  26.331  1.00  0.00     0.254 C 
HETATM    9  O2  UNL     1       6.647  -6.817  25.157  1.00  0.00    -0.270 OA
HETATM   10  C13 UNL     1       6.948  -4.897  26.390  1.00  0.00     0.255 C 
HETATM   11  N4  UNL     1       6.402  -4.034  25.497  1.00  0.00    -0.433 NA
HETATM   12  C18 UNL     1       5.929  -3.458  24.540  1.00  0.00     0.133 C 
HETATM   13  C23 UNL     1       5.757  -3.949  23.151  1.00  0.00     0.180 C 
HETATM   14  N5  UNL     1       5.200  -5.076  22.560  1.00  0.00    -0.325 N 
HETATM   15  C24 UNL     1       6.183  -5.844  21.726  1.00  0.00     0.159 C 
HETATM   16  C25 UNL     1       3.843  -5.610  22.538  1.00  0.00     0.101 C 
HETATM   17  C30 UNL     1       3.181  -5.872  23.781  1.00  0.00     0.272 C 
HETATM   18  O4  UNL     1       3.221  -5.018  24.721  1.00  0.00    -0.266 OA
HETATM   19  N6  UNL     1       2.416  -7.032  24.180  1.00  0.00    -0.317 N 
ATOM     20  H6  UNL     1       1.567  -6.848  24.715  1.00  0.00     0.169 HD
HETATM   21  C31 UNL     1       2.702  -8.385  23.917  1.00  0.00     0.100 C 
HETATM   22  C36 UNL     1       3.785  -8.995  24.746  1.00  0.00     0.270 C 
HETATM   23  O5  UNL     1       4.862  -9.423  24.180  1.00  0.00    -0.266 OA
ENDROOT
BRANCH   5  24
HETATM   24  C8  UNL     1       5.338  -6.180  29.391  1.00  0.00     0.033 C 
BRANCH  24  25
HETATM   25  C9  UNL     1       6.747  -6.199  29.932  1.00  0.00     0.004 C 
BRANCH  25  26
HETATM   26  C10 UNL     1       6.943  -5.171  31.020  1.00  0.00     0.027 C 
BRANCH  26  27
HETATM   27  C11 UNL     1       5.889  -5.335  32.074  1.00  0.00     0.229 C 
BRANCH  27  28
HETATM   28  N2  UNL     1       6.428  -4.943  33.373  1.00  0.00    -0.079 N 
ATOM     29  H23 UNL     1       6.828  -5.734  33.878  1.00  0.00     0.274 HD
ATOM     30  H22 UNL     1       7.275  -4.381  33.285  1.00  0.00     0.274 HD
ATOM     31  H21 UNL     1       5.707  -4.467  33.915  1.00  0.00     0.274 HD
ENDBRANCH  27  28
ENDBRANCH  26  27
ENDBRANCH  25  26
ENDBRANCH  24  25
ENDBRANCH   5  24
BRANCH   1  32
HETATM   32  C4  UNL     1       4.553 -10.315  26.650  1.00  0.00     0.126 C 
BRANCH  32  33
HETATM   33  C3  UNL     1       4.075 -11.652  26.272  1.00  0.00     0.020 C 
BRANCH  33  34
HETATM   34  C2  UNL     1       2.700 -12.069  26.649  1.00  0.00    -0.003 C 
HETATM   35  C1  UNL     1       2.337 -13.477  26.177  1.00  0.00     0.005 C 
ENDBRANCH  33  34
ENDBRANCH  32  33
ENDBRANCH   1  32
BRANCH  10  36
HETATM   36  C14 UNL     1       8.512  -4.828  26.427  1.00  0.00     0.053 C 
BRANCH  36  37
HETATM   37  C15 UNL     1       9.010  -4.205  27.675  1.00  0.00    -0.019 C 
HETATM   38  C16 UNL     1       9.858  -2.993  27.303  1.00  0.00     0.009 C 
HETATM   39  C17 UNL     1      10.038  -5.180  28.290  1.00  0.00     0.009 C 
ENDBRANCH  36  37
ENDBRANCH  10  36
BRANCH  21  40
HETATM   40  C32 UNL     1       1.608  -9.329  23.621  1.00  0.00     0.012 C 
BRANCH  40  41
HETATM   41  C33 UNL     1       0.412  -9.475  24.444  1.00  0.00     0.002 C 
HETATM   42  C34 UNL     1       0.068 -11.000  24.441  1.00  0.00     0.013 C 
HETATM   43  C35 UNL     1      -0.840  -8.857  23.872  1.00  0.00     0.013 C 
ENDBRANCH  40  41
ENDBRANCH  21  40
BRANCH  12  44
HETATM   44  C19 UNL     1       5.487  -2.002  24.650  1.00  0.00     0.049 C 
HETATM   45  C20 UNL     1       4.034  -1.778  24.814  1.00  0.00     0.017 C 
BRANCH  44  46
HETATM   46  C21 UNL     1       6.204  -1.187  25.657  1.00  0.00     0.007 C 
HETATM   47  C22 UNL     1       7.545  -0.786  25.018  1.00  0.00     0.006 C 
ENDBRANCH  44  46
ENDBRANCH  12  44
BRANCH  13  48
HETATM   48  O3  UNL     1       6.282  -3.056  22.313  1.00  0.00    -0.344 OA
ATOM     49  H3  UNL     1       7.229  -3.118  22.356  1.00  0.00     0.219 HD
ENDBRANCH  13  48
BRANCH  16  50
HETATM   50  C26 UNL     1       3.065  -4.965  21.424  1.00  0.00     0.012 C 
BRANCH  50  51
HETATM   51  C27 UNL     1       2.324  -3.731  21.611  1.00  0.00     0.002 C 
HETATM   52  C28 UNL     1       2.978  -2.488  21.082  1.00  0.00     0.013 C 
HETATM   53  C29 UNL     1       0.982  -3.843  20.843  1.00  0.00     0.013 C 
ENDBRANCH  50  51
ENDBRANCH  16  50
TORSDOF 17
ENDMDL
MODEL 2
REMARK VINA RESULT: -5.651240140      2.274      7.875
REMARK  17 active torsions:
REMARK  status: ('A' for Active; 'I' for Inactive)
REMARK    1  A    between atoms: C2_2  and  C3_3 
REMARK    2  A    between atoms: C3_3  and  C4_4 
REMARK    3  A    between atoms: C4_4  and  N1_5 
REMARK    4  A    between atoms: C7_9  and  C8_10 
REMARK    5  A    between atoms: C8_10  and  C9_11 
REMARK    6  A    between atoms: C9_11  and  C10_12 
REMARK    7  A    between atoms: C10_12  and  C11_13 
REMARK    8  A    between atoms: C11_13  and  N2_14 
REMARK    9  A    between atoms: C13_22  and  C14_23 
REMARK   10  A    between atoms: C14_23  and  C15_24 
REMARK   11  A    between atoms: C18_28  and  C19_29 
REMARK   12  A    between atoms: C19_29  and  C21_31 
REMARK   13  A    between atoms: C23_33  and  O3_34 
REMARK   14  A    between atoms: C25_38  and  C26_39 
REMARK   15  A    between atoms: C26_39  and  C27_40 
REMARK   16  A    between atoms: C31_47  and  C32_48 
REMARK   17  A    between atoms: C32_48  and  C33_49 
ROOT
HETATM    1  N1  UNL     1       8.100  -4.775  27.238  1.00  0.00    -0.340 N 
HETATM    2  C5  UNL     1       7.111  -4.737  28.270  1.00  0.00     0.206 C 
HETATM    3  C6  UNL     1       5.701  -4.557  27.877  1.00  0.00     0.167 C 
HETATM    4  O1  UNL     1       4.867  -5.275  28.441  1.00  0.00    -0.294 OA
HETATM    5  C7  UNL     1       5.141  -3.619  26.890  1.00  0.00     0.156 C 
HETATM    6  N3  UNL     1       5.309  -3.975  25.512  1.00  0.00    -0.347 N 
ATOM      7  H3  UNL     1       5.779  -3.258  24.960  1.00  0.00     0.163 HD
HETATM    8  C12 UNL     1       4.963  -5.097  24.782  1.00  0.00     0.254 C 
HETATM    9  O2  UNL     1       5.892  -5.753  24.236  1.00  0.00    -0.270 OA
HETATM   10  C13 UNL     1       3.609  -5.685  24.513  1.00  0.00     0.255 C 
HETATM   11  N4  UNL     1       3.412  -7.021  24.639  1.00  0.00    -0.433 NA
HETATM   12  C18 UNL     1       3.474  -8.233  24.665  1.00  0.00     0.133 C 
HETATM   13  C23 UNL     1       4.579  -9.117  24.222  1.00  0.00     0.180 C 
HETATM   14  N5  UNL     1       5.946  -9.190  24.459  1.00  0.00    -0.325 N 
HETATM   15  C24 UNL     1       6.762  -9.087  23.204  1.00  0.00     0.159 C 
HETATM   16  C25 UNL     1       6.727  -9.417  25.671  1.00  0.00     0.101 C 
HETATM   17  C30 UNL     1       6.526  -8.554  26.795  1.00  0.00     0.272 C 
HETATM   18  O4  UNL     1       5.349  -8.253  27.171  1.00  0.00    -0.266 OA
HETATM   19  N6  UNL     1       7.509  -7.917  27.643  1.00  0.00    -0.317 N 
ATOM     20  H6  UNL     1       7.299  -7.901  28.641  1.00  0.00     0.169 HD
HETATM   21  C31 UNL     1       8.721  -7.315  27.255  1.00  0.00     0.100 C 
HETATM   22  C36 UNL     1       8.606  -5.968  26.620  1.00  0.00     0.270 C 
HETATM   23  O5  UNL     1       8.987  -5.799  25.400  1.00  0.00    -0.266 OA
ENDROOT
BRANCH   5  24
HETATM   24  C8  UNL     1       3.682  -3.267  27.233  1.00  0.00     0.033 C 
BRANCH  24  25
HETATM   25  C9  UNL     1       3.277  -2.004  26.515  1.00  0.00     0.004 C 
BRANCH  25  26
HETATM   26  C10 UNL     1       1.810  -1.699  26.702  1.00  0.00     0.027 C 
BRANCH  26  27
HETATM   27  C11 UNL     1       1.560  -1.229  28.104  1.00  0.00     0.229 C 
BRANCH  27  28
HETATM   28  N2  UNL     1       0.641  -2.145  28.773  1.00  0.00    -0.079 N 
ATOM     29  H23 UNL     1       0.619  -3.062  28.327  1.00  0.00     0.274 HD
ATOM     30  H22 UNL     1       0.984  -2.434  29.689  1.00  0.00     0.274 HD
ATOM     31  H21 UNL     1      -0.286  -1.722  28.827  1.00  0.00     0.274 HD
ENDBRANCH  27  28
ENDBRANCH  26  27
ENDBRANCH  25  26
ENDBRANCH  24  25
ENDBRANCH   5  24
BRANCH   1  32
HETATM   32  C4  UNL     1       8.672  -3.530  26.721  1.00  0.00     0.126 C 
BRANCH  32  33
HETATM   33  C3  UNL     1       8.677  -2.374  27.628  1.00  0.00     0.020 C 
BRANCH  33  34
HETATM   34  C2  UNL     1       7.912  -1.154  27.260  1.00  0.00    -0.003 C 
HETATM   35  C1  UNL     1       7.598  -1.057  25.767  1.00  0.00     0.005 C 
ENDBRANCH  33  34
ENDBRANCH  32  33
ENDBRANCH   1  32
BRANCH  10  36
HETATM   36  C14 UNL     1       3.170  -5.132  23.115  1.00  0.00     0.053 C 
BRANCH  36  37
HETATM   37  C15 UNL     1       2.759  -3.711  23.186  1.00  0.00    -0.019 C 
HETATM   38  C16 UNL     1       1.257  -3.656  23.442  1.00  0.00     0.009 C 
HETATM   39  C17 UNL     1       2.896  -3.128  21.762  1.00  0.00     0.009 C 
ENDBRANCH  36  37
ENDBRANCH  10  36
BRANCH  21  40
HETATM   40  C32 UNL     1       9.919  -7.447  28.106  1.00  0.00     0.012 C 
BRANCH  40  41
HETATM   41  C33 UNL     1       9.992  -6.984  29.488  1.00  0.00     0.002 C 
HETATM   42  C34 UNL     1      10.766  -5.627  29.448  1.00  0.00     0.013 C 
HETATM   43  C35 UNL     1      10.851  -7.824  30.401  1.00  0.00     0.013 C 
ENDBRANCH  40  41
ENDBRANCH  21  40
BRANCH  12  44
HETATM   44  C19 UNL     1       2.281  -9.062  25.131  1.00  0.00     0.049 C 
HETATM   45  C20 UNL     1       2.183  -9.293  26.588  1.00  0.00     0.017 C 
BRANCH  44  46
HETATM   46  C21 UNL     1       0.958  -8.617  24.637  1.00  0.00     0.007 C 
HETATM   47  C22 UNL     1      -0.039  -9.733  24.993  1.00  0.00     0.006 C 
ENDBRANCH  44  46
ENDBRANCH  12  44
BRANCH  13  48
HETATM   48  O3  UNL     1       4.084 -10.043  23.402  1.00  0.00    -0.344 OA
ATOM     49  H3  UNL     1       4.761 -10.685  23.223  1.00  0.00     0.219 HD
ENDBRANCH  13  48
BRANCH  16  50
HETATM   50  C26 UNL     1       6.873 -10.895  25.907  1.00  0.00     0.012 C 
BRANCH  50  51
HETATM   51  C27 UNL     1       6.034 -11.615  26.847  1.00  0.00     0.002 C 
HETATM   52  C28 UNL     1       4.659 -11.969  26.359  1.00  0.00     0.013 C 
HETATM   53  C29 UNL     1       6.712 -12.971  27.173  1.00  0.00     0.013 C 
ENDBRANCH  50  51
ENDBRANCH  16  50
TORSDOF 17
ENDMDL
MODEL 3
REMARK VINA RESULT: -5.603480628      2.405      8.211
REMARK  17 active torsions:
REMARK  status: ('A' for Active; 'I' for Inactive)
REMARK    1  A    between atoms: C2_2  and  C3_3 
REMARK    2  A    between atoms: C3_3  and  C4_4 
REMARK    3  A    between atoms: C4_4  and  N1_5 
REMARK    4  A    between atoms: C7_9  and  C8_10 
REMARK    5  A    between atoms: C8_10  and  C9_11 
REMARK    6  A    between atoms: C9_11  and  C10_12 
REMARK    7  A    between atoms: C10_12  and  C11_13 
REMARK    8  A    between atoms: C11_13  and  N2_14 
REMARK    9  A    between atoms: C13_22  and  C14_23 
REMARK   10  A    between atoms: C14_23  and  C15_24 
REMARK   11  A    between atoms: C18_28  and  C19_29 
REMARK   12  A    between atoms: C19_29  and  C21_31 
REMARK   13  A    between atoms: C23_33  and  O3_34 
REMARK   14  A    between atoms: C25_38  and  C26_39 
REMARK   15  A    between atoms: C26_39  and  C27_40 
REMARK   16  A    between atoms: C31_47  and  C32_48 
REMARK   17  A    between atoms: C32_48  and  C33_49 
ROOT
HETATM    1  N1  UNL     1       8.008  -4.450  27.292  1.00  0.00    -0.340 N 
HETATM    2  C5  UNL     1       6.967  -4.341  28.265  1.00  0.00     0.206 C 
HETATM    3  C6  UNL     1       5.574  -4.262  27.790  1.00  0.00     0.167 C 
HETATM    4  O1  UNL     1       4.738  -4.947  28.390  1.00  0.00    -0.294 OA
HETATM    5  C7  UNL     1       5.032  -3.460  26.679  1.00  0.00     0.156 C 
HETATM    6  N3  UNL     1       5.283  -3.957  25.359  1.00  0.00    -0.347 N 
ATOM      7  H3  UNL     1       5.755  -3.286  24.753  1.00  0.00     0.163 HD
HETATM    8  C12 UNL     1       5.013  -5.165  24.742  1.00  0.00     0.254 C 
HETATM    9  O2  UNL     1       5.992  -5.839  24.316  1.00  0.00    -0.270 OA
HETATM   10  C13 UNL     1       3.696  -5.833  24.478  1.00  0.00     0.255 C 
HETATM   11  N4  UNL     1       3.540  -7.155  24.741  1.00  0.00    -0.433 NA
HETATM   12  C18 UNL     1       3.644  -8.353  24.904  1.00  0.00     0.133 C 
HETATM   13  C23 UNL     1       4.800  -9.235  24.615  1.00  0.00     0.180 C 
HETATM   14  N5  UNL     1       6.155  -9.226  24.922  1.00  0.00    -0.325 N 
HETATM   15  C24 UNL     1       7.030  -9.227  23.703  1.00  0.00     0.159 C 
HETATM   16  C25 UNL     1       6.881  -9.287  26.186  1.00  0.00     0.101 C 
HETATM   17  C30 UNL     1       6.592  -8.316  27.198  1.00  0.00     0.272 C 
HETATM   18  O4  UNL     1       5.388  -8.024  27.482  1.00  0.00    -0.266 OA
HETATM   19  N6  UNL     1       7.508  -7.551  28.014  1.00  0.00    -0.317 N 
ATOM     20  H6  UNL     1       7.247  -7.435  28.993  1.00  0.00     0.169 HD
HETATM   21  C31 UNL     1       8.717  -6.946  27.619  1.00  0.00     0.100 C 
HETATM   22  C36 UNL     1       8.587  -5.682  26.834  1.00  0.00     0.270 C 
HETATM   23  O5  UNL     1       9.023  -5.632  25.622  1.00  0.00    -0.266 OA
ENDROOT
BRANCH   5  24
HETATM   24  C8  UNL     1       3.546  -3.132  26.913  1.00  0.00     0.033 C 
BRANCH  24  25
HETATM   25  C9  UNL     1       3.139  -1.960  26.055  1.00  0.00     0.004 C 
BRANCH  25  26
HETATM   26  C10 UNL     1       1.651  -1.942  25.801  1.00  0.00     0.027 C 
BRANCH  26  27
HETATM   27  C11 UNL     1       1.074  -0.628  26.236  1.00  0.00     0.229 C 
BRANCH  27  28
HETATM   28  N2  UNL     1       1.065   0.302  25.110  1.00  0.00    -0.079 N 
ATOM     29  H23 UNL     1       1.521  -0.089  24.286  1.00  0.00     0.274 HD
ATOM     30  H22 UNL     1       0.131   0.423  24.719  1.00  0.00     0.274 HD
ATOM     31  H21 UNL     1       1.480   1.189  25.394  1.00  0.00     0.274 HD
ENDBRANCH  27  28
ENDBRANCH  26  27
ENDBRANCH  25  26
ENDBRANCH  24  25
ENDBRANCH   5  24
BRANCH   1  32
HETATM   32  C4  UNL     1       8.562  -3.247  26.667  1.00  0.00     0.126 C 
BRANCH  32  33
HETATM   33  C3  UNL     1       8.415  -1.987  27.407  1.00  0.00     0.020 C 
BRANCH  33  34
HETATM   34  C2  UNL     1       7.824  -0.805  26.727  1.00  0.00    -0.003 C 
HETATM   35  C1  UNL     1       7.491  -1.050  25.255  1.00  0.00     0.005 C 
ENDBRANCH  33  34
ENDBRANCH  32  33
ENDBRANCH   1  32
BRANCH  10  36
HETATM   36  C14 UNL     1       3.310  -5.454  23.008  1.00  0.00     0.053 C 
BRANCH  36  37
HETATM   37  C15 UNL     1       2.337  -4.339  22.961  1.00  0.00    -0.019 C 
HETATM   38  C16 UNL     1       1.269  -4.676  21.927  1.00  0.00     0.009 C 
HETATM   39  C17 UNL     1       3.065  -3.128  22.335  1.00  0.00     0.009 C 
ENDBRANCH  36  37
ENDBRANCH  10  36
BRANCH  21  40
HETATM   40  C32 UNL     1       9.873  -6.936  28.535  1.00  0.00     0.012 C 
BRANCH  40  41
HETATM   41  C33 UNL     1       9.828  -6.421  29.899  1.00  0.00     0.002 C 
HETATM   42  C34 UNL     1      10.550  -5.035  29.861  1.00  0.00     0.013 C 
HETATM   43  C35 UNL     1      10.651  -7.190  30.903  1.00  0.00     0.013 C 
ENDBRANCH  40  41
ENDBRANCH  21  40
BRANCH  12  44
HETATM   44  C19 UNL     1       2.458  -9.173  25.403  1.00  0.00     0.049 C 
HETATM   45  C20 UNL     1       2.374  -9.366  26.867  1.00  0.00     0.017 C 
BRANCH  44  46
HETATM   46  C21 UNL     1       1.129  -8.747  24.909  1.00  0.00     0.007 C 
HETATM   47  C22 UNL     1       0.141  -9.860  25.299  1.00  0.00     0.006 C 
ENDBRANCH  44  46
ENDBRANCH  12  44
BRANCH  13  48
HETATM   48  O3  UNL     1       4.380 -10.263  23.880  1.00  0.00    -0.344 OA
ATOM     49  H3  UNL     1       4.629 -11.071  24.315  1.00  0.00     0.219 HD
ENDBRANCH  13  48
BRANCH  16  50
HETATM   50  C26 UNL     1       7.066 -10.724  26.592  1.00  0.00     0.012 C 
BRANCH  50  51
HETATM   51  C27 UNL     1       8.333 -11.415  26.437  1.00  0.00     0.002 C 
HETATM   52  C28 UNL     1       9.490 -10.842  27.203  1.00  0.00     0.013 C 
HETATM   53  C29 UNL     1       8.171 -12.863  26.965  1.00  0.00     0.013 C 
ENDBRANCH  50  51
ENDBRANCH  16  50
TORSDOF 17
ENDMDL
MODEL 4
REMARK VINA RESULT: -5.556245353      1.794      7.277
REMARK  17 active torsions:
REMARK  status: ('A' for Active; 'I' for Inactive)
REMARK    1  A    between atoms: C2_2  and  C3_3 
REMARK    2  A    between atoms: C3_3  and  C4_4 
REMARK    3  A    between atoms: C4_4  and  N1_5 
REMARK    4  A    between atoms: C7_9  and  C8_10 
REMARK    5  A    between atoms: C8_10  and  C9_11 
REMARK    6  A    between atoms: C9_11  and  C10_12 
REMARK    7  A    between atoms: C10_12  and  C11_13 
REMARK    8  A    between atoms: C11_13  and  N2_14 
REMARK    9  A    between atoms: C13_22  and  C14_23 
REMARK   10  A    between atoms: C14_23  and  C15_24 
REMARK   11  A    between atoms: C18_28  and  C19_29 
REMARK   12  A    between atoms: C19_29  and  C21_31 
REMARK   13  A    between atoms: C23_33  and  O3_34 
REMARK   14  A    between atoms: C25_38  and  C26_39 
REMARK   15  A    between atoms: C26_39  and  C27_40 
REMARK   16  A    between atoms: C31_47  and  C32_48 
REMARK   17  A    between atoms: C32_48  and  C33_49 
ROOT
HETATM    1  N1  UNL     1       5.881  -6.066  28.286  1.00  0.00    -0.340 N 
HETATM    2  C5  UNL     1       6.738  -7.030  27.671  1.00  0.00     0.206 C 
HETATM    3  C6  UNL     1       6.118  -8.119  26.893  1.00  0.00     0.167 C 
HETATM    4  O1  UNL     1       6.637  -8.394  25.805  1.00  0.00    -0.294 OA
HETATM    5  C7  UNL     1       4.947  -8.939  27.244  1.00  0.00     0.156 C 
HETATM    6  N3  UNL     1       3.667  -8.315  27.084  1.00  0.00    -0.347 N 
ATOM      7  H3  UNL     1       3.105  -8.313  27.935  1.00  0.00     0.163 HD
HETATM    8  C12 UNL     1       3.041  -7.716  26.006  1.00  0.00     0.254 C 
HETATM    9  O2  UNL     1       2.729  -6.497  26.111  1.00  0.00    -0.270 OA
HETATM   10  C13 UNL     1       2.649  -8.298  24.680  1.00  0.00     0.255 C 
HETATM   11  N4  UNL     1       2.912  -7.618  23.536  1.00  0.00    -0.433 NA
HETATM   12  C18 UNL     1       3.101  -6.806  22.655  1.00  0.00     0.133 C 
HETATM   13  C23 UNL     1       2.946  -5.332  22.700  1.00  0.00     0.180 C 
HETATM   14  N5  UNL     1       3.393  -4.313  23.532  1.00  0.00    -0.325 N 
HETATM   15  C24 UNL     1       2.273  -3.523  24.142  1.00  0.00     0.159 C 
HETATM   16  C25 UNL     1       4.727  -3.825  23.865  1.00  0.00     0.101 C 
HETATM   17  C30 UNL     1       5.690  -4.746  24.390  1.00  0.00     0.272 C 
HETATM   18  O4  UNL     1       5.843  -5.889  23.854  1.00  0.00    -0.266 OA
HETATM   19  N6  UNL     1       6.588  -4.586  25.512  1.00  0.00    -0.317 N 
ATOM     20  H6  UNL     1       7.533  -4.949  25.387  1.00  0.00     0.169 HD
HETATM   21  C31 UNL     1       6.313  -3.988  26.757  1.00  0.00     0.100 C 
HETATM   22  C36 UNL     1       5.503  -4.807  27.708  1.00  0.00     0.270 C 
HETATM   23  O5  UNL     1       4.342  -4.390  28.084  1.00  0.00    -0.266 OA
ENDROOT
BRANCH   5  24
HETATM   24  C8  UNL     1       5.019 -10.318  26.564  1.00  0.00     0.033 C 
BRANCH  24  25
HETATM   25  C9  UNL     1       3.737 -11.076  26.806  1.00  0.00     0.004 C 
BRANCH  25  26
HETATM   26  C10 UNL     1       3.439 -12.045  25.686  1.00  0.00     0.027 C 
BRANCH  26  27
HETATM   27  C11 UNL     1       3.067 -13.382  26.252  1.00  0.00     0.229 C 
BRANCH  27  28
HETATM   28  N2  UNL     1       1.621 -13.450  26.442  1.00  0.00    -0.079 N 
ATOM     29  H23 UNL     1       1.125 -13.604  25.564  1.00  0.00     0.274 HD
ATOM     30  H22 UNL     1       1.336 -14.303  26.924  1.00  0.00     0.274 HD
ATOM     31  H21 UNL     1       1.297 -12.611  26.923  1.00  0.00     0.274 HD
ENDBRANCH  27  28
ENDBRANCH  26  27
ENDBRANCH  25  26
ENDBRANCH  24  25
ENDBRANCH   5  24
BRANCH   1  32
HETATM   32  C4  UNL     1       5.301  -6.330  29.604  1.00  0.00     0.126 C 
BRANCH  32  33
HETATM   33  C3  UNL     1       6.120  -5.976  30.772  1.00  0.00     0.020 C 
BRANCH  33  34
HETATM   34  C2  UNL     1       7.295  -5.083  30.597  1.00  0.00    -0.003 C 
HETATM   35  C1  UNL     1       8.624  -5.833  30.512  1.00  0.00     0.005 C 
ENDBRANCH  33  34
ENDBRANCH  32  33
ENDBRANCH   1  32
BRANCH  10  36
HETATM   36  C14 UNL     1       1.142  -8.702  24.818  1.00  0.00     0.053 C 
BRANCH  36  37
HETATM   37  C15 UNL     1       0.729  -9.667  23.773  1.00  0.00    -0.019 C 
HETATM   38  C16 UNL     1      -0.433  -9.063  22.993  1.00  0.00     0.009 C 
HETATM   39  C17 UNL     1       0.083 -10.869  24.497  1.00  0.00     0.009 C 
ENDBRANCH  36  37
ENDBRANCH  10  36
BRANCH  21  40
HETATM   40  C32 UNL     1       7.345  -3.179  27.433  1.00  0.00     0.012 C 
BRANCH  40  41
HETATM   41  C33 UNL     1       8.446  -2.518  26.741  1.00  0.00     0.002 C 
HETATM   42  C34 UNL     1       9.757  -3.056  27.400  1.00  0.00     0.013 C 
HETATM   43  C35 UNL     1       8.550  -1.031  26.974  1.00  0.00     0.013 C 
ENDBRANCH  40  41
ENDBRANCH  21  40
BRANCH  12  44
HETATM   44  C19 UNL     1       3.484  -7.259  21.249  1.00  0.00     0.049 C 
HETATM   45  C20 UNL     1       4.889  -7.683  21.066  1.00  0.00     0.017 C 
BRANCH  44  46
HETATM   46  C21 UNL     1       2.602  -8.283  20.643  1.00  0.00     0.007 C 
HETATM   47  C22 UNL     1       3.389  -9.605  20.666  1.00  0.00     0.006 C 
ENDBRANCH  44  46
ENDBRANCH  12  44
BRANCH  13  48
HETATM   48  O3  UNL     1       2.185  -4.950  21.675  1.00  0.00    -0.344 OA
ATOM     49  H3  UNL     1       1.346  -5.392  21.738  1.00  0.00     0.219 HD
ENDBRANCH  13  48
BRANCH  16  50
HETATM   50  C26 UNL     1       5.170  -2.822  22.836  1.00  0.00     0.012 C 
BRANCH  50  51
HETATM   51  C27 UNL     1       5.226  -1.399  23.115  1.00  0.00     0.002 C 
HETATM   52  C28 UNL     1       4.063  -0.587  22.623  1.00  0.00     0.013 C 
HETATM   53  C29 UNL     1       5.239  -1.200  24.653  1.00  0.00     0.013 C 
ENDBRANCH  50  51
ENDBRANCH  16  50
TORSDOF 17
ENDMDL
MODEL 5
REMARK VINA RESULT: -5.495674627      3.217      7.530
REMARK  17 active torsions:
REMARK  status: ('A' for Active; 'I' for Inactive)
REMARK    1  A    between atoms: C2_2  and  C3_3 
REMARK    2  A    between atoms: C3_3  and  C4_4 
REMARK    3  A    between atoms: C4_4  and  N1_5 
REMARK    4  A    between atoms: C7_9  and  C8_10 
REMARK    5  A    between atoms: C8_10  and  C9_11 
REMARK    6  A    between atoms: C9_11  and  C10_12 
REMARK    7  A    between atoms: C10_12  and  C11_13 
REMARK    8  A    between atoms: C11_13  and  N2_14 
REMARK    9  A    between atoms: C13_22  and  C14_23 
REMARK   10  A    between atoms: C14_23  and  C15_24 
REMARK   11  A    between atoms: C18_28  and  C19_29 
REMARK   12  A    between atoms: C19_29  and  C21_31 
REMARK   13  A    between atoms: C23_33  and  O3_34 
REMARK   14  A    between atoms: C25_38  and  C26_39 
REMARK   15  A    between atoms: C26_39  and  C27_40 
REMARK   16  A    between atoms: C31_47  and  C32_48 
REMARK   17  A    between atoms: C32_48  and  C33_49 
ROOT
HETATM    1  N1  UNL     1       5.714  -3.450  26.394  1.00  0.00    -0.340 N 
HETATM    2  C5  UNL     1       4.810  -4.023  27.341  1.00  0.00     0.206 C 
HETATM    3  C6  UNL     1       3.397  -3.601  27.300  1.00  0.00     0.167 C 
HETATM    4  O1  UNL     1       2.545  -4.491  27.404  1.00  0.00    -0.294 OA
HETATM    5  C7  UNL     1       2.855  -2.240  27.154  1.00  0.00     0.156 C 
HETATM    6  N3  UNL     1       2.890  -1.684  25.834  1.00  0.00    -0.347 N 
ATOM      7  H3  UNL     1       3.382  -0.792  25.780  1.00  0.00     0.163 HD
HETATM    8  C12 UNL     1       2.390  -2.114  24.618  1.00  0.00     0.254 C 
HETATM    9  O2  UNL     1       3.214  -2.325  23.686  1.00  0.00    -0.270 OA
HETATM   10  C13 UNL     1       0.973  -2.377  24.204  1.00  0.00     0.255 C 
HETATM   11  N4  UNL     1       0.664  -3.505  23.516  1.00  0.00    -0.433 NA
HETATM   12  C18 UNL     1       0.617  -4.481  22.796  1.00  0.00     0.133 C 
HETATM   13  C23 UNL     1       1.602  -4.940  21.787  1.00  0.00     0.180 C 
HETATM   14  N5  UNL     1       2.970  -5.181  21.775  1.00  0.00    -0.325 N 
HETATM   15  C24 UNL     1       3.699  -4.354  20.757  1.00  0.00     0.159 C 
HETATM   16  C25 UNL     1       3.813  -6.122  22.504  1.00  0.00     0.101 C 
HETATM   17  C30 UNL     1       3.774  -6.122  23.935  1.00  0.00     0.272 C 
HETATM   18  O4  UNL     1       2.660  -6.082  24.546  1.00  0.00    -0.266 OA
HETATM   19  N6  UNL     1       4.870  -6.165  24.877  1.00  0.00    -0.317 N 
ATOM     20  H6  UNL     1       4.735  -6.757  25.696  1.00  0.00     0.169 HD
HETATM   21  C31 UNL     1       6.101  -5.485  24.798  1.00  0.00     0.100 C 
HETATM   22  C36 UNL     1       6.063  -4.029  25.127  1.00  0.00     0.270 C 
HETATM   23  O5  UNL     1       6.368  -3.159  24.225  1.00  0.00    -0.266 OA
ENDROOT
BRANCH   5  24
HETATM   24  C8  UNL     1       1.463  -2.132  27.802  1.00  0.00     0.033 C 
BRANCH  24  25
HETATM   25  C9  UNL     1       0.949  -0.718  27.678  1.00  0.00     0.004 C 
BRANCH  25  26
HETATM   26  C10 UNL     1      -0.554  -0.656  27.812  1.00  0.00     0.027 C 
BRANCH  26  27
HETATM   27  C11 UNL     1      -1.107  -2.035  28.010  1.00  0.00     0.229 C 
BRANCH  27  28
HETATM   28  N2  UNL     1      -1.926  -2.067  29.219  1.00  0.00    -0.079 N 
ATOM     29  H23 UNL     1      -1.440  -2.506  30.000  1.00  0.00     0.274 HD
ATOM     30  H22 UNL     1      -2.049  -1.139  29.624  1.00  0.00     0.274 HD
ATOM     31  H21 UNL     1      -2.818  -2.519  29.018  1.00  0.00     0.274 HD
ENDBRANCH  27  28
ENDBRANCH  26  27
ENDBRANCH  25  26
ENDBRANCH  24  25
ENDBRANCH   5  24
BRANCH   1  32
HETATM   32  C4  UNL     1       6.358  -2.165  26.675  1.00  0.00     0.126 C 
BRANCH  32  33
HETATM   33  C3  UNL     1       7.477  -2.178  27.627  1.00  0.00     0.020 C 
BRANCH  33  34
HETATM   34  C2  UNL     1       8.843  -1.835  27.152  1.00  0.00    -0.003 C 
HETATM   35  C1  UNL     1       9.909  -2.847  27.575  1.00  0.00     0.005 C 
ENDBRANCH  33  34
ENDBRANCH  32  33
ENDBRANCH   1  32
BRANCH  10  36
HETATM   36  C14 UNL     1       0.486  -1.073  23.488  1.00  0.00     0.053 C 
BRANCH  36  37
HETATM   37  C15 UNL     1      -0.434  -0.283  24.338  1.00  0.00    -0.019 C 
HETATM   38  C16 UNL     1      -1.824  -0.903  24.248  1.00  0.00     0.009 C 
HETATM   39  C17 UNL     1      -0.615   1.092  23.657  1.00  0.00     0.009 C 
ENDBRANCH  36  37
ENDBRANCH  10  36
BRANCH  21  40
HETATM   40  C32 UNL     1       7.340  -6.144  25.253  1.00  0.00     0.012 C 
BRANCH  40  41
HETATM   41  C33 UNL     1       8.178  -5.644  26.338  1.00  0.00     0.002 C 
HETATM   42  C34 UNL     1       9.600  -6.245  26.098  1.00  0.00     0.013 C 
HETATM   43  C35 UNL     1       7.830  -6.165  27.711  1.00  0.00     0.013 C 
ENDBRANCH  40  41
ENDBRANCH  21  40
BRANCH  12  44
HETATM   44  C19 UNL     1      -0.609  -5.388  22.796  1.00  0.00     0.049 C 
HETATM   45  C20 UNL     1      -0.397  -6.763  23.296  1.00  0.00     0.017 C 
BRANCH  44  46
HETATM   46  C21 UNL     1      -1.817  -4.833  23.448  1.00  0.00     0.007 C 
HETATM   47  C22 UNL     1      -2.982  -5.769  23.079  1.00  0.00     0.006 C 
ENDBRANCH  44  46
ENDBRANCH  12  44
BRANCH  13  48
HETATM   48  O3  UNL     1       0.966  -5.156  20.636  1.00  0.00    -0.344 OA
ATOM     49  H3  UNL     1       1.533  -4.893  19.921  1.00  0.00     0.219 HD
ENDBRANCH  13  48
BRANCH  16  50
HETATM   50  C26 UNL     1       3.841  -7.440  21.779  1.00  0.00     0.012 C 
BRANCH  50  51
HETATM   51  C27 UNL     1       5.083  -8.103  21.424  1.00  0.00     0.002 C 
HETATM   52  C28 UNL     1       6.299  -7.226  21.363  1.00  0.00     0.013 C 
HETATM   53  C29 UNL     1       5.400  -9.164  22.509  1.00  0.00     0.013 C 
ENDBRANCH  50  51
ENDBRANCH  16  50
TORSDOF 17
ENDMDL
