MODEL 1
REMARK VINA RESULT: -6.319313532      0.000      0.000
REMARK  3 active torsions:
REMARK  status: ('A' for Active; 'I' for Inactive)
REMARK    1  A    between atoms: N1_1  and  N2_4 
REMARK       I    between atoms: C1_6  and  N4_8 
REMARK    2  A    between atoms: N4_8  and  N5_10 
REMARK    3  A    between atoms: N5_10  and  C2_12 
ROOT
HETATM    1  N2  UNL     1      29.432  43.928  -5.602  1.00  0.00    -0.279 N 
ATOM      2  H2  UNL     1      29.465  43.497  -4.679  1.00  0.00     0.189 HD
HETATM    3  C1  UNL     1      29.356  45.195  -5.719  1.00  0.00     0.221 C 
HETATM    4  N3  UNL     1      29.309  45.799  -6.990  1.00  0.00    -0.061 NA
HETATM    5  N4  UNL     1      29.318  45.997  -4.558  1.00  0.00    -0.270 N 
ATOM      6  H4  UNL     1      30.109  46.595  -4.319  1.00  0.00     0.189 HD
ENDROOT
BRANCH   5   7
HETATM    7  N5  UNL     1      28.182  45.965  -3.736  1.00  0.00    -0.268 N 
ATOM      8  H5  UNL     1      27.302  45.620  -4.119  1.00  0.00     0.190 HD
BRANCH   7   9
HETATM    9  C2  UNL     1      28.225  46.402  -2.378  1.00  0.00     0.206 A 
HETATM   10  N6  UNL     1      27.957  45.766  -1.266  1.00  0.00    -0.279 N 
HETATM   11  C3  UNL     1      28.265  46.940  -0.517  1.00  0.00     0.329 A 
ATOM     12  H6  UNL     1      27.653  44.820  -1.032  1.00  0.00     0.173 HD
HETATM   13  O1  UNL     1      28.269  47.220   0.721  1.00  0.00    -0.246 OA
HETATM   14  N7  UNL     1      28.550  47.612  -1.724  1.00  0.00    -0.279 N 
ATOM     15  H7  UNL     1      28.853  48.547  -2.000  1.00  0.00     0.173 HD
ENDBRANCH   7   9
ENDBRANCH   5   7
BRANCH   1  16
HETATM   16  N1  UNL     1      29.468  43.143  -6.748  1.00  0.00    -0.343 N 
ATOM     17  H12 UNL     1      30.023  43.448  -7.548  1.00  0.00     0.176 HD
ATOM     18  H11 UNL     1      28.938  42.272  -6.771  1.00  0.00     0.176 HD
ENDBRANCH   1  16
TORSDOF 3
ENDMDL
MODEL 2
REMARK VINA RESULT: -6.209316421      2.767      4.422
REMARK  3 active torsions:
REMARK  status: ('A' for Active; 'I' for Inactive)
REMARK    1  A    between atoms: N1_1  and  N2_4 
REMARK       I    between atoms: C1_6  and  N4_8 
REMARK    2  A    between atoms: N4_8  and  N5_10 
REMARK    3  A    between atoms: N5_10  and  C2_12 
ROOT
HETATM    1  N2  UNL     1      27.792  45.568  -1.366  1.00  0.00    -0.279 N 
ATOM      2  H2  UNL     1      28.312  44.721  -1.596  1.00  0.00     0.189 HD
HETATM    3  C1  UNL     1      27.478  46.400  -2.279  1.00  0.00     0.221 C 
HETATM    4  N3  UNL     1      26.760  47.570  -1.970  1.00  0.00    -0.061 NA
HETATM    5  N4  UNL     1      27.857  46.140  -3.614  1.00  0.00    -0.270 N 
ATOM      6  H4  UNL     1      27.152  45.909  -4.314  1.00  0.00     0.189 HD
ENDROOT
BRANCH   5   7
HETATM    7  N5  UNL     1      29.212  46.200  -3.969  1.00  0.00    -0.268 N 
ATOM      8  H5  UNL     1      29.623  45.427  -4.492  1.00  0.00     0.190 HD
BRANCH   7   9
HETATM    9  C2  UNL     1      30.032  47.316  -3.619  1.00  0.00     0.206 A 
HETATM   10  N6  UNL     1      31.164  47.372  -2.965  1.00  0.00    -0.279 N 
HETATM   11  C3  UNL     1      31.182  48.791  -3.116  1.00  0.00     0.329 A 
ATOM     12  H6  UNL     1      31.779  46.685  -2.527  1.00  0.00     0.173 HD
HETATM   13  O1  UNL     1      31.984  49.705  -2.753  1.00  0.00    -0.246 OA
HETATM   14  N7  UNL     1      29.962  48.713  -3.819  1.00  0.00    -0.279 N 
ATOM     15  H7  UNL     1      29.321  49.367  -4.267  1.00  0.00     0.173 HD
ENDBRANCH   7   9
ENDBRANCH   5   7
BRANCH   1  16
HETATM   16  N1  UNL     1      27.418  45.829  -0.054  1.00  0.00    -0.343 N 
ATOM     17  H12 UNL     1      26.979  46.720   0.175  1.00  0.00     0.176 HD
ATOM     18  H11 UNL     1      27.588  45.122   0.662  1.00  0.00     0.176 HD
ENDBRANCH   1  16
TORSDOF 3
ENDMDL
MODEL 3
REMARK VINA RESULT: -6.208177121      1.598      1.605
REMARK  3 active torsions:
REMARK  status: ('A' for Active; 'I' for Inactive)
REMARK    1  A    between atoms: N1_1  and  N2_4 
REMARK       I    between atoms: C1_6  and  N4_8 
REMARK    2  A    between atoms: N4_8  and  N5_10 
REMARK    3  A    between atoms: N5_10  and  C2_12 
ROOT
HETATM    1  N2  UNL     1      29.544  43.974  -5.650  1.00  0.00    -0.279 N 
ATOM      2  H2  UNL     1      29.680  43.530  -4.742  1.00  0.00     0.189 HD
HETATM    3  C1  UNL     1      29.321  45.226  -5.729  1.00  0.00     0.221 C 
HETATM    4  N3  UNL     1      29.133  45.847  -6.978  1.00  0.00    -0.061 NA
HETATM    5  N4  UNL     1      29.261  45.995  -4.546  1.00  0.00    -0.270 N 
ATOM      6  H4  UNL     1      29.994  46.673  -4.335  1.00  0.00     0.189 HD
ENDROOT
BRANCH   5   7
HETATM    7  N5  UNL     1      28.187  45.818  -3.663  1.00  0.00    -0.268 N 
ATOM      8  H5  UNL     1      27.833  44.876  -3.494  1.00  0.00     0.190 HD
BRANCH   7   9
HETATM    9  C2  UNL     1      27.574  46.921  -2.995  1.00  0.00     0.206 A 
HETATM   10  N6  UNL     1      26.612  46.955  -2.108  1.00  0.00    -0.279 N 
HETATM   11  C3  UNL     1      26.706  48.377  -2.059  1.00  0.00     0.329 A 
ATOM     12  H6  UNL     1      26.033  46.253  -1.644  1.00  0.00     0.173 HD
HETATM   13  O1  UNL     1      26.092  49.279  -1.409  1.00  0.00    -0.246 OA
HETATM   14  N7  UNL     1      27.741  48.324  -3.015  1.00  0.00    -0.279 N 
ATOM     15  H7  UNL     1      28.338  48.993  -3.501  1.00  0.00     0.173 HD
ENDBRANCH   7   9
ENDBRANCH   5   7
BRANCH   1  16
HETATM   16  N1  UNL     1      29.600  43.221  -6.817  1.00  0.00    -0.343 N 
ATOM     17  H12 UNL     1      29.371  43.660  -7.708  1.00  0.00     0.176 HD
ATOM     18  H11 UNL     1      29.872  42.239  -6.763  1.00  0.00     0.176 HD
ENDBRANCH   1  16
TORSDOF 3
ENDMDL
MODEL 4
REMARK VINA RESULT: -6.194757424      3.218      4.602
REMARK  3 active torsions:
REMARK  status: ('A' for Active; 'I' for Inactive)
REMARK    1  A    between atoms: N1_1  and  N2_4 
REMARK       I    between atoms: C1_6  and  N4_8 
REMARK    2  A    between atoms: N4_8  and  N5_10 
REMARK    3  A    between atoms: N5_10  and  C2_12 
ROOT
HETATM    1  N2  UNL     1      31.217  49.144  -3.271  1.00  0.00    -0.279 N 
ATOM      2  H2  UNL     1      31.222  48.807  -4.233  1.00  0.00     0.189 HD
HETATM    3  C1  UNL     1      30.810  48.392  -2.326  1.00  0.00     0.221 C 
HETATM    4  N3  UNL     1      30.800  48.850  -0.995  1.00  0.00    -0.061 NA
HETATM    5  N4  UNL     1      30.364  47.086  -2.623  1.00  0.00    -0.270 N 
ATOM      6  H4  UNL     1      30.908  46.276  -2.326  1.00  0.00     0.189 HD
ENDROOT
BRANCH   5   7
HETATM    7  N5  UNL     1      29.166  46.912  -3.332  1.00  0.00    -0.268 N 
ATOM      8  H5  UNL     1      29.126  46.213  -4.074  1.00  0.00     0.190 HD
BRANCH   7   9
HETATM    9  C2  UNL     1      28.003  47.687  -3.043  1.00  0.00     0.206 A 
HETATM   10  N6  UNL     1      26.895  47.366  -2.424  1.00  0.00    -0.279 N 
HETATM   11  C3  UNL     1      26.399  48.689  -2.623  1.00  0.00     0.329 A 
ATOM     12  H6  UNL     1      26.534  46.519  -1.982  1.00  0.00     0.173 HD
HETATM   13  O1  UNL     1      25.320  49.281  -2.314  1.00  0.00    -0.246 OA
HETATM   14  N7  UNL     1      27.599  49.019  -3.287  1.00  0.00    -0.279 N 
ATOM     15  H7  UNL     1      27.995  49.843  -3.739  1.00  0.00     0.173 HD
ENDBRANCH   7   9
ENDBRANCH   5   7
BRANCH   1  16
HETATM   16  N1  UNL     1      31.654  50.429  -2.973  1.00  0.00    -0.343 N 
ATOM     17  H12 UNL     1      31.839  51.084  -3.732  1.00  0.00     0.176 HD
ATOM     18  H11 UNL     1      31.782  50.697  -1.997  1.00  0.00     0.176 HD
ENDBRANCH   1  16
TORSDOF 3
ENDMDL
MODEL 5
REMARK VINA RESULT: -6.162159435      1.142      1.151
REMARK  3 active torsions:
REMARK  status: ('A' for Active; 'I' for Inactive)
REMARK    1  A    between atoms: N1_1  and  N2_4 
REMARK       I    between atoms: C1_6  and  N4_8 
REMARK    2  A    between atoms: N4_8  and  N5_10 
REMARK    3  A    between atoms: N5_10  and  C2_12 
ROOT
HETATM    1  N2  UNL     1      29.160  43.343  -5.785  1.00  0.00    -0.279 N 
ATOM      2  H2  UNL     1      29.136  43.053  -4.808  1.00  0.00     0.189 HD
HETATM    3  C1  UNL     1      29.376  44.561  -6.091  1.00  0.00     0.221 C 
HETATM    4  N3  UNL     1      29.411  44.969  -7.438  1.00  0.00    -0.061 NA
HETATM    5  N4  UNL     1      29.580  45.508  -5.064  1.00  0.00    -0.270 N 
ATOM      6  H4  UNL     1      30.500  45.928  -4.926  1.00  0.00     0.189 HD
ENDROOT
BRANCH   5   7
HETATM    7  N5  UNL     1      28.509  45.864  -4.233  1.00  0.00    -0.268 N 
ATOM      8  H5  UNL     1      27.584  45.478  -4.422  1.00  0.00     0.190 HD
BRANCH   7   9
HETATM    9  C2  UNL     1      28.677  46.754  -3.129  1.00  0.00     0.206 A 
HETATM   10  N6  UNL     1      28.695  46.524  -1.841  1.00  0.00    -0.279 N 
HETATM   11  C3  UNL     1      28.901  47.914  -1.594  1.00  0.00     0.329 A 
ATOM     12  H6  UNL     1      28.600  45.693  -1.255  1.00  0.00     0.173 HD
HETATM   13  O1  UNL     1      29.040  48.610  -0.542  1.00  0.00    -0.246 OA
HETATM   14  N7  UNL     1      28.879  48.145  -2.984  1.00  0.00    -0.279 N 
ATOM     15  H7  UNL     1      28.968  48.950  -3.605  1.00  0.00     0.173 HD
ENDBRANCH   7   9
ENDBRANCH   5   7
BRANCH   1  16
HETATM   16  N1  UNL     1      28.959  42.415  -6.799  1.00  0.00    -0.343 N 
ATOM     17  H12 UNL     1      28.197  41.741  -6.719  1.00  0.00     0.176 HD
ATOM     18  H11 UNL     1      29.577  42.423  -7.611  1.00  0.00     0.176 HD
ENDBRANCH   1  16
TORSDOF 3
ENDMDL
