MODEL 1
REMARK VINA RESULT: -5.659005736      0.000      0.000
REMARK  2 active torsions:
REMARK  status: ('A' for Active; 'I' for Inactive)
REMARK       I    between atoms: C2_4  and  N3_6 
REMARK    1  A    between atoms: N3_6  and  N4_8 
REMARK       I    between atoms: N4_8  and  C3_10 
REMARK    2  A    between atoms: C3_10  and  C4_12 
ROOT
HETATM    1  C1  UNL     1      29.723  45.590  -6.131  1.00  0.00     0.148 C 
HETATM    2  N1  UNL     1      29.662  46.948  -5.717  1.00  0.00    -0.368 N 
ATOM      3  H1  UNL     1      29.580  47.636  -6.465  1.00  0.00     0.161 HD
HETATM    4  C2  UNL     1      29.695  47.413  -4.541  1.00  0.00     0.202 C 
HETATM    5  N2  UNL     1      29.615  48.845  -4.389  1.00  0.00    -0.062 NA
HETATM    6  N3  UNL     1      29.804  46.675  -3.345  1.00  0.00    -0.271 N 
ATOM      7  H3  UNL     1      30.616  46.068  -3.229  1.00  0.00     0.189 HD
ENDROOT
BRANCH   6   8
HETATM    8  N4  UNL     1      28.870  46.725  -2.314  1.00  0.00    -0.260 N 
HETATM    9  C3  UNL     1      29.083  47.453  -1.108  1.00  0.00     0.325 C 
HETATM   10  O1  UNL     1      30.172  48.070  -0.994  1.00  0.00    -0.261 OA
ATOM     11  H4  UNL     1      27.993  46.217  -2.426  1.00  0.00     0.190 HD
BRANCH   9  12
HETATM   12  C4  UNL     1      28.134  47.516  -0.034  1.00  0.00     0.324 C 
HETATM   13  N5  UNL     1      27.524  48.738   0.314  1.00  0.00    -0.053 NA
HETATM   14  O2  UNL     1      27.845  46.475   0.595  1.00  0.00    -0.266 OA
ENDBRANCH   9  12
ENDBRANCH   6   8
TORSDOF 2
ENDMDL
MODEL 2
REMARK VINA RESULT: -5.583979076      2.654      4.734
REMARK  2 active torsions:
REMARK  status: ('A' for Active; 'I' for Inactive)
REMARK       I    between atoms: C2_4  and  N3_6 
REMARK    1  A    between atoms: N3_6  and  N4_8 
REMARK       I    between atoms: N4_8  and  C3_10 
REMARK    2  A    between atoms: C3_10  and  C4_12 
ROOT
HETATM    1  C1  UNL     1      26.340  47.195  -1.772  1.00  0.00     0.148 C 
HETATM    2  N1  UNL     1      27.282  46.788  -0.790  1.00  0.00    -0.368 N 
ATOM      3  H1  UNL     1      27.073  45.913  -0.310  1.00  0.00     0.161 HD
HETATM    4  C2  UNL     1      28.347  47.371  -0.433  1.00  0.00     0.202 C 
HETATM    5  N2  UNL     1      29.137  46.743   0.598  1.00  0.00    -0.062 NA
HETATM    6  N3  UNL     1      28.853  48.586  -0.939  1.00  0.00    -0.271 N 
ATOM      7  H3  UNL     1      28.263  49.416  -0.871  1.00  0.00     0.189 HD
ENDROOT
BRANCH   6   8
HETATM    8  N4  UNL     1      30.108  48.720  -1.525  1.00  0.00    -0.260 N 
HETATM    9  C3  UNL     1      30.480  48.050  -2.726  1.00  0.00     0.325 C 
HETATM   10  O1  UNL     1      29.617  47.310  -3.262  1.00  0.00    -0.261 OA
ATOM     11  H4  UNL     1      30.794  49.326  -1.074  1.00  0.00     0.190 HD
BRANCH   9  12
HETATM   12  C4  UNL     1      31.768  48.175  -3.345  1.00  0.00     0.324 C 
HETATM   13  N5  UNL     1      31.898  48.137  -4.748  1.00  0.00    -0.053 NA
HETATM   14  O2  UNL     1      32.784  48.320  -2.631  1.00  0.00    -0.266 OA
ENDBRANCH   9  12
ENDBRANCH   6   8
TORSDOF 2
ENDMDL
MODEL 3
REMARK VINA RESULT: -5.547413668      2.550      5.054
REMARK  2 active torsions:
REMARK  status: ('A' for Active; 'I' for Inactive)
REMARK       I    between atoms: C2_4  and  N3_6 
REMARK    1  A    between atoms: N3_6  and  N4_8 
REMARK       I    between atoms: N4_8  and  C3_10 
REMARK    2  A    between atoms: C3_10  and  C4_12 
ROOT
HETATM    1  C1  UNL     1      27.579  46.536  -0.142  1.00  0.00     0.148 C 
HETATM    2  N1  UNL     1      28.803  47.253  -0.209  1.00  0.00    -0.368 N 
ATOM      3  H1  UNL     1      29.395  47.200   0.620  1.00  0.00     0.161 HD
HETATM    4  C2  UNL     1      29.254  47.950  -1.164  1.00  0.00     0.202 C 
HETATM    5  N2  UNL     1      30.537  48.583  -0.978  1.00  0.00    -0.062 NA
HETATM    6  N3  UNL     1      28.631  48.181  -2.407  1.00  0.00    -0.271 N 
ATOM      7  H3  UNL     1      27.705  48.609  -2.407  1.00  0.00     0.189 HD
ENDROOT
BRANCH   6   8
HETATM    8  N4  UNL     1      29.204  47.859  -3.634  1.00  0.00    -0.260 N 
HETATM    9  C3  UNL     1      28.800  46.734  -4.409  1.00  0.00     0.325 C 
HETATM   10  O1  UNL     1      27.881  46.015  -3.942  1.00  0.00    -0.261 OA
ATOM     11  H4  UNL     1      29.949  48.456  -3.996  1.00  0.00     0.190 HD
BRANCH   9  12
HETATM   12  C4  UNL     1      29.378  46.385  -5.675  1.00  0.00     0.324 C 
HETATM   13  N5  UNL     1      29.356  45.052  -6.132  1.00  0.00    -0.053 NA
HETATM   14  O2  UNL     1      29.906  47.275  -6.378  1.00  0.00    -0.266 OA
ENDBRANCH   9  12
ENDBRANCH   6   8
TORSDOF 2
ENDMDL
MODEL 4
REMARK VINA RESULT: -5.539837345      1.164      1.164
REMARK  2 active torsions:
REMARK  status: ('A' for Active; 'I' for Inactive)
REMARK       I    between atoms: C2_4  and  N3_6 
REMARK    1  A    between atoms: N3_6  and  N4_8 
REMARK       I    between atoms: N4_8  and  C3_10 
REMARK    2  A    between atoms: C3_10  and  C4_12 
ROOT
HETATM    1  C1  UNL     1      29.324  45.447  -5.601  1.00  0.00     0.148 C 
HETATM    2  N1  UNL     1      29.421  46.853  -5.419  1.00  0.00    -0.368 N 
ATOM      3  H1  UNL     1      29.091  47.425  -6.196  1.00  0.00     0.161 HD
HETATM    4  C2  UNL     1      29.863  47.487  -4.417  1.00  0.00     0.202 C 
HETATM    5  N2  UNL     1      29.852  48.928  -4.483  1.00  0.00    -0.062 NA
HETATM    6  N3  UNL     1      30.374  46.931  -3.226  1.00  0.00    -0.271 N 
ATOM      7  H3  UNL     1      31.170  46.298  -3.296  1.00  0.00     0.189 HD
ENDROOT
BRANCH   6   8
HETATM    8  N4  UNL     1      29.855  47.196  -1.961  1.00  0.00    -0.260 N 
HETATM    9  C3  UNL     1      28.534  46.834  -1.572  1.00  0.00     0.325 C 
HETATM   10  O1  UNL     1      27.823  46.249  -2.428  1.00  0.00    -0.261 OA
ATOM     11  H4  UNL     1      30.450  47.671  -1.282  1.00  0.00     0.190 HD
BRANCH   9  12
HETATM   12  C4  UNL     1      27.982  47.099  -0.275  1.00  0.00     0.324 C 
HETATM   13  N5  UNL     1      27.842  48.422   0.190  1.00  0.00    -0.053 NA
HETATM   14  O2  UNL     1      27.621  46.144   0.448  1.00  0.00    -0.266 OA
ENDBRANCH   9  12
ENDBRANCH   6   8
TORSDOF 2
ENDMDL
MODEL 5
REMARK VINA RESULT: -5.501048367      1.825      2.393
REMARK  2 active torsions:
REMARK  status: ('A' for Active; 'I' for Inactive)
REMARK       I    between atoms: C2_4  and  N3_6 
REMARK    1  A    between atoms: N3_6  and  N4_8 
REMARK       I    between atoms: N4_8  and  C3_10 
REMARK    2  A    between atoms: C3_10  and  C4_12 
ROOT
HETATM    1  C1  UNL     1      30.960  49.979  -5.379  1.00  0.00     0.148 C 
HETATM    2  N1  UNL     1      30.567  48.616  -5.328  1.00  0.00    -0.368 N 
ATOM      3  H1  UNL     1      31.011  48.000  -6.010  1.00  0.00     0.161 HD
HETATM    4  C2  UNL     1      29.736  48.066  -4.548  1.00  0.00     0.202 C 
HETATM    5  N2  UNL     1      29.512  46.649  -4.705  1.00  0.00    -0.062 NA
HETATM    6  N3  UNL     1      28.993  48.694  -3.529  1.00  0.00    -0.271 N 
ATOM      7  H3  UNL     1      28.380  49.467  -3.789  1.00  0.00     0.189 HD
ENDROOT
BRANCH   6   8
HETATM    8  N4  UNL     1      29.047  48.323  -2.188  1.00  0.00    -0.260 N 
HETATM    9  C3  UNL     1      28.056  47.510  -1.567  1.00  0.00     0.325 C 
HETATM   10  O1  UNL     1      27.099  47.122  -2.284  1.00  0.00    -0.261 OA
ATOM     11  H4  UNL     1      29.832  48.649  -1.624  1.00  0.00     0.190 HD
BRANCH   9  12
HETATM   12  C4  UNL     1      28.093  47.118  -0.187  1.00  0.00     0.324 C 
HETATM   13  N5  UNL     1      28.203  45.759   0.170  1.00  0.00    -0.053 NA
HETATM   14  O2  UNL     1      28.029  47.992   0.704  1.00  0.00    -0.266 OA
ENDBRANCH   9  12
ENDBRANCH   6   8
TORSDOF 2
ENDMDL
