MODEL 1
REMARK VINA RESULT: -7.220227195      0.000      0.000
REMARK  1 active torsions:
REMARK  status: ('A' for Active; 'I' for Inactive)
REMARK       I    between atoms: N1_1  and  C1_5 
REMARK       I    between atoms: C1_5  and  N2_6 
REMARK       I    between atoms: C1_5  and  N3_10 
REMARK    1  A    between atoms: N3_10  and  C2_12 
ROOT
HETATM    1  C2  UNL     1      28.402  46.799  -2.880  1.00  0.00     0.689 A 
HETATM    2  N4  UNL     1      27.931  45.998  -1.914  1.00  0.00    -0.141 N 
ATOM      3  H4  UNL     1      27.245  45.278  -2.139  1.00  0.00     0.189 HD
HETATM    4  C3  UNL     1      28.368  46.146  -0.628  1.00  0.00     0.342 A 
HETATM    5  O1  UNL     1      27.928  45.393   0.292  1.00  0.00    -0.246 OA
HETATM    6  N5  UNL     1      29.271  47.091  -0.315  1.00  0.00    -0.260 N 
ATOM      7  H5  UNL     1      29.593  47.195   0.647  1.00  0.00     0.175 HD
HETATM    8  C4  UNL     1      29.748  47.898  -1.280  1.00  0.00     0.342 A 
HETATM    9  O2  UNL     1      30.603  48.793  -0.985  1.00  0.00    -0.246 OA
HETATM   10  N6  UNL     1      29.302  47.729  -2.524  1.00  0.00    -0.141 N 
ATOM     11  H6  UNL     1      29.666  48.345  -3.250  1.00  0.00     0.189 HD
ENDROOT
BRANCH   1  12
HETATM   12  N3  UNL     1      27.997  46.665  -4.083  1.00  0.00    -0.173 N 
HETATM   13  C1  UNL     1      28.749  46.341  -5.243  1.00  0.00     0.494 C 
HETATM   14  N1  UNL     1      29.794  47.294  -5.573  1.00  0.00    -0.032 N 
HETATM   15  N2  UNL     1      29.298  44.986  -5.084  1.00  0.00    -0.032 N 
ATOM     16  H13 UNL     1      30.550  47.273  -4.889  1.00  0.00     0.278 HD
ATOM     17  H12 UNL     1      30.321  47.003  -6.397  1.00  0.00     0.278 HD
ATOM     18  H11 UNL     1      29.413  48.233  -5.683  1.00  0.00     0.278 HD
ATOM     19  H23 UNL     1      29.825  44.695  -5.909  1.00  0.00     0.278 HD
ATOM     20  H22 UNL     1      30.055  44.965  -4.401  1.00  0.00     0.278 HD
ATOM     21  H21 UNL     1      28.564  44.316  -4.853  1.00  0.00     0.278 HD
ATOM     22  H3  UNL     1      26.998  46.812  -4.231  1.00  0.00     0.181 HD
ENDBRANCH   1  12
TORSDOF 1
ENDMDL
MODEL 2
REMARK VINA RESULT: -7.141286052      0.025      2.273
REMARK  1 active torsions:
REMARK  status: ('A' for Active; 'I' for Inactive)
REMARK       I    between atoms: N1_1  and  C1_5 
REMARK       I    between atoms: C1_5  and  N2_6 
REMARK       I    between atoms: C1_5  and  N3_10 
REMARK    1  A    between atoms: N3_10  and  C2_12 
ROOT
HETATM    1  C2  UNL     1      28.405  46.803  -2.884  1.00  0.00     0.689 A 
HETATM    2  N4  UNL     1      29.305  47.747  -2.576  1.00  0.00    -0.141 N 
ATOM      3  H4  UNL     1      29.667  48.363  -3.304  1.00  0.00     0.189 HD
HETATM    4  C3  UNL     1      29.737  47.889  -1.287  1.00  0.00     0.342 A 
HETATM    5  O1  UNL     1      30.586  48.779  -0.987  1.00  0.00    -0.246 OA
HETATM    6  N5  UNL     1      29.269  47.086  -0.316  1.00  0.00    -0.260 N 
ATOM      7  H5  UNL     1      29.596  47.197   0.644  1.00  0.00     0.175 HD
HETATM    8  C4  UNL     1      28.366  46.135  -0.618  1.00  0.00     0.342 A 
HETATM    9  O2  UNL     1      27.922  45.375   0.300  1.00  0.00    -0.246 OA
HETATM   10  N6  UNL     1      27.965  46.023  -1.884  1.00  0.00    -0.141 N 
ATOM     11  H6  UNL     1      27.281  45.300  -2.106  1.00  0.00     0.189 HD
ENDROOT
BRANCH   1  12
HETATM   12  N3  UNL     1      27.998  46.667  -4.086  1.00  0.00    -0.173 N 
HETATM   13  C1  UNL     1      28.747  46.336  -5.246  1.00  0.00     0.494 C 
HETATM   14  N1  UNL     1      29.796  47.283  -5.579  1.00  0.00    -0.032 N 
HETATM   15  N2  UNL     1      29.291  44.979  -5.084  1.00  0.00    -0.032 N 
ATOM     16  H13 UNL     1      30.553  47.261  -4.896  1.00  0.00     0.278 HD
ATOM     17  H12 UNL     1      30.321  46.988  -6.403  1.00  0.00     0.278 HD
ATOM     18  H11 UNL     1      29.419  48.224  -5.691  1.00  0.00     0.278 HD
ATOM     19  H23 UNL     1      29.816  44.684  -5.908  1.00  0.00     0.278 HD
ATOM     20  H22 UNL     1      30.048  44.957  -4.401  1.00  0.00     0.278 HD
ATOM     21  H21 UNL     1      28.554  44.313  -4.849  1.00  0.00     0.278 HD
ATOM     22  H3  UNL     1      27.000  46.817  -4.234  1.00  0.00     0.181 HD
ENDBRANCH   1  12
TORSDOF 1
ENDMDL
MODEL 3
REMARK VINA RESULT: -7.114607825      2.185      2.675
REMARK  1 active torsions:
REMARK  status: ('A' for Active; 'I' for Inactive)
REMARK       I    between atoms: N1_1  and  C1_5 
REMARK       I    between atoms: C1_5  and  N2_6 
REMARK       I    between atoms: C1_5  and  N3_10 
REMARK    1  A    between atoms: N3_10  and  C2_12 
ROOT
HETATM    1  C2  UNL     1      29.415  47.958  -1.608  1.00  0.00     0.689 A 
HETATM    2  N4  UNL     1      29.349  46.786  -0.959  1.00  0.00    -0.141 N 
ATOM      3  H4  UNL     1      30.156  46.161  -0.953  1.00  0.00     0.189 HD
HETATM    4  C3  UNL     1      28.204  46.428  -0.306  1.00  0.00     0.342 A 
HETATM    5  O1  UNL     1      28.133  45.323   0.310  1.00  0.00    -0.246 OA
HETATM    6  N5  UNL     1      27.133  47.240  -0.305  1.00  0.00    -0.260 N 
ATOM      7  H5  UNL     1      26.281  46.966   0.185  1.00  0.00     0.175 HD
HETATM    8  C4  UNL     1      27.192  48.416  -0.954  1.00  0.00     0.342 A 
HETATM    9  O2  UNL     1      26.178  49.186  -0.954  1.00  0.00    -0.246 OA
HETATM   10  N6  UNL     1      28.323  48.737  -1.582  1.00  0.00    -0.141 N 
ATOM     11  H6  UNL     1      28.360  49.630  -2.073  1.00  0.00     0.189 HD
ENDROOT
BRANCH   1  12
HETATM   12  N3  UNL     1      30.483  48.297  -2.219  1.00  0.00    -0.173 N 
HETATM   13  C1  UNL     1      30.764  48.249  -3.610  1.00  0.00     0.494 C 
HETATM   14  N1  UNL     1      30.709  46.920  -4.192  1.00  0.00    -0.032 N 
HETATM   15  N2  UNL     1      29.854  49.171  -4.307  1.00  0.00    -0.032 N 
ATOM     16  H13 UNL     1      29.755  46.560  -4.217  1.00  0.00     0.278 HD
ATOM     17  H12 UNL     1      30.892  46.942  -5.196  1.00  0.00     0.278 HD
ATOM     18  H11 UNL     1      31.339  46.280  -3.709  1.00  0.00     0.278 HD
ATOM     19  H23 UNL     1      30.038  49.193  -5.311  1.00  0.00     0.278 HD
ATOM     20  H22 UNL     1      28.900  48.811  -4.331  1.00  0.00     0.278 HD
ATOM     21  H21 UNL     1      29.893  50.105  -3.898  1.00  0.00     0.278 HD
ATOM     22  H3  UNL     1      31.236  48.651  -1.629  1.00  0.00     0.181 HD
ENDBRANCH   1  12
TORSDOF 1
ENDMDL
MODEL 4
REMARK VINA RESULT: -7.048018628      2.165      3.080
REMARK  1 active torsions:
REMARK  status: ('A' for Active; 'I' for Inactive)
REMARK       I    between atoms: N1_1  and  C1_5 
REMARK       I    between atoms: C1_5  and  N2_6 
REMARK       I    between atoms: C1_5  and  N3_10 
REMARK    1  A    between atoms: N3_10  and  C2_12 
ROOT
HETATM    1  C2  UNL     1      29.409  47.917  -1.614  1.00  0.00     0.689 A 
HETATM    2  N4  UNL     1      28.346  48.733  -1.599  1.00  0.00    -0.141 N 
ATOM      3  H4  UNL     1      28.387  49.633  -2.078  1.00  0.00     0.189 HD
HETATM    4  C3  UNL     1      27.206  48.361  -0.944  1.00  0.00     0.342 A 
HETATM    5  O1  UNL     1      26.196  49.126  -0.925  1.00  0.00    -0.246 OA
HETATM    6  N5  UNL     1      27.136  47.179  -0.307  1.00  0.00    -0.260 N 
ATOM      7  H5  UNL     1      26.281  46.908   0.180  1.00  0.00     0.175 HD
HETATM    8  C4  UNL     1      28.199  46.356  -0.318  1.00  0.00     0.342 A 
HETATM    9  O2  UNL     1      28.134  45.237   0.284  1.00  0.00    -0.246 OA
HETATM   10  N6  UNL     1      29.296  46.747  -0.966  1.00  0.00    -0.141 N 
ATOM     11  H6  UNL     1      30.099  46.119  -0.969  1.00  0.00     0.189 HD
ENDROOT
BRANCH   1  12
HETATM   12  N3  UNL     1      30.476  48.259  -2.225  1.00  0.00    -0.173 N 
HETATM   13  C1  UNL     1      30.754  48.222  -3.616  1.00  0.00     0.494 C 
HETATM   14  N1  UNL     1      30.694  46.899  -4.211  1.00  0.00    -0.032 N 
HETATM   15  N2  UNL     1      29.845  49.152  -4.303  1.00  0.00    -0.032 N 
ATOM     16  H13 UNL     1      29.740  46.541  -4.235  1.00  0.00     0.278 HD
ATOM     17  H12 UNL     1      30.876  46.929  -5.214  1.00  0.00     0.278 HD
ATOM     18  H11 UNL     1      31.325  46.254  -3.735  1.00  0.00     0.278 HD
ATOM     19  H23 UNL     1      30.026  49.183  -5.307  1.00  0.00     0.278 HD
ATOM     20  H22 UNL     1      28.890  48.795  -4.328  1.00  0.00     0.278 HD
ATOM     21  H21 UNL     1      29.887  50.083  -3.886  1.00  0.00     0.278 HD
ATOM     22  H3  UNL     1      31.232  48.606  -1.633  1.00  0.00     0.181 HD
ENDBRANCH   1  12
TORSDOF 1
ENDMDL
MODEL 5
REMARK VINA RESULT: -6.844865614      1.776      2.395
REMARK  1 active torsions:
REMARK  status: ('A' for Active; 'I' for Inactive)
REMARK       I    between atoms: N1_1  and  C1_5 
REMARK       I    between atoms: C1_5  and  N2_6 
REMARK       I    between atoms: C1_5  and  N3_10 
REMARK    1  A    between atoms: N3_10  and  C2_12 
ROOT
HETATM    1  C2  UNL     1      27.636  46.873  -3.155  1.00  0.00     0.689 A 
HETATM    2  N4  UNL     1      27.021  47.997  -2.759  1.00  0.00    -0.141 N 
ATOM      3  H4  UNL     1      26.702  48.674  -3.452  1.00  0.00     0.189 HD
HETATM    4  C3  UNL     1      26.820  48.237  -1.429  1.00  0.00     0.342 A 
HETATM    5  O1  UNL     1      26.240  49.295  -1.046  1.00  0.00    -0.246 OA
HETATM    6  N5  UNL     1      27.236  47.355  -0.504  1.00  0.00    -0.260 N 
ATOM      7  H5  UNL     1      27.082  47.540   0.488  1.00  0.00     0.175 HD
HETATM    8  C4  UNL     1      27.854  46.225  -0.894  1.00  0.00     0.342 A 
HETATM    9  O2  UNL     1      28.248  45.390  -0.019  1.00  0.00    -0.246 OA
HETATM   10  N6  UNL     1      28.035  46.021  -2.198  1.00  0.00    -0.141 N 
ATOM     11  H6  UNL     1      28.505  45.164  -2.487  1.00  0.00     0.189 HD
ENDROOT
BRANCH   1  12
HETATM   12  N3  UNL     1      27.826  46.645  -4.396  1.00  0.00    -0.173 N 
HETATM   13  C1  UNL     1      29.044  46.652  -5.125  1.00  0.00     0.494 C 
HETATM   14  N1  UNL     1      29.740  47.926  -5.129  1.00  0.00    -0.032 N 
HETATM   15  N2  UNL     1      29.908  45.579  -4.609  1.00  0.00    -0.032 N 
ATOM     16  H13 UNL     1      30.112  48.154  -4.208  1.00  0.00     0.278 HD
ATOM     17  H12 UNL     1      30.620  47.872  -5.643  1.00  0.00     0.278 HD
ATOM     18  H11 UNL     1      29.141  48.670  -5.487  1.00  0.00     0.278 HD
ATOM     19  H23 UNL     1      30.788  45.525  -5.123  1.00  0.00     0.278 HD
ATOM     20  H22 UNL     1      30.280  45.807  -3.687  1.00  0.00     0.278 HD
ATOM     21  H21 UNL     1      29.419  44.683  -4.606  1.00  0.00     0.278 HD
ATOM     22  H3  UNL     1      26.989  46.429  -4.937  1.00  0.00     0.181 HD
ENDBRANCH   1  12
TORSDOF 1
ENDMDL
