MODEL 1
REMARK VINA RESULT: -6.407546612      0.000      0.000
REMARK  3 active torsions:
REMARK  status: ('A' for Active; 'I' for Inactive)
REMARK    1  A    between atoms: N1_1  and  N2_4 
REMARK       I    between atoms: C1_6  and  N4_8 
REMARK    2  A    between atoms: N4_8  and  C2_10 
REMARK    3  A    between atoms: N6_13  and  O1_14 
ROOT
HETATM    1  C2  UNL     1      27.992  46.741  -2.506  1.00  0.00     0.718 A 
HETATM    2  N5  UNL     1      27.659  46.462  -3.769  1.00  0.00    -0.087 N 
ATOM      3  H5  UNL     1      26.715  46.327  -4.131  1.00  0.00     0.210 HD
HETATM    4  N6  UNL     1      28.782  46.392  -4.460  1.00  0.00    -0.065 N 
HETATM    5  N7  UNL     1      29.815  46.621  -3.673  1.00  0.00    -0.186 N 
ATOM      6  H7  UNL     1      30.798  46.629  -3.943  1.00  0.00     0.213 HD
HETATM    7  N8  UNL     1      29.324  46.836  -2.468  1.00  0.00    -0.113 N 
ATOM      8  H8  UNL     1      29.877  47.042  -1.636  1.00  0.00     0.207 HD
ENDROOT
BRANCH   1   9
HETATM    9  N4  UNL     1      27.239  46.906  -1.463  1.00  0.00    -0.159 N 
HETATM   10  C1  UNL     1      27.532  47.880  -0.467  1.00  0.00     0.221 C 
HETATM   11  N2  UNL     1      27.183  49.105  -0.528  1.00  0.00    -0.280 N 
HETATM   12  N3  UNL     1      28.263  47.423   0.664  1.00  0.00    -0.061 NA
ATOM     13  H2  UNL     1      27.424  49.753   0.222  1.00  0.00     0.189 HD
ATOM     14  H4  UNL     1      26.412  46.321  -1.354  1.00  0.00     0.187 HD
BRANCH  11  15
HETATM   15  N1  UNL     1      26.464  49.540  -1.647  1.00  0.00    -0.343 N 
ATOM     16  H12 UNL     1      26.150  48.864  -2.342  1.00  0.00     0.176 HD
ATOM     17  H11 UNL     1      26.268  50.537  -1.742  1.00  0.00     0.176 HD
ENDBRANCH  11  15
ENDBRANCH   1   9
BRANCH   4  18
HETATM   18  O1  UNL     1      28.919  46.123  -5.818  1.00  0.00    -0.252 OA
ATOM     19  H1  UNL     1      29.626  46.399  -6.389  1.00  0.00     0.248 HD
ENDBRANCH   4  18
TORSDOF 3
ENDMDL
MODEL 2
REMARK VINA RESULT: -6.367689637      2.216      3.131
REMARK  3 active torsions:
REMARK  status: ('A' for Active; 'I' for Inactive)
REMARK    1  A    between atoms: N1_1  and  N2_4 
REMARK       I    between atoms: C1_6  and  N4_8 
REMARK    2  A    between atoms: N4_8  and  C2_10 
REMARK    3  A    between atoms: N6_13  and  O1_14 
ROOT
HETATM    1  C2  UNL     1      29.244  47.964  -1.568  1.00  0.00     0.718 A 
HETATM    2  N5  UNL     1      30.425  48.581  -1.478  1.00  0.00    -0.087 N 
ATOM      3  H5  UNL     1      30.682  49.300  -0.802  1.00  0.00     0.210 HD
HETATM    4  N6  UNL     1      31.196  48.085  -2.426  1.00  0.00    -0.065 N 
HETATM    5  N7  UNL     1      30.540  47.171  -3.114  1.00  0.00    -0.186 N 
ATOM      6  H7  UNL     1      30.894  46.628  -3.902  1.00  0.00     0.213 HD
HETATM    7  N8  UNL     1      29.336  47.099  -2.582  1.00  0.00    -0.113 N 
ATOM      8  H8  UNL     1      28.590  46.478  -2.897  1.00  0.00     0.207 HD
ENDROOT
BRANCH   1   9
HETATM    9  N4  UNL     1      28.170  48.111  -0.857  1.00  0.00    -0.159 N 
HETATM   10  C1  UNL     1      26.960  47.429  -1.167  1.00  0.00     0.221 C 
HETATM   11  N2  UNL     1      26.677  46.246  -0.784  1.00  0.00    -0.280 N 
HETATM   12  N3  UNL     1      26.018  48.145  -1.958  1.00  0.00    -0.061 NA
ATOM     13  H2  UNL     1      25.790  45.813  -1.039  1.00  0.00     0.189 HD
ATOM     14  H4  UNL     1      28.193  48.734  -0.050  1.00  0.00     0.187 HD
BRANCH  11  15
HETATM   15  N1  UNL     1      27.613  45.554  -0.007  1.00  0.00    -0.343 N 
ATOM     16  H12 UNL     1      28.588  45.852  -0.002  1.00  0.00     0.176 HD
ATOM     17  H11 UNL     1      27.294  44.756   0.544  1.00  0.00     0.176 HD
ENDBRANCH  11  15
ENDBRANCH   1   9
BRANCH   4  18
HETATM   18  O1  UNL     1      32.514  48.432  -2.708  1.00  0.00    -0.252 OA
ATOM     19  H1  UNL     1      32.819  49.208  -3.161  1.00  0.00     0.248 HD
ENDBRANCH   4  18
TORSDOF 3
ENDMDL
MODEL 3
REMARK VINA RESULT: -6.246342576      2.719      4.536
REMARK  3 active torsions:
REMARK  status: ('A' for Active; 'I' for Inactive)
REMARK    1  A    between atoms: N1_1  and  N2_4 
REMARK       I    between atoms: C1_6  and  N4_8 
REMARK    2  A    between atoms: N4_8  and  C2_10 
REMARK    3  A    between atoms: N6_13  and  O1_14 
ROOT
HETATM    1  C2  UNL     1      28.375  46.718  -2.641  1.00  0.00     0.718 A 
HETATM    2  N5  UNL     1      29.115  47.187  -1.634  1.00  0.00    -0.087 N 
ATOM      3  H5  UNL     1      29.777  47.962  -1.679  1.00  0.00     0.210 HD
HETATM    4  N6  UNL     1      28.829  46.461  -0.570  1.00  0.00    -0.065 N 
HETATM    5  N7  UNL     1      27.928  45.546  -0.873  1.00  0.00    -0.186 N 
ATOM      6  H7  UNL     1      27.527  44.852  -0.243  1.00  0.00     0.213 HD
HETATM    7  N8  UNL     1      27.650  45.708  -2.151  1.00  0.00    -0.113 N 
ATOM      8  H8  UNL     1      26.985  45.147  -2.684  1.00  0.00     0.207 HD
ENDROOT
BRANCH   1   9
HETATM    9  N4  UNL     1      28.308  47.104  -3.877  1.00  0.00    -0.159 N 
HETATM   10  C1  UNL     1      29.470  47.258  -4.684  1.00  0.00     0.221 C 
HETATM   11  N2  UNL     1      30.029  46.314  -5.335  1.00  0.00    -0.280 N 
HETATM   12  N3  UNL     1      30.022  48.568  -4.752  1.00  0.00    -0.061 NA
ATOM     13  H2  UNL     1      30.861  46.491  -5.897  1.00  0.00     0.189 HD
ATOM     14  H4  UNL     1      27.395  47.305  -4.284  1.00  0.00     0.187 HD
BRANCH  11  15
HETATM   15  N1  UNL     1      29.476  45.031  -5.259  1.00  0.00    -0.343 N 
ATOM     16  H12 UNL     1      28.489  44.917  -5.031  1.00  0.00     0.176 HD
ATOM     17  H11 UNL     1      30.081  44.228  -5.435  1.00  0.00     0.176 HD
ENDBRANCH  11  15
ENDBRANCH   1   9
BRANCH   4  18
HETATM   18  O1  UNL     1      29.362  46.593   0.708  1.00  0.00    -0.252 OA
ATOM     19  H1  UNL     1      29.277  45.984   1.432  1.00  0.00     0.248 HD
ENDBRANCH   4  18
TORSDOF 3
ENDMDL
MODEL 4
REMARK VINA RESULT: -6.233055940      2.038      2.449
REMARK  3 active torsions:
REMARK  status: ('A' for Active; 'I' for Inactive)
REMARK    1  A    between atoms: N1_1  and  N2_4 
REMARK       I    between atoms: C1_6  and  N4_8 
REMARK    2  A    between atoms: N4_8  and  C2_10 
REMARK    3  A    between atoms: N6_13  and  O1_14 
ROOT
HETATM    1  C2  UNL     1      29.143  47.563  -2.150  1.00  0.00     0.718 A 
HETATM    2  N5  UNL     1      30.168  48.349  -1.811  1.00  0.00    -0.087 N 
ATOM      3  H5  UNL     1      30.175  49.048  -1.068  1.00  0.00     0.210 HD
HETATM    4  N6  UNL     1      31.169  48.051  -2.618  1.00  0.00    -0.065 N 
HETATM    5  N7  UNL     1      30.809  47.100  -3.457  1.00  0.00    -0.186 N 
ATOM      6  H7  UNL     1      31.384  46.679  -4.186  1.00  0.00     0.213 HD
HETATM    7  N8  UNL     1      29.558  46.801  -3.166  1.00  0.00    -0.113 N 
ATOM      8  H8  UNL     1      28.995  46.097  -3.643  1.00  0.00     0.207 HD
ENDROOT
BRANCH   1   9
HETATM    9  N4  UNL     1      27.949  47.488  -1.649  1.00  0.00    -0.159 N 
HETATM   10  C1  UNL     1      27.321  48.601  -1.024  1.00  0.00     0.221 C 
HETATM   11  N2  UNL     1      26.667  49.505  -1.643  1.00  0.00    -0.280 N 
HETATM   12  N3  UNL     1      27.446  48.684   0.391  1.00  0.00    -0.061 NA
ATOM     13  H2  UNL     1      26.238  50.278  -1.135  1.00  0.00     0.189 HD
ATOM     14  H4  UNL     1      27.445  46.604  -1.704  1.00  0.00     0.187 HD
BRANCH  11  15
HETATM   15  N1  UNL     1      26.552  49.411  -3.035  1.00  0.00    -0.343 N 
ATOM     16  H12 UNL     1      27.240  48.878  -3.566  1.00  0.00     0.176 HD
ATOM     17  H11 UNL     1      25.772  49.885  -3.492  1.00  0.00     0.176 HD
ENDBRANCH  11  15
ENDBRANCH   1   9
BRANCH   4  18
HETATM   18  O1  UNL     1      32.439  48.620  -2.630  1.00  0.00    -0.252 OA
ATOM     19  H1  UNL     1      33.103  48.529  -3.302  1.00  0.00     0.248 HD
ENDBRANCH   4  18
TORSDOF 3
ENDMDL
MODEL 5
REMARK VINA RESULT: -6.136351561      1.880      2.549
REMARK  3 active torsions:
REMARK  status: ('A' for Active; 'I' for Inactive)
REMARK    1  A    between atoms: N1_1  and  N2_4 
REMARK       I    between atoms: C1_6  and  N4_8 
REMARK    2  A    between atoms: N4_8  and  C2_10 
REMARK    3  A    between atoms: N6_13  and  O1_14 
ROOT
HETATM    1  C2  UNL     1      29.550  47.754  -1.949  1.00  0.00     0.718 A 
HETATM    2  N5  UNL     1      30.473  47.347  -2.825  1.00  0.00    -0.087 N 
ATOM      3  H5  UNL     1      31.255  46.721  -2.633  1.00  0.00     0.210 HD
HETATM    4  N6  UNL     1      30.183  47.908  -3.983  1.00  0.00    -0.065 N 
HETATM    5  N7  UNL     1      29.104  48.657  -3.869  1.00  0.00    -0.186 N 
ATOM      6  H7  UNL     1      28.658  49.202  -4.606  1.00  0.00     0.213 HD
HETATM    7  N8  UNL     1      28.716  48.559  -2.613  1.00  0.00    -0.113 N 
ATOM      8  H8  UNL     1      27.904  49.027  -2.209  1.00  0.00     0.207 HD
ENDROOT
BRANCH   1   9
HETATM    9  N4  UNL     1      29.415  47.473  -0.691  1.00  0.00    -0.159 N 
HETATM   10  C1  UNL     1      28.136  47.350  -0.078  1.00  0.00     0.221 C 
HETATM   11  N2  UNL     1      27.436  46.284  -0.073  1.00  0.00    -0.280 N 
HETATM   12  N3  UNL     1      27.631  48.513   0.567  1.00  0.00    -0.061 NA
ATOM     13  H2  UNL     1      26.526  46.260   0.386  1.00  0.00     0.189 HD
ATOM     14  H4  UNL     1      30.249  47.337  -0.122  1.00  0.00     0.187 HD
BRANCH  11  15
HETATM   15  N1  UNL     1      27.945  45.147  -0.711  1.00  0.00    -0.343 N 
ATOM     16  H12 UNL     1      28.894  45.157  -1.085  1.00  0.00     0.176 HD
ATOM     17  H11 UNL     1      27.348  44.323  -0.789  1.00  0.00     0.176 HD
ENDBRANCH  11  15
ENDBRANCH   1   9
BRANCH   4  18
HETATM   18  O1  UNL     1      30.874  47.768  -5.183  1.00  0.00    -0.252 OA
ATOM     19  H1  UNL     1      31.783  47.519  -5.297  1.00  0.00     0.248 HD
ENDBRANCH   4  18
TORSDOF 3
ENDMDL
