MODEL 1
REMARK VINA RESULT: -5.838155469      0.000      0.000
REMARK  3 active torsions:
REMARK  status: ('A' for Active; 'I' for Inactive)
REMARK    1  A    between atoms: N1_1  and  N2_4 
REMARK       I    between atoms: C1_6  and  N4_8 
REMARK    2  A    between atoms: N4_8  and  S1_10 
REMARK    3  A    between atoms: S1_10  and  N5_11 
ROOT
HETATM    1  N2  UNL     1      29.250  48.142  -3.309  1.00  0.00    -0.280 N 
ATOM      2  H2  UNL     1      28.453  47.598  -3.640  1.00  0.00     0.189 HD
HETATM    3  C1  UNL     1      29.818  47.843  -2.218  1.00  0.00     0.217 C 
HETATM    4  N3  UNL     1      30.912  48.583  -1.753  1.00  0.00    -0.061 NA
HETATM    5  N4  UNL     1      29.346  46.757  -1.463  1.00  0.00    -0.240 N 
ATOM      6  H4  UNL     1      29.846  45.871  -1.536  1.00  0.00     0.183 HD
ENDROOT
BRANCH   5   7
HETATM    7  S1  UNL     1      27.977  46.827  -0.423  1.00  0.00     0.319 S 
HETATM    8  O1  UNL     1      27.946  48.111   0.321  1.00  0.00    -0.183 OA
HETATM    9  O2  UNL     1      28.061  45.641   0.505  1.00  0.00    -0.183 OA
BRANCH   7  10
HETATM   10  N5  UNL     1      26.538  46.692  -1.369  1.00  0.00    -0.311 N 
ATOM     11  H52 UNL     1      26.518  46.475  -2.365  1.00  0.00     0.170 HD
ATOM     12  H51 UNL     1      25.728  46.862  -0.773  1.00  0.00     0.170 HD
ENDBRANCH   7  10
ENDBRANCH   5   7
BRANCH   1  13
HETATM   13  N1  UNL     1      29.721  49.223  -4.053  1.00  0.00    -0.343 N 
ATOM     14  H12 UNL     1      29.079  49.973  -4.305  1.00  0.00     0.176 HD
ATOM     15  H11 UNL     1      30.701  49.248  -4.336  1.00  0.00     0.176 HD
ENDBRANCH   1  13
TORSDOF 3
ENDMDL
MODEL 2
REMARK VINA RESULT: -5.751657588      1.900      2.310
REMARK  3 active torsions:
REMARK  status: ('A' for Active; 'I' for Inactive)
REMARK    1  A    between atoms: N1_1  and  N2_4 
REMARK       I    between atoms: C1_6  and  N4_8 
REMARK    2  A    between atoms: N4_8  and  S1_10 
REMARK    3  A    between atoms: S1_10  and  N5_11 
ROOT
HETATM    1  N2  UNL     1      28.842  46.363  -3.226  1.00  0.00    -0.280 N 
ATOM      2  H2  UNL     1      28.702  45.745  -2.428  1.00  0.00     0.189 HD
HETATM    3  C1  UNL     1      28.908  47.617  -3.059  1.00  0.00     0.217 C 
HETATM    4  N3  UNL     1      29.100  48.476  -4.148  1.00  0.00    -0.061 NA
HETATM    5  N4  UNL     1      28.786  48.153  -1.767  1.00  0.00    -0.240 N 
ATOM      6  H4  UNL     1      29.640  48.418  -1.277  1.00  0.00     0.183 HD
ENDROOT
BRANCH   5   7
HETATM    7  S1  UNL     1      27.286  48.392  -0.960  1.00  0.00     0.319 S 
HETATM    8  O1  UNL     1      27.506  48.831   0.441  1.00  0.00    -0.183 OA
HETATM    9  O2  UNL     1      26.529  47.089  -1.028  1.00  0.00    -0.183 OA
BRANCH   7  10
HETATM   10  N5  UNL     1      26.380  49.605  -1.791  1.00  0.00    -0.311 N 
ATOM     11  H52 UNL     1      25.678  49.416  -2.507  1.00  0.00     0.170 HD
ATOM     12  H51 UNL     1      26.659  50.526  -1.451  1.00  0.00     0.170 HD
ENDBRANCH   7  10
ENDBRANCH   5   7
BRANCH   1  13
HETATM   13  N1  UNL     1      28.962  45.836  -4.512  1.00  0.00    -0.343 N 
ATOM     14  H12 UNL     1      29.519  44.994  -4.655  1.00  0.00     0.176 HD
ATOM     15  H11 UNL     1      28.493  46.299  -5.290  1.00  0.00     0.176 HD
ENDBRANCH   1  13
TORSDOF 3
ENDMDL
MODEL 3
REMARK VINA RESULT: -5.591114795      1.303      1.719
REMARK  3 active torsions:
REMARK  status: ('A' for Active; 'I' for Inactive)
REMARK    1  A    between atoms: N1_1  and  N2_4 
REMARK       I    between atoms: C1_6  and  N4_8 
REMARK    2  A    between atoms: N4_8  and  S1_10 
REMARK    3  A    between atoms: S1_10  and  N5_11 
ROOT
HETATM    1  N2  UNL     1      28.677  46.061  -3.773  1.00  0.00    -0.280 N 
ATOM      2  H2  UNL     1      28.661  45.133  -3.351  1.00  0.00     0.189 HD
HETATM    3  C1  UNL     1      28.946  47.077  -3.068  1.00  0.00     0.217 C 
HETATM    4  N3  UNL     1      28.972  48.357  -3.636  1.00  0.00    -0.061 NA
HETATM    5  N4  UNL     1      29.220  46.922  -1.700  1.00  0.00    -0.240 N 
ATOM      6  H4  UNL     1      30.196  46.922  -1.405  1.00  0.00     0.183 HD
ENDROOT
BRANCH   5   7
HETATM    7  S1  UNL     1      28.013  46.732  -0.489  1.00  0.00     0.319 S 
HETATM    8  O1  UNL     1      28.011  47.889   0.440  1.00  0.00    -0.183 OA
HETATM    9  O2  UNL     1      28.299  45.436   0.228  1.00  0.00    -0.183 OA
BRANCH   7  10
HETATM   10  N5  UNL     1      26.463  46.618  -1.245  1.00  0.00    -0.311 N 
ATOM     11  H52 UNL     1      26.234  45.973  -2.001  1.00  0.00     0.170 HD
ATOM     12  H51 UNL     1      25.830  47.292  -0.815  1.00  0.00     0.170 HD
ENDBRANCH   7  10
ENDBRANCH   5   7
BRANCH   1  13
HETATM   13  N1  UNL     1      28.405  46.221  -5.131  1.00  0.00    -0.343 N 
ATOM     14  H12 UNL     1      28.228  47.156  -5.497  1.00  0.00     0.176 HD
ATOM     15  H11 UNL     1      28.385  45.402  -5.739  1.00  0.00     0.176 HD
ENDBRANCH   1  13
TORSDOF 3
ENDMDL
MODEL 4
REMARK VINA RESULT: -5.558729010      1.727      2.213
REMARK  3 active torsions:
REMARK  status: ('A' for Active; 'I' for Inactive)
REMARK    1  A    between atoms: N1_1  and  N2_4 
REMARK       I    between atoms: C1_6  and  N4_8 
REMARK    2  A    between atoms: N4_8  and  S1_10 
REMARK    3  A    between atoms: S1_10  and  N5_11 
ROOT
HETATM    1  N2  UNL     1      29.744  47.020  -3.328  1.00  0.00    -0.280 N 
ATOM      2  H2  UNL     1      30.475  47.384  -2.718  1.00  0.00     0.189 HD
HETATM    3  C1  UNL     1      28.531  47.321  -3.121  1.00  0.00     0.217 C 
HETATM    4  N3  UNL     1      27.518  46.828  -3.953  1.00  0.00    -0.061 NA
HETATM    5  N4  UNL     1      28.197  48.158  -2.044  1.00  0.00    -0.240 N 
ATOM      6  H4  UNL     1      28.020  49.143  -2.242  1.00  0.00     0.183 HD
ENDROOT
BRANCH   5   7
HETATM    7  S1  UNL     1      28.067  47.626  -0.413  1.00  0.00     0.319 S 
HETATM    8  O1  UNL     1      27.501  48.697   0.446  1.00  0.00    -0.183 OA
HETATM    9  O2  UNL     1      29.448  47.217   0.034  1.00  0.00    -0.183 OA
BRANCH   7  10
HETATM   10  N5  UNL     1      27.029  46.247  -0.347  1.00  0.00    -0.311 N 
ATOM     11  H52 UNL     1      27.340  45.298  -0.138  1.00  0.00     0.170 HD
ATOM     12  H51 UNL     1      26.072  46.537  -0.546  1.00  0.00     0.170 HD
ENDBRANCH   7  10
ENDBRANCH   5   7
BRANCH   1  13
HETATM   13  N1  UNL     1      30.070  46.188  -4.398  1.00  0.00    -0.343 N 
ATOM     14  H12 UNL     1      30.673  46.543  -5.140  1.00  0.00     0.176 HD
ATOM     15  H11 UNL     1      29.703  45.237  -4.424  1.00  0.00     0.176 HD
ENDBRANCH   1  13
TORSDOF 3
ENDMDL
MODEL 5
REMARK VINA RESULT: -5.429176020      1.883      2.919
REMARK  3 active torsions:
REMARK  status: ('A' for Active; 'I' for Inactive)
REMARK    1  A    between atoms: N1_1  and  N2_4 
REMARK       I    between atoms: C1_6  and  N4_8 
REMARK    2  A    between atoms: N4_8  and  S1_10 
REMARK    3  A    between atoms: S1_10  and  N5_11 
ROOT
HETATM    1  N2  UNL     1      26.738  49.015  -2.075  1.00  0.00    -0.280 N 
ATOM      2  H2  UNL     1      26.624  49.382  -1.130  1.00  0.00     0.189 HD
HETATM    3  C1  UNL     1      26.829  47.767  -2.267  1.00  0.00     0.217 C 
HETATM    4  N3  UNL     1      26.985  47.251  -3.560  1.00  0.00    -0.061 NA
HETATM    5  N4  UNL     1      26.773  46.889  -1.174  1.00  0.00    -0.240 N 
ATOM      6  H4  UNL     1      25.889  46.418  -0.983  1.00  0.00     0.183 HD
ENDROOT
BRANCH   5   7
HETATM    7  S1  UNL     1      28.104  46.556  -0.136  1.00  0.00     0.319 S 
HETATM    8  O1  UNL     1      28.039  45.163   0.374  1.00  0.00    -0.183 OA
HETATM    9  O2  UNL     1      28.061  47.566   0.983  1.00  0.00    -0.183 OA
BRANCH   7  10
HETATM   10  N5  UNL     1      29.577  46.763  -1.015  1.00  0.00    -0.311 N 
ATOM     11  H52 UNL     1      30.448  46.275  -0.808  1.00  0.00     0.170 HD
ATOM     12  H51 UNL     1      29.428  47.441  -1.763  1.00  0.00     0.170 HD
ENDBRANCH   7  10
ENDBRANCH   5   7
BRANCH   1  13
HETATM   13  N1  UNL     1      26.795  49.883  -3.164  1.00  0.00    -0.343 N 
ATOM     14  H12 UNL     1      26.533  50.861  -3.038  1.00  0.00     0.176 HD
ATOM     15  H11 UNL     1      27.096  49.530  -4.072  1.00  0.00     0.176 HD
ENDBRANCH   1  13
TORSDOF 3
ENDMDL
