MODEL 1
REMARK VINA RESULT: -4.767591272      0.000      0.000
REMARK  5 active torsions:
REMARK  status: ('A' for Active; 'I' for Inactive)
REMARK    1  A    between atoms: C1_4  and  C2_5 
REMARK    2  A    between atoms: C1_4  and  N3_10 
REMARK    3  A    between atoms: C2_5  and  N2_6 
REMARK    4  A    between atoms: N3_10  and  C3_12 
REMARK    5  A    between atoms: N6_19  and  C5_20 
ROOT
HETATM    1  C3  UNL     1       6.498   9.756 124.870  1.00  0.00     0.711 A 
HETATM    2  N4  UNL     1       5.430  10.452 125.296  1.00  0.00    -0.138 N 
ATOM      3  H4  UNL     1       4.846  10.240 126.104  1.00  0.00     0.189 HD
HETATM    4  C4  UNL     1       5.284  11.499 124.430  1.00  0.00     0.354 A 
HETATM    5  O1  UNL     1       4.409  12.387 124.471  1.00  0.00    -0.245 OA
HETATM    6  N5  UNL     1       6.272  11.382 123.522  1.00  0.00    -0.228 N 
ATOM      7  H5  UNL     1       6.420  12.024 122.744  1.00  0.00     0.193 HD
HETATM    8  N6  UNL     1       7.024  10.326 123.772  1.00  0.00    -0.063 N 
ENDROOT
BRANCH   1   9
HETATM    9  N3  UNL     1       6.975   8.691 125.410  1.00  0.00    -0.177 N 
ATOM     10  H3  UNL     1       6.987   7.836 124.853  1.00  0.00     0.185 HD
BRANCH   9  11
HETATM   11  C1  UNL     1       7.483   8.633 126.726  1.00  0.00     0.116 C 
HETATM   12  N1  UNL     1       8.595   9.193 127.007  1.00  0.00    -0.387 N 
ATOM     13  H12 UNL     1       8.963   9.151 127.959  1.00  0.00     0.157 HD
ATOM     14  H11 UNL     1       9.124   9.686 126.288  1.00  0.00     0.157 HD
BRANCH  11  15
HETATM   15  C2  UNL     1       6.718   7.920 127.767  1.00  0.00     0.305 C 
BRANCH  15  16
HETATM   16  N2  UNL     1       6.605   6.515 127.425  1.00  0.00    -0.073 N 
ATOM     17  H23 UNL     1       5.825   6.066 127.905  1.00  0.00     0.274 HD
ATOM     18  H22 UNL     1       6.286   6.380 126.466  1.00  0.00     0.274 HD
ATOM     19  H21 UNL     1       7.490   6.040 127.604  1.00  0.00     0.274 HD
ENDBRANCH  15  16
ENDBRANCH  11  15
ENDBRANCH   9  11
ENDBRANCH   1   9
BRANCH   8  20
HETATM   20  C5  UNL     1       8.156   9.896 123.019  1.00  0.00     0.175 A 
HETATM   21  C6  UNL     1       9.479  10.215 123.291  1.00  0.00     0.157 A 
HETATM   22  N7  UNL     1      10.214   9.618 122.357  1.00  0.00    -0.292 N 
HETATM   23  N8  UNL     1       9.442   8.947 121.519  1.00  0.00    -0.021 NA
ATOM     24  H7  UNL     1      11.231   9.671 122.296  1.00  0.00     0.183 HD
HETATM   25  N9  UNL     1       8.196   9.119 121.925  1.00  0.00    -0.266 N 
ATOM     26  H9  UNL     1       7.376   8.717 121.470  1.00  0.00     0.186 HD
ENDBRANCH   8  20
TORSDOF 5
ENDMDL
MODEL 2
REMARK VINA RESULT: -4.755772756      2.002      3.745
REMARK  5 active torsions:
REMARK  status: ('A' for Active; 'I' for Inactive)
REMARK    1  A    between atoms: C1_4  and  C2_5 
REMARK    2  A    between atoms: C1_4  and  N3_10 
REMARK    3  A    between atoms: C2_5  and  N2_6 
REMARK    4  A    between atoms: N3_10  and  C3_12 
REMARK    5  A    between atoms: N6_19  and  C5_20 
ROOT
HETATM    1  C3  UNL     1       6.013  10.196 124.725  1.00  0.00     0.711 A 
HETATM    2  N4  UNL     1       5.566   9.708 125.894  1.00  0.00    -0.138 N 
ATOM      3  H4  UNL     1       4.686   9.937 126.355  1.00  0.00     0.189 HD
HETATM    4  C4  UNL     1       6.525   8.844 126.341  1.00  0.00     0.354 A 
HETATM    5  O1  UNL     1       6.499   8.177 127.396  1.00  0.00    -0.245 OA
HETATM    6  N5  UNL     1       7.506   8.854 125.418  1.00  0.00    -0.228 N 
ATOM      7  H5  UNL     1       8.362   8.304 125.480  1.00  0.00     0.193 HD
HETATM    8  N6  UNL     1       7.214   9.672 124.425  1.00  0.00    -0.063 N 
ENDROOT
BRANCH   1   9
HETATM    9  N3  UNL     1       5.406  11.046 123.975  1.00  0.00    -0.177 N 
ATOM     10  H3  UNL     1       5.966  11.593 123.321  1.00  0.00     0.185 HD
BRANCH   9  11
HETATM   11  C1  UNL     1       4.012  11.267 123.999  1.00  0.00     0.116 C 
HETATM   12  N1  UNL     1       3.243  10.586 123.240  1.00  0.00    -0.387 N 
ATOM     13  H12 UNL     1       2.235  10.746 123.258  1.00  0.00     0.157 HD
ATOM     14  H11 UNL     1       3.627   9.880 122.612  1.00  0.00     0.157 HD
BRANCH  11  15
HETATM   15  C2  UNL     1       3.456  12.288 124.907  1.00  0.00     0.305 C 
BRANCH  15  16
HETATM   16  N2  UNL     1       2.626  11.658 125.915  1.00  0.00    -0.073 N 
ATOM     17  H23 UNL     1       2.001  12.325 126.368  1.00  0.00     0.274 HD
ATOM     18  H22 UNL     1       1.919  11.049 125.502  1.00  0.00     0.274 HD
ATOM     19  H21 UNL     1       3.210  11.162 126.589  1.00  0.00     0.274 HD
ENDBRANCH  15  16
ENDBRANCH  11  15
ENDBRANCH   9  11
ENDBRANCH   1   9
BRANCH   8  20
HETATM   20  C5  UNL     1       8.021   9.932 123.277  1.00  0.00     0.175 A 
HETATM   21  C6  UNL     1       9.093  10.810 123.221  1.00  0.00     0.157 A 
HETATM   22  N7  UNL     1       9.565  10.757 121.980  1.00  0.00    -0.292 N 
HETATM   23  N8  UNL     1       8.863   9.903 121.254  1.00  0.00    -0.021 NA
ATOM     24  H7  UNL     1      10.359  11.298 121.635  1.00  0.00     0.183 HD
HETATM   25  N9  UNL     1       7.928   9.406 122.046  1.00  0.00    -0.266 N 
ATOM     26  H9  UNL     1       7.231   8.718 121.760  1.00  0.00     0.186 HD
ENDBRANCH   8  20
TORSDOF 5
ENDMDL
MODEL 3
REMARK VINA RESULT: -4.667958014      1.971      3.635
REMARK  5 active torsions:
REMARK  status: ('A' for Active; 'I' for Inactive)
REMARK    1  A    between atoms: C1_4  and  C2_5 
REMARK    2  A    between atoms: C1_4  and  N3_10 
REMARK    3  A    between atoms: C2_5  and  N2_6 
REMARK    4  A    between atoms: N3_10  and  C3_12 
REMARK    5  A    between atoms: N6_19  and  C5_20 
ROOT
HETATM    1  C3  UNL     1       6.300  10.185 124.724  1.00  0.00     0.711 A 
HETATM    2  N4  UNL     1       5.870   9.645 125.876  1.00  0.00    -0.138 N 
ATOM      3  H4  UNL     1       5.033   9.905 126.398  1.00  0.00     0.189 HD
HETATM    4  C4  UNL     1       6.776   8.679 126.209  1.00  0.00     0.354 A 
HETATM    5  O1  UNL     1       6.746   7.938 127.213  1.00  0.00    -0.245 OA
HETATM    6  N5  UNL     1       7.712   8.685 125.240  1.00  0.00    -0.228 N 
ATOM      7  H5  UNL     1       8.523   8.067 125.217  1.00  0.00     0.193 HD
HETATM    8  N6  UNL     1       7.440   9.595 124.324  1.00  0.00    -0.063 N 
ENDROOT
BRANCH   1   9
HETATM    9  N3  UNL     1       5.729  11.133 124.069  1.00  0.00    -0.177 N 
ATOM     10  H3  UNL     1       6.097  11.368 123.147  1.00  0.00     0.185 HD
BRANCH   9  11
HETATM   11  C1  UNL     1       4.622  11.867 124.547  1.00  0.00     0.116 C 
HETATM   12  N1  UNL     1       4.801  13.000 125.109  1.00  0.00    -0.387 N 
ATOM     13  H12 UNL     1       4.001  13.531 125.455  1.00  0.00     0.157 HD
ATOM     14  H11 UNL     1       5.740  13.383 125.218  1.00  0.00     0.157 HD
BRANCH  11  15
HETATM   15  C2  UNL     1       3.263  11.315 124.391  1.00  0.00     0.305 C 
BRANCH  15  16
HETATM   16  N2  UNL     1       3.159  10.601 123.133  1.00  0.00    -0.073 N 
ATOM     17  H23 UNL     1       3.713  11.039 122.397  1.00  0.00     0.274 HD
ATOM     18  H22 UNL     1       3.638   9.701 123.164  1.00  0.00     0.274 HD
ATOM     19  H21 UNL     1       2.179  10.503 122.867  1.00  0.00     0.274 HD
ENDBRANCH  15  16
ENDBRANCH  11  15
ENDBRANCH   9  11
ENDBRANCH   1   9
BRANCH   8  20
HETATM   20  C5  UNL     1       8.211   9.879 123.158  1.00  0.00     0.175 A 
HETATM   21  C6  UNL     1       9.325  10.704 123.103  1.00  0.00     0.157 A 
HETATM   22  N7  UNL     1       9.742  10.698 121.840  1.00  0.00    -0.292 N 
HETATM   23  N8  UNL     1       8.965   9.924 121.101  1.00  0.00    -0.021 NA
ATOM     24  H7  UNL     1      10.548  11.217 121.491  1.00  0.00     0.183 HD
HETATM   25  N9  UNL     1       8.039   9.430 121.905  1.00  0.00    -0.266 N 
ATOM     26  H9  UNL     1       7.295   8.796 121.613  1.00  0.00     0.186 HD
ENDBRANCH   8  20
TORSDOF 5
ENDMDL
MODEL 4
REMARK VINA RESULT: -4.590321098      2.208      5.252
REMARK  5 active torsions:
REMARK  status: ('A' for Active; 'I' for Inactive)
REMARK    1  A    between atoms: C1_4  and  C2_5 
REMARK    2  A    between atoms: C1_4  and  N3_10 
REMARK    3  A    between atoms: C2_5  and  N2_6 
REMARK    4  A    between atoms: N3_10  and  C3_12 
REMARK    5  A    between atoms: N6_19  and  C5_20 
ROOT
HETATM    1  C3  UNL     1       6.798  10.054 124.672  1.00  0.00     0.711 A 
HETATM    2  N4  UNL     1       7.401   8.967 125.180  1.00  0.00    -0.138 N 
ATOM      3  H4  UNL     1       8.246   8.517 124.829  1.00  0.00     0.189 HD
HETATM    4  C4  UNL     1       6.657   8.584 126.260  1.00  0.00     0.354 A 
HETATM    5  O1  UNL     1       6.876   7.614 127.014  1.00  0.00    -0.245 OA
HETATM    6  N5  UNL     1       5.638   9.461 126.349  1.00  0.00    -0.228 N 
ATOM      7  H5  UNL     1       4.911   9.429 127.063  1.00  0.00     0.193 HD
HETATM    8  N6  UNL     1       5.705  10.365 125.391  1.00  0.00    -0.063 N 
ENDROOT
BRANCH   1   9
HETATM    9  N3  UNL     1       7.182  10.726 123.645  1.00  0.00    -0.177 N 
ATOM     10  H3  UNL     1       6.600  11.506 123.338  1.00  0.00     0.185 HD
BRANCH   9  11
HETATM   11  C1  UNL     1       8.359  10.450 122.915  1.00  0.00     0.116 C 
HETATM   12  N1  UNL     1       9.426  11.111 123.150  1.00  0.00    -0.387 N 
ATOM     13  H12 UNL     1      10.277  10.912 122.623  1.00  0.00     0.157 HD
ATOM     14  H11 UNL     1       9.438  11.841 123.863  1.00  0.00     0.157 HD
BRANCH  11  15
HETATM   15  C2  UNL     1       8.343   9.395 121.884  1.00  0.00     0.305 C 
BRANCH  15  16
HETATM   16  N2  UNL     1       8.993   9.870 120.678  1.00  0.00    -0.073 N 
ATOM     17  H23 UNL     1       8.345  10.358 120.061  1.00  0.00     0.274 HD
ATOM     18  H22 UNL     1       9.631  10.643 120.867  1.00  0.00     0.274 HD
ATOM     19  H21 UNL     1       9.461   9.095 120.206  1.00  0.00     0.274 HD
ENDBRANCH  15  16
ENDBRANCH  11  15
ENDBRANCH   9  11
ENDBRANCH   1   9
BRANCH   8  20
HETATM   20  C5  UNL     1       4.796  11.443 125.179  1.00  0.00     0.175 A 
HETATM   21  C6  UNL     1       3.509  11.332 124.673  1.00  0.00     0.157 A 
HETATM   22  N7  UNL     1       3.006  12.562 124.636  1.00  0.00    -0.292 N 
HETATM   23  N8  UNL     1       3.890  13.437 125.084  1.00  0.00    -0.021 NA
ATOM     24  H7  UNL     1       2.070  12.798 124.306  1.00  0.00     0.183 HD
HETATM   25  N9  UNL     1       4.973  12.753 125.413  1.00  0.00    -0.266 N 
ATOM     26  H9  UNL     1       5.827  13.165 125.791  1.00  0.00     0.186 HD
ENDBRANCH   8  20
TORSDOF 5
ENDMDL
MODEL 5
REMARK VINA RESULT: -4.406053462      1.205      4.153
REMARK  5 active torsions:
REMARK  status: ('A' for Active; 'I' for Inactive)
REMARK    1  A    between atoms: C1_4  and  C2_5 
REMARK    2  A    between atoms: C1_4  and  N3_10 
REMARK    3  A    between atoms: C2_5  and  N2_6 
REMARK    4  A    between atoms: N3_10  and  C3_12 
REMARK    5  A    between atoms: N6_19  and  C5_20 
ROOT
HETATM    1  C3  UNL     1       6.449  10.696 123.939  1.00  0.00     0.711 A 
HETATM    2  N4  UNL     1       5.627  11.684 123.550  1.00  0.00    -0.138 N 
ATOM      3  H4  UNL     1       5.626  12.159 122.648  1.00  0.00     0.189 HD
HETATM    4  C4  UNL     1       4.792  11.926 124.604  1.00  0.00     0.354 A 
HETATM    5  O1  UNL     1       3.876  12.772 124.655  1.00  0.00    -0.245 OA
HETATM    6  N5  UNL     1       5.155  11.071 125.580  1.00  0.00    -0.228 N 
ATOM      7  H5  UNL     1       4.709  11.017 126.495  1.00  0.00     0.193 HD
HETATM    8  N6  UNL     1       6.163  10.311 125.195  1.00  0.00    -0.063 N 
ENDROOT
BRANCH   1   9
HETATM    9  N3  UNL     1       7.389  10.169 123.237  1.00  0.00    -0.177 N 
ATOM     10  H3  UNL     1       7.202   9.277 122.778  1.00  0.00     0.185 HD
BRANCH   9  11
HETATM   11  C1  UNL     1       8.664  10.750 123.061  1.00  0.00     0.116 C 
HETATM   12  N1  UNL     1       9.102  11.599 123.908  1.00  0.00    -0.387 N 
ATOM     13  H12 UNL     1      10.024  12.019 123.782  1.00  0.00     0.157 HD
ATOM     14  H11 UNL     1       8.538  11.865 124.716  1.00  0.00     0.157 HD
BRANCH  11  15
HETATM   15  C2  UNL     1       9.480  10.367 121.894  1.00  0.00     0.305 C 
BRANCH  15  16
HETATM   16  N2  UNL     1       8.663   9.656 120.929  1.00  0.00    -0.073 N 
ATOM     17  H23 UNL     1       8.836   8.651 120.947  1.00  0.00     0.274 HD
ATOM     18  H22 UNL     1       7.680   9.643 121.197  1.00  0.00     0.274 HD
ATOM     19  H21 UNL     1       8.801  10.051 119.998  1.00  0.00     0.274 HD
ENDBRANCH  15  16
ENDBRANCH  11  15
ENDBRANCH   9  11
ENDBRANCH   1   9
BRANCH   8  20
HETATM   20  C5  UNL     1       6.802   9.298 125.968  1.00  0.00     0.175 A 
HETATM   21  C6  UNL     1       7.991   9.440 126.669  1.00  0.00     0.157 A 
HETATM   22  N7  UNL     1       8.235   8.269 127.248  1.00  0.00    -0.292 N 
HETATM   23  N8  UNL     1       7.280   7.401 126.959  1.00  0.00    -0.021 NA
ATOM     24  H7  UNL     1       9.046   8.067 127.834  1.00  0.00     0.183 HD
HETATM   25  N9  UNL     1       6.414   8.031 126.182  1.00  0.00    -0.266 N 
ATOM     26  H9  UNL     1       5.567   7.611 125.798  1.00  0.00     0.186 HD
ENDBRANCH   8  20
TORSDOF 5
ENDMDL
