MODEL 1
REMARK VINA RESULT: -5.397405167      0.000      0.000
REMARK  3 active torsions:
REMARK  status: ('A' for Active; 'I' for Inactive)
REMARK    1  A    between atoms: C3_6  and  C4_7 
REMARK    2  A    between atoms: C4_7  and  O1_8 
REMARK    3  A    between atoms: C4_7  and  C5_10 
ROOT
HETATM    1  C5  UNL     1       8.237   9.858 123.016  1.00  0.00     0.148 A 
HETATM    2  N3  UNL     1       7.909   9.788 121.713  1.00  0.00    -0.289 N 
ATOM      3  H3  UNL     1       6.921   9.837 121.466  1.00  0.00     0.187 HD
HETATM    4  N4  UNL     1       8.787   9.658 120.730  1.00  0.00    -0.251 N 
ATOM      5  H4  UNL     1       8.463   9.615 119.764  1.00  0.00     0.191 HD
HETATM    6  C6  UNL     1      10.095   9.584 120.993  1.00  0.00     0.341 A 
HETATM    7  O2  UNL     1      11.014   9.468 120.135  1.00  0.00    -0.245 OA
HETATM    8  N5  UNL     1      10.517   9.641 122.305  1.00  0.00    -0.272 N 
ATOM      9  H5  UNL     1      11.511   9.583 122.528  1.00  0.00     0.173 HD
HETATM   10  C7  UNL     1       9.604   9.775 123.296  1.00  0.00     0.280 A 
HETATM   11  O3  UNL     1       9.992   9.814 124.474  1.00  0.00    -0.265 OA
ENDROOT
BRANCH   1  12
HETATM   12  C4  UNL     1       7.329  10.185 124.150  1.00  0.00     0.101 C 
BRANCH  12  13
HETATM   13  C3  UNL     1       6.227  11.142 123.919  1.00  0.00     0.161 C 
HETATM   14  C2  UNL     1       6.134  12.411 124.682  1.00  0.00     0.154 C 
HETATM   15  N2  UNL     1       5.138  12.087 125.709  1.00  0.00    -0.362 N 
HETATM   16  C1  UNL     1       4.484  11.036 125.418  1.00  0.00     0.184 C 
ATOM     17  H2  UNL     1       4.989  12.637 126.554  1.00  0.00     0.162 HD
HETATM   18  N1  UNL     1       3.442  10.508 126.259  1.00  0.00    -0.064 NA
HETATM   19  N6  UNL     1       4.955  10.515 124.203  1.00  0.00    -0.352 N 
ATOM     20  H6  UNL     1       4.485   9.819 123.624  1.00  0.00     0.163 HD
ENDBRANCH  12  13
BRANCH  12  21
HETATM   21  O1  UNL     1       6.973   9.087 124.891  1.00  0.00    -0.360 OA
ATOM     22  H1  UNL     1       7.503   8.953 125.668  1.00  0.00     0.217 HD
ENDBRANCH  12  21
ENDBRANCH   1  12
TORSDOF 3
ENDMDL
MODEL 2
REMARK VINA RESULT: -5.381348995      2.105      2.906
REMARK  3 active torsions:
REMARK  status: ('A' for Active; 'I' for Inactive)
REMARK    1  A    between atoms: C3_6  and  C4_7 
REMARK    2  A    between atoms: C4_7  and  O1_8 
REMARK    3  A    between atoms: C4_7  and  C5_10 
ROOT
HETATM    1  C5  UNL     1       9.774  10.448 121.780  1.00  0.00     0.148 A 
HETATM    2  N3  UNL     1      10.340  11.638 122.047  1.00  0.00    -0.289 N 
ATOM      3  H3  UNL     1       9.889  12.236 122.740  1.00  0.00     0.187 HD
HETATM    4  N4  UNL     1      11.445  12.085 121.470  1.00  0.00    -0.251 N 
ATOM      5  H4  UNL     1      11.817  12.999 121.727  1.00  0.00     0.191 HD
HETATM    6  C6  UNL     1      12.077  11.348 120.552  1.00  0.00     0.341 A 
HETATM    7  O2  UNL     1      13.136  11.672 119.947  1.00  0.00    -0.245 OA
HETATM    8  N5  UNL     1      11.558  10.114 120.212  1.00  0.00    -0.272 N 
ATOM      9  H5  UNL     1      12.023   9.537 119.511  1.00  0.00     0.173 HD
HETATM   10  C7  UNL     1      10.428   9.676 120.816  1.00  0.00     0.280 A 
HETATM   11  O3  UNL     1       9.963   8.571 120.496  1.00  0.00    -0.265 OA
ENDROOT
BRANCH   1  12
HETATM   12  C4  UNL     1       8.648   9.808 122.515  1.00  0.00     0.101 C 
BRANCH  12  13
HETATM   13  C3  UNL     1       8.326  10.291 123.873  1.00  0.00     0.161 C 
HETATM   14  C2  UNL     1       7.453   9.511 124.784  1.00  0.00     0.154 C 
HETATM   15  N2  UNL     1       6.162  10.192 124.640  1.00  0.00    -0.362 N 
HETATM   16  C1  UNL     1       6.289  11.338 124.103  1.00  0.00     0.184 C 
ATOM     17  H2  UNL     1       5.270   9.796 124.936  1.00  0.00     0.162 HD
HETATM   18  N1  UNL     1       5.173  12.212 123.857  1.00  0.00    -0.064 NA
HETATM   19  N6  UNL     1       7.640  11.563 123.800  1.00  0.00    -0.352 N 
ATOM     20  H6  UNL     1       8.064  12.462 123.569  1.00  0.00     0.163 HD
ENDBRANCH  12  13
BRANCH  12  21
HETATM   21  O1  UNL     1       7.550   9.576 121.726  1.00  0.00    -0.360 OA
ATOM     22  H1  UNL     1       7.756   9.244 120.860  1.00  0.00     0.217 HD
ENDBRANCH  12  21
ENDBRANCH   1  12
TORSDOF 3
ENDMDL
MODEL 3
REMARK VINA RESULT: -5.308777728      1.644      1.954
REMARK  3 active torsions:
REMARK  status: ('A' for Active; 'I' for Inactive)
REMARK    1  A    between atoms: C3_6  and  C4_7 
REMARK    2  A    between atoms: C4_7  and  O1_8 
REMARK    3  A    between atoms: C4_7  and  C5_10 
ROOT
HETATM    1  C5  UNL     1       9.350  10.596 122.541  1.00  0.00     0.148 A 
HETATM    2  N3  UNL     1      10.314  11.403 122.061  1.00  0.00    -0.289 N 
ATOM      3  H3  UNL     1      10.597  12.200 122.631  1.00  0.00     0.187 HD
HETATM    4  N4  UNL     1      10.919  11.229 120.895  1.00  0.00    -0.251 N 
ATOM      5  H4  UNL     1      11.645  11.882 120.600  1.00  0.00     0.191 HD
HETATM    6  C6  UNL     1      10.587  10.205 120.104  1.00  0.00     0.341 A 
HETATM    7  O2  UNL     1      11.102   9.943 118.982  1.00  0.00    -0.245 OA
HETATM    8  N5  UNL     1       9.601   9.333 120.517  1.00  0.00    -0.272 N 
ATOM      9  H5  UNL     1       9.329   8.547 119.927  1.00  0.00     0.173 HD
HETATM   10  C7  UNL     1       8.995   9.527 121.713  1.00  0.00     0.280 A 
HETATM   11  O3  UNL     1       8.101   8.745 122.071  1.00  0.00    -0.265 OA
ENDROOT
BRANCH   1  12
HETATM   12  C4  UNL     1       8.760  10.623 123.908  1.00  0.00     0.101 C 
BRANCH  12  13
HETATM   13  C3  UNL     1       7.430  11.239 124.091  1.00  0.00     0.161 C 
HETATM   14  C2  UNL     1       7.181  12.242 125.155  1.00  0.00     0.154 C 
HETATM   15  N2  UNL     1       6.541  11.437 126.200  1.00  0.00    -0.362 N 
HETATM   16  C1  UNL     1       6.127  10.322 125.751  1.00  0.00     0.184 C 
ATOM     17  H2  UNL     1       6.439  11.736 127.170  1.00  0.00     0.162 HD
HETATM   18  N1  UNL     1       5.454   9.351 126.574  1.00  0.00    -0.064 NA
HETATM   19  N6  UNL     1       6.447  10.220 124.389  1.00  0.00    -0.352 N 
ATOM     20  H6  UNL     1       6.056   9.548 123.728  1.00  0.00     0.163 HD
ENDBRANCH  12  13
BRANCH  12  21
HETATM   21  O1  UNL     1       8.936   9.450 124.595  1.00  0.00    -0.360 OA
ATOM     22  H1  UNL     1       8.219   8.833 124.502  1.00  0.00     0.217 HD
ENDBRANCH  12  21
ENDBRANCH   1  12
TORSDOF 3
ENDMDL
MODEL 4
REMARK VINA RESULT: -5.177035706      1.946      5.576
REMARK  3 active torsions:
REMARK  status: ('A' for Active; 'I' for Inactive)
REMARK    1  A    between atoms: C3_6  and  C4_7 
REMARK    2  A    between atoms: C4_7  and  O1_8 
REMARK    3  A    between atoms: C4_7  and  C5_10 
ROOT
HETATM    1  C5  UNL     1       7.030  10.299 123.766  1.00  0.00     0.148 A 
HETATM    2  N3  UNL     1       5.943  11.069 123.580  1.00  0.00    -0.289 N 
ATOM      3  H3  UNL     1       5.921  11.674 122.759  1.00  0.00     0.187 HD
HETATM    4  N4  UNL     1       4.899  11.094 124.395  1.00  0.00    -0.251 N 
ATOM      5  H4  UNL     1       4.108  11.703 124.185  1.00  0.00     0.191 HD
HETATM    6  C6  UNL     1       4.873  10.327 125.488  1.00  0.00     0.341 A 
HETATM    7  O2  UNL     1       3.930  10.268 126.326  1.00  0.00    -0.245 OA
HETATM    8  N5  UNL     1       5.953   9.511 125.759  1.00  0.00    -0.272 N 
ATOM      9  H5  UNL     1       5.955   8.921 126.591  1.00  0.00     0.173 HD
HETATM   10  C7  UNL     1       7.009   9.499 124.913  1.00  0.00     0.280 A 
HETATM   11  O3  UNL     1       7.981   8.772 125.170  1.00  0.00    -0.265 OA
ENDROOT
BRANCH   1  12
HETATM   12  C4  UNL     1       8.149  10.084 122.807  1.00  0.00     0.101 C 
BRANCH  12  13
HETATM   13  C3  UNL     1       9.412  10.820 123.019  1.00  0.00     0.161 C 
HETATM   14  C2  UNL     1      10.385  11.019 121.918  1.00  0.00     0.154 C 
HETATM   15  N2  UNL     1      11.381   9.977 122.188  1.00  0.00    -0.362 N 
HETATM   16  C1  UNL     1      11.277   9.519 123.370  1.00  0.00     0.184 C 
ATOM     17  H2  UNL     1      12.074   9.658 121.511  1.00  0.00     0.162 HD
HETATM   18  N1  UNL     1      12.143   8.492 123.888  1.00  0.00    -0.064 NA
HETATM   19  N6  UNL     1      10.212  10.156 124.024  1.00  0.00    -0.352 N 
ATOM     20  H6  UNL     1      10.034  10.151 125.029  1.00  0.00     0.163 HD
ENDBRANCH  12  13
BRANCH  12  21
HETATM   21  O1  UNL     1       8.317   8.768 122.458  1.00  0.00    -0.360 OA
ATOM     22  H1  UNL     1       8.640   8.217 123.161  1.00  0.00     0.217 HD
ENDBRANCH  12  21
ENDBRANCH   1  12
TORSDOF 3
ENDMDL
MODEL 5
REMARK VINA RESULT: -5.156983856      2.613      4.262
REMARK  3 active torsions:
REMARK  status: ('A' for Active; 'I' for Inactive)
REMARK    1  A    between atoms: C3_6  and  C4_7 
REMARK    2  A    between atoms: C4_7  and  O1_8 
REMARK    3  A    between atoms: C4_7  and  C5_10 
ROOT
HETATM    1  C5  UNL     1       5.131  10.671 125.045  1.00  0.00     0.148 A 
HETATM    2  N3  UNL     1       5.694   9.571 125.578  1.00  0.00    -0.289 N 
ATOM      3  H3  UNL     1       5.146   9.030 126.247  1.00  0.00     0.187 HD
HETATM    4  N4  UNL     1       6.915   9.146 125.290  1.00  0.00    -0.251 N 
ATOM      5  H4  UNL     1       7.274   8.300 125.733  1.00  0.00     0.191 HD
HETATM    6  C6  UNL     1       7.682   9.816 124.425  1.00  0.00     0.341 A 
HETATM    7  O2  UNL     1       8.852   9.497 124.076  1.00  0.00    -0.245 OA
HETATM    8  N5  UNL     1       7.183  10.961 123.838  1.00  0.00    -0.272 N 
ATOM      9  H5  UNL     1       7.752  11.490 123.178  1.00  0.00     0.173 HD
HETATM   10  C7  UNL     1       5.931  11.378 124.144  1.00  0.00     0.280 A 
HETATM   11  O3  UNL     1       5.495  12.415 123.621  1.00  0.00    -0.265 OA
ENDROOT
BRANCH   1  12
HETATM   12  C4  UNL     1       3.712  11.103 125.180  1.00  0.00     0.101 C 
BRANCH  12  13
HETATM   13  C3  UNL     1       3.358  12.034 126.271  1.00  0.00     0.161 C 
HETATM   14  C2  UNL     1       1.974  12.541 126.435  1.00  0.00     0.154 C 
HETATM   15  N2  UNL     1       2.054  13.873 125.827  1.00  0.00    -0.362 N 
HETATM   16  C1  UNL     1       3.258  14.258 125.689  1.00  0.00     0.184 C 
ATOM     17  H2  UNL     1       1.243  14.424 125.549  1.00  0.00     0.162 HD
HETATM   18  N1  UNL     1       3.609  15.535 125.124  1.00  0.00    -0.064 NA
HETATM   19  N6  UNL     1       4.124  13.255 126.150  1.00  0.00    -0.352 N 
ATOM     20  H6  UNL     1       5.116  13.367 126.363  1.00  0.00     0.163 HD
ENDBRANCH  12  13
BRANCH  12  21
HETATM   21  O1  UNL     1       3.119  11.394 123.978  1.00  0.00    -0.360 OA
ATOM     22  H1  UNL     1       3.723  11.695 123.309  1.00  0.00     0.217 HD
ENDBRANCH  12  21
ENDBRANCH   1  12
TORSDOF 3
ENDMDL
