MODEL 1
REMARK VINA RESULT: -4.503984969      0.000      0.000
REMARK  3 active torsions:
REMARK  status: ('A' for Active; 'I' for Inactive)
REMARK    1  A    between atoms: C4_11  and  N4_12 
REMARK    2  A    between atoms: N4_12  and  S1_14 
REMARK    3  A    between atoms: S1_14  and  N5_15 
ROOT
HETATM    1  N1  UNL     1       6.673  10.689 123.848  1.00  0.00    -0.080 NA
HETATM    2  C1  UNL     1       6.542   9.931 125.050  1.00  0.00     0.153 A 
HETATM    3  N2  UNL     1       7.252   8.806 125.243  1.00  0.00    -0.295 N 
ATOM      4  H2  UNL     1       7.899   8.476 124.528  1.00  0.00     0.172 HD
HETATM    5  C2  UNL     1       7.099   8.121 126.388  1.00  0.00     0.328 A 
HETATM    6  O1  UNL     1       7.772   7.050 126.578  1.00  0.00    -0.247 OA
HETATM    7  N3  UNL     1       6.244   8.560 127.332  1.00  0.00    -0.273 N 
ATOM      8  H3  UNL     1       6.151   8.018 128.191  1.00  0.00     0.173 HD
HETATM    9  C3  UNL     1       5.506   9.676 127.200  1.00  0.00     0.280 A 
HETATM   10  O2  UNL     1       4.718  10.039 128.122  1.00  0.00    -0.265 OA
HETATM   11  C4  UNL     1       5.659  10.380 126.028  1.00  0.00     0.153 A 
ENDROOT
BRANCH  11  12
HETATM   12  N4  UNL     1       4.895  11.562 125.858  1.00  0.00    -0.260 N 
ATOM     13  H4  UNL     1       5.270  12.429 126.244  1.00  0.00     0.180 HD
BRANCH  12  14
HETATM   14  S1  UNL     1       3.397  11.638 125.057  1.00  0.00     0.317 S 
HETATM   15  O3  UNL     1       2.942  13.040 124.792  1.00  0.00    -0.183 OA
HETATM   16  O4  UNL     1       2.356  10.967 125.908  1.00  0.00    -0.183 OA
BRANCH  14  17
HETATM   17  N5  UNL     1       3.422  10.824 123.526  1.00  0.00    -0.311 N 
ATOM     18  H52 UNL     1       4.287  10.583 123.040  1.00  0.00     0.170 HD
ATOM     19  H51 UNL     1       2.486  10.620 123.178  1.00  0.00     0.170 HD
ENDBRANCH  14  17
ENDBRANCH  12  14
ENDBRANCH  11  12
TORSDOF 3
ENDMDL
MODEL 2
REMARK VINA RESULT: -4.473249166      1.357      2.195
REMARK  3 active torsions:
REMARK  status: ('A' for Active; 'I' for Inactive)
REMARK    1  A    between atoms: C4_11  and  N4_12 
REMARK    2  A    between atoms: N4_12  and  S1_14 
REMARK    3  A    between atoms: S1_14  and  N5_15 
ROOT
HETATM    1  N1  UNL     1       4.689  10.095 128.294  1.00  0.00    -0.080 NA
HETATM    2  C1  UNL     1       5.561   9.631 127.264  1.00  0.00     0.153 A 
HETATM    3  N2  UNL     1       6.290   8.513 127.419  1.00  0.00    -0.295 N 
ATOM      4  H2  UNL     1       6.228   7.974 128.283  1.00  0.00     0.172 HD
HETATM    5  C2  UNL     1       7.098   8.111 126.426  1.00  0.00     0.328 A 
HETATM    6  O1  UNL     1       7.794   7.047 126.568  1.00  0.00    -0.247 OA
HETATM    7  N3  UNL     1       7.176   8.824 125.285  1.00  0.00    -0.273 N 
ATOM      8  H3  UNL     1       7.800   8.492 124.549  1.00  0.00     0.173 HD
HETATM    9  C3  UNL     1       6.475   9.950 125.067  1.00  0.00     0.280 A 
HETATM   10  O2  UNL     1       6.590  10.577 123.974  1.00  0.00    -0.265 OA
HETATM   11  C4  UNL     1       5.646  10.365 126.083  1.00  0.00     0.153 A 
ENDROOT
BRANCH  11  12
HETATM   12  N4  UNL     1       4.892  11.549 125.884  1.00  0.00    -0.260 N 
ATOM     13  H4  UNL     1       5.271  12.420 126.256  1.00  0.00     0.180 HD
BRANCH  12  14
HETATM   14  S1  UNL     1       3.401  11.621 125.070  1.00  0.00     0.317 S 
HETATM   15  O3  UNL     1       2.947  13.022 124.796  1.00  0.00    -0.183 OA
HETATM   16  O4  UNL     1       2.353  10.953 125.914  1.00  0.00    -0.183 OA
BRANCH  14  17
HETATM   17  N5  UNL     1       3.440  10.802 123.542  1.00  0.00    -0.311 N 
ATOM     18  H52 UNL     1       4.234  10.859 122.902  1.00  0.00     0.170 HD
ATOM     19  H51 UNL     1       2.590  10.268 123.365  1.00  0.00     0.170 HD
ENDBRANCH  14  17
ENDBRANCH  12  14
ENDBRANCH  11  12
TORSDOF 3
ENDMDL
MODEL 3
REMARK VINA RESULT: -4.307723461      4.829      6.238
REMARK  3 active torsions:
REMARK  status: ('A' for Active; 'I' for Inactive)
REMARK    1  A    between atoms: C4_11  and  N4_12 
REMARK    2  A    between atoms: N4_12  and  S1_14 
REMARK    3  A    between atoms: S1_14  and  N5_15 
ROOT
HETATM    1  N1  UNL     1      11.171  12.292 123.108  1.00  0.00    -0.080 NA
HETATM    2  C1  UNL     1      10.543  11.384 122.204  1.00  0.00     0.153 A 
HETATM    3  N2  UNL     1      11.131  11.035 121.047  1.00  0.00    -0.295 N 
ATOM      4  H2  UNL     1      12.042  11.419 120.797  1.00  0.00     0.172 HD
HETATM    5  C2  UNL     1      10.507  10.178 120.225  1.00  0.00     0.328 A 
HETATM    6  O1  UNL     1      11.062   9.843 119.122  1.00  0.00    -0.247 OA
HETATM    7  N3  UNL     1       9.303   9.672 120.559  1.00  0.00    -0.273 N 
ATOM      8  H3  UNL     1       8.855   9.023 119.912  1.00  0.00     0.173 HD
HETATM    9  C3  UNL     1       8.663   9.980 121.700  1.00  0.00     0.280 A 
HETATM   10  O2  UNL     1       7.533   9.473 121.960  1.00  0.00    -0.265 OA
HETATM   11  C4  UNL     1       9.299  10.859 122.545  1.00  0.00     0.153 A 
ENDROOT
BRANCH  11  12
HETATM   12  N4  UNL     1       8.650  11.204 123.757  1.00  0.00    -0.260 N 
ATOM     13  H4  UNL     1       8.228  12.131 123.822  1.00  0.00     0.180 HD
BRANCH  12  14
HETATM   14  S1  UNL     1       8.523  10.183 125.111  1.00  0.00     0.317 S 
HETATM   15  O3  UNL     1       8.403  10.930 126.403  1.00  0.00    -0.183 OA
HETATM   16  O4  UNL     1       9.754   9.323 125.188  1.00  0.00    -0.183 OA
BRANCH  14  17
HETATM   17  N5  UNL     1       7.153   9.124 125.017  1.00  0.00    -0.311 N 
ATOM     18  H52 UNL     1       6.204   9.459 124.847  1.00  0.00     0.170 HD
ATOM     19  H51 UNL     1       7.407   8.146 125.151  1.00  0.00     0.170 HD
ENDBRANCH  14  17
ENDBRANCH  12  14
ENDBRANCH  11  12
TORSDOF 3
ENDMDL
MODEL 4
REMARK VINA RESULT: -4.293014399      4.877      5.953
REMARK  3 active torsions:
REMARK  status: ('A' for Active; 'I' for Inactive)
REMARK    1  A    between atoms: C4_11  and  N4_12 
REMARK    2  A    between atoms: N4_12  and  S1_14 
REMARK    3  A    between atoms: S1_14  and  N5_15 
ROOT
HETATM    1  N1  UNL     1      11.053  12.309 123.043  1.00  0.00    -0.080 NA
HETATM    2  C1  UNL     1      10.539  11.325 122.147  1.00  0.00     0.153 A 
HETATM    3  N2  UNL     1      10.994  11.227 120.886  1.00  0.00    -0.295 N 
ATOM      4  H2  UNL     1      11.719  11.860 120.549  1.00  0.00     0.172 HD
HETATM    5  C2  UNL     1      10.484  10.287 120.074  1.00  0.00     0.328 A 
HETATM    6  O1  UNL     1      10.913  10.189 118.873  1.00  0.00    -0.247 OA
HETATM    7  N3  UNL     1       9.526   9.452 120.522  1.00  0.00    -0.273 N 
ATOM      8  H3  UNL     1       9.159   8.748 119.881  1.00  0.00     0.173 HD
HETATM    9  C3  UNL     1       9.030   9.497 121.770  1.00  0.00     0.280 A 
HETATM   10  O2  UNL     1       8.130   8.685 122.135  1.00  0.00    -0.265 OA
HETATM   11  C4  UNL     1       9.550  10.460 122.605  1.00  0.00     0.153 A 
ENDROOT
BRANCH  11  12
HETATM   12  N4  UNL     1       9.047  10.534 123.928  1.00  0.00    -0.260 N 
ATOM     13  H4  UNL     1       9.575  10.063 124.663  1.00  0.00     0.180 HD
BRANCH  12  14
HETATM   14  S1  UNL     1       7.626  11.352 124.378  1.00  0.00     0.317 S 
HETATM   15  O3  UNL     1       7.618  12.791 123.963  1.00  0.00    -0.183 OA
HETATM   16  O4  UNL     1       7.489  11.303 125.874  1.00  0.00    -0.183 OA
BRANCH  14  17
HETATM   17  N5  UNL     1       6.203  10.630 123.700  1.00  0.00    -0.311 N 
ATOM     18  H52 UNL     1       6.178   9.669 123.358  1.00  0.00     0.170 HD
ATOM     19  H51 UNL     1       5.410  11.271 123.686  1.00  0.00     0.170 HD
ENDBRANCH  14  17
ENDBRANCH  12  14
ENDBRANCH  11  12
TORSDOF 3
ENDMDL
MODEL 5
REMARK VINA RESULT: -4.273771585     10.139     11.292
REMARK  3 active torsions:
REMARK  status: ('A' for Active; 'I' for Inactive)
REMARK    1  A    between atoms: C4_11  and  N4_12 
REMARK    2  A    between atoms: N4_12  and  S1_14 
REMARK    3  A    between atoms: S1_14  and  N5_15 
ROOT
HETATM    1  N1  UNL     1      12.121  13.896 117.413  1.00  0.00    -0.080 NA
HETATM    2  C1  UNL     1      11.765  12.517 117.501  1.00  0.00     0.153 A 
HETATM    3  N2  UNL     1      11.802  11.862 118.674  1.00  0.00    -0.295 N 
ATOM      4  H2  UNL     1      12.088  12.346 119.525  1.00  0.00     0.172 HD
HETATM    5  C2  UNL     1      11.459  10.565 118.713  1.00  0.00     0.328 A 
HETATM    6  O1  UNL     1      11.493   9.936 119.827  1.00  0.00    -0.247 OA
HETATM    7  N3  UNL     1      11.081   9.929 117.587  1.00  0.00    -0.273 N 
ATOM      8  H3  UNL     1      10.826   8.943 117.651  1.00  0.00     0.173 HD
HETATM    9  C3  UNL     1      11.023  10.526 116.385  1.00  0.00     0.280 A 
HETATM   10  O2  UNL     1      10.660   9.877 115.361  1.00  0.00    -0.265 OA
HETATM   11  C4  UNL     1      11.374  11.856 116.340  1.00  0.00     0.153 A 
ENDROOT
BRANCH  11  12
HETATM   12  N4  UNL     1      11.323  12.515 115.086  1.00  0.00    -0.260 N 
ATOM     13  H4  UNL     1      12.177  12.539 114.528  1.00  0.00     0.180 HD
BRANCH  12  14
HETATM   14  S1  UNL     1       9.939  13.268 114.445  1.00  0.00     0.317 S 
HETATM   15  O3  UNL     1       9.875  14.734 114.746  1.00  0.00    -0.183 OA
HETATM   16  O4  UNL     1       8.717  12.622 115.034  1.00  0.00    -0.183 OA
BRANCH  14  17
HETATM   17  N5  UNL     1       9.835  13.107 112.722  1.00  0.00    -0.311 N 
ATOM     18  H52 UNL     1       9.292  13.743 112.138  1.00  0.00     0.170 HD
ATOM     19  H51 UNL     1      10.373  12.315 112.372  1.00  0.00     0.170 HD
ENDBRANCH  14  17
ENDBRANCH  12  14
ENDBRANCH  11  12
TORSDOF 3
ENDMDL
