MODEL 1
REMARK VINA RESULT: -5.270037419      0.000      0.000
REMARK  3 active torsions:
REMARK  status: ('A' for Active; 'I' for Inactive)
REMARK    1  A    between atoms: N1_1  and  C1_4 
REMARK    2  A    between atoms: C3_8  and  C4_9 
REMARK    3  A    between atoms: N3_10  and  N4_12 
ROOT
HETATM    1  C1  UNL     1      11.110  11.428 121.193  1.00  0.00     0.141 C 
HETATM    2  N2  UNL     1      10.691  11.871 122.410  1.00  0.00    -0.349 N 
ATOM      3  H2  UNL     1      11.137  12.713 122.773  1.00  0.00     0.167 HD
HETATM    4  C2  UNL     1       9.744  11.302 123.182  1.00  0.00     0.108 C 
HETATM    5  C3  UNL     1       8.688  10.516 122.789  1.00  0.00     0.064 C 
HETATM    6  C6  UNL     1       8.806   9.508 121.813  1.00  0.00     0.259 C 
HETATM    7  O1  UNL     1       7.996   8.552 121.890  1.00  0.00    -0.267 OA
HETATM    8  N7  UNL     1       9.712   9.477 120.801  1.00  0.00    -0.308 N 
ATOM      9  H7  UNL     1       9.586   8.699 120.154  1.00  0.00     0.170 HD
HETATM   10  C7  UNL     1      10.744  10.282 120.495  1.00  0.00     0.163 C 
HETATM   11  N8  UNL     1      11.539   9.938 119.356  1.00  0.00    -0.079 NA
ENDROOT
BRANCH   5  12
HETATM   12  C4  UNL     1       7.385  10.645 123.359  1.00  0.00     0.125 C 
HETATM   13  N3  UNL     1       6.881   9.954 124.259  1.00  0.00    -0.309 N 
ATOM     14  H3  UNL     1       5.930  10.206 124.529  1.00  0.00     0.186 HD
BRANCH  13  15
HETATM   15  N4  UNL     1       7.423   8.910 124.931  1.00  0.00    -0.276 N 
HETATM   16  C5  UNL     1       6.899   8.486 126.023  1.00  0.00     0.215 C 
HETATM   17  N5  UNL     1       7.523   7.384 126.673  1.00  0.00    -0.065 NA
HETATM   18  N6  UNL     1       5.737   9.101 126.555  1.00  0.00    -0.065 NA
ATOM     19  H4  UNL     1       8.259   8.455 124.564  1.00  0.00     0.189 HD
ENDBRANCH  13  15
ENDBRANCH   5  12
BRANCH   1  20
HETATM   20  N1  UNL     1      11.974  12.145 120.557  1.00  0.00    -0.383 N 
ATOM     21  H12 UNL     1      12.915  11.752 120.592  1.00  0.00     0.157 HD
ATOM     22  H11 UNL     1      11.643  12.996 120.103  1.00  0.00     0.157 HD
ENDBRANCH   1  20
TORSDOF 3
ENDMDL
MODEL 2
REMARK VINA RESULT: -5.230958463      1.934      2.967
REMARK  3 active torsions:
REMARK  status: ('A' for Active; 'I' for Inactive)
REMARK    1  A    between atoms: N1_1  and  C1_4 
REMARK    2  A    between atoms: C3_8  and  C4_9 
REMARK    3  A    between atoms: N3_10  and  N4_12 
ROOT
HETATM    1  C1  UNL     1      10.178  10.303 120.881  1.00  0.00     0.141 C 
HETATM    2  N2  UNL     1       9.014   9.600 120.939  1.00  0.00    -0.349 N 
ATOM      3  H2  UNL     1       8.854   8.912 120.203  1.00  0.00     0.167 HD
HETATM    4  C2  UNL     1       8.054   9.724 121.876  1.00  0.00     0.108 C 
HETATM    5  C3  UNL     1       8.184  10.162 123.173  1.00  0.00     0.064 C 
HETATM    6  C6  UNL     1       8.981  11.265 123.530  1.00  0.00     0.259 C 
HETATM    7  O1  UNL     1       8.651  11.885 124.572  1.00  0.00    -0.267 OA
HETATM    8  N7  UNL     1      10.070  11.719 122.855  1.00  0.00    -0.308 N 
ATOM      9  H7  UNL     1      10.556  12.486 123.318  1.00  0.00     0.170 HD
HETATM   10  C7  UNL     1      10.624  11.343 121.690  1.00  0.00     0.163 C 
HETATM   11  N8  UNL     1      11.771  12.068 121.236  1.00  0.00    -0.079 NA
ENDROOT
BRANCH   5  12
HETATM   12  C4  UNL     1       7.499   9.542 124.261  1.00  0.00     0.125 C 
HETATM   13  N3  UNL     1       6.402   9.861 124.746  1.00  0.00    -0.309 N 
ATOM     14  H3  UNL     1       6.081   9.289 125.528  1.00  0.00     0.186 HD
BRANCH  13  15
HETATM   15  N4  UNL     1       5.574  10.868 124.378  1.00  0.00    -0.276 N 
HETATM   16  C5  UNL     1       4.476  11.082 125.008  1.00  0.00     0.215 C 
HETATM   17  N5  UNL     1       3.656  12.157 124.565  1.00  0.00    -0.065 NA
HETATM   18  N6  UNL     1       4.102  10.268 126.107  1.00  0.00    -0.065 NA
ATOM     19  H4  UNL     1       5.826  11.464 123.589  1.00  0.00     0.189 HD
ENDBRANCH  13  15
ENDBRANCH   5  12
BRANCH   1  20
HETATM   20  N1  UNL     1      11.021   9.995 119.954  1.00  0.00    -0.383 N 
ATOM     21  H12 UNL     1      11.088   8.989 119.801  1.00  0.00     0.157 HD
ATOM     22  H11 UNL     1      11.515  10.756 119.488  1.00  0.00     0.157 HD
ENDBRANCH   1  20
TORSDOF 3
ENDMDL
MODEL 3
REMARK VINA RESULT: -4.894255472      8.585      9.849
REMARK  3 active torsions:
REMARK  status: ('A' for Active; 'I' for Inactive)
REMARK    1  A    between atoms: N1_1  and  C1_4 
REMARK    2  A    between atoms: C3_8  and  C4_9 
REMARK    3  A    between atoms: N3_10  and  N4_12 
ROOT
HETATM    1  C1  UNL     1      13.715   6.549 114.195  1.00  0.00     0.141 C 
HETATM    2  N2  UNL     1      14.765   5.873 114.737  1.00  0.00    -0.349 N 
ATOM      3  H2  UNL     1      15.117   5.072 114.213  1.00  0.00     0.167 HD
HETATM    4  C2  UNL     1      15.383   6.160 115.899  1.00  0.00     0.108 C 
HETATM    5  C3  UNL     1      15.470   7.374 116.537  1.00  0.00     0.064 C 
HETATM    6  C6  UNL     1      14.383   8.262 116.644  1.00  0.00     0.259 C 
HETATM    7  O1  UNL     1      14.390   9.046 117.626  1.00  0.00    -0.267 OA
HETATM    8  N7  UNL     1      13.333   8.347 115.787  1.00  0.00    -0.308 N 
ATOM      9  H7  UNL     1      12.685   9.107 115.998  1.00  0.00     0.170 HD
HETATM   10  C7  UNL     1      12.988   7.617 114.713  1.00  0.00     0.163 C 
HETATM   11  N8  UNL     1      11.774   7.958 114.040  1.00  0.00    -0.079 NA
ENDROOT
BRANCH   5  12
HETATM   12  C4  UNL     1      16.672   7.823 117.164  1.00  0.00     0.125 C 
HETATM   13  N3  UNL     1      16.972   7.751 118.366  1.00  0.00    -0.309 N 
ATOM     14  H3  UNL     1      17.884   8.132 118.618  1.00  0.00     0.186 HD
BRANCH  13  15
HETATM   15  N4  UNL     1      16.250   7.232 119.390  1.00  0.00    -0.276 N 
HETATM   16  C5  UNL     1      16.817   6.543 120.312  1.00  0.00     0.215 C 
HETATM   17  N5  UNL     1      15.996   6.031 121.356  1.00  0.00    -0.065 NA
HETATM   18  N6  UNL     1      18.215   6.305 120.283  1.00  0.00    -0.065 NA
ATOM     19  H4  UNL     1      15.244   7.392 119.428  1.00  0.00     0.189 HD
ENDBRANCH  13  15
ENDBRANCH   5  12
BRANCH   1  20
HETATM   20  N1  UNL     1      13.299   6.181 113.030  1.00  0.00    -0.383 N 
ATOM     21  H12 UNL     1      12.701   5.356 113.069  1.00  0.00     0.157 HD
ATOM     22  H11 UNL     1      13.598   6.729 112.224  1.00  0.00     0.157 HD
ENDBRANCH   1  20
TORSDOF 3
ENDMDL
MODEL 4
REMARK VINA RESULT: -4.826390310      2.466      5.958
REMARK  3 active torsions:
REMARK  status: ('A' for Active; 'I' for Inactive)
REMARK    1  A    between atoms: N1_1  and  C1_4 
REMARK    2  A    between atoms: C3_8  and  C4_9 
REMARK    3  A    between atoms: N3_10  and  N4_12 
ROOT
HETATM    1  C1  UNL     1       4.862  12.223 125.277  1.00  0.00     0.141 C 
HETATM    2  N2  UNL     1       5.861  12.887 124.633  1.00  0.00    -0.349 N 
ATOM      3  H2  UNL     1       5.745  13.894 124.519  1.00  0.00     0.167 HD
HETATM    4  C2  UNL     1       6.987  12.342 124.134  1.00  0.00     0.108 C 
HETATM    5  C3  UNL     1       7.626  11.193 124.536  1.00  0.00     0.064 C 
HETATM    6  C6  UNL     1       6.937  10.010 124.862  1.00  0.00     0.259 C 
HETATM    7  O1  UNL     1       7.566   8.933 124.713  1.00  0.00    -0.267 OA
HETATM    8  N7  UNL     1       5.661   9.927 125.321  1.00  0.00    -0.308 N 
ATOM      9  H7  UNL     1       5.369   8.982 125.570  1.00  0.00     0.170 HD
HETATM   10  C7  UNL     1       4.711  10.859 125.506  1.00  0.00     0.163 C 
HETATM   11  N8  UNL     1       3.435  10.421 125.980  1.00  0.00    -0.079 NA
ENDROOT
BRANCH   5  12
HETATM   12  C4  UNL     1       9.047  11.104 124.635  1.00  0.00     0.125 C 
HETATM   13  N3  UNL     1       9.844  10.714 123.767  1.00  0.00    -0.309 N 
ATOM     14  H3  UNL     1      10.828  10.724 124.034  1.00  0.00     0.186 HD
BRANCH  13  15
HETATM   15  N4  UNL     1       9.581  10.278 122.511  1.00  0.00    -0.276 N 
HETATM   16  C5  UNL     1      10.263   9.324 121.990  1.00  0.00     0.215 C 
HETATM   17  N5  UNL     1       9.930   8.918 120.667  1.00  0.00    -0.065 NA
HETATM   18  N6  UNL     1      11.310   8.702 122.716  1.00  0.00    -0.065 NA
ATOM     19  H4  UNL     1       8.832  10.713 121.973  1.00  0.00     0.189 HD
ENDBRANCH  13  15
ENDBRANCH   5  12
BRANCH   1  20
HETATM   20  N1  UNL     1       3.890  12.921 125.761  1.00  0.00    -0.383 N 
ATOM     21  H12 UNL     1       3.783  13.822 125.296  1.00  0.00     0.157 HD
ATOM     22  H11 UNL     1       3.351  12.518 126.527  1.00  0.00     0.157 HD
ENDBRANCH   1  20
TORSDOF 3
ENDMDL
MODEL 5
REMARK VINA RESULT: -4.506524925      2.093      5.570
REMARK  3 active torsions:
REMARK  status: ('A' for Active; 'I' for Inactive)
REMARK    1  A    between atoms: N1_1  and  C1_4 
REMARK    2  A    between atoms: C3_8  and  C4_9 
REMARK    3  A    between atoms: N3_10  and  N4_12 
ROOT
HETATM    1  C1  UNL     1       5.914  12.609 124.668  1.00  0.00     0.141 C 
HETATM    2  N2  UNL     1       7.150  13.171 124.567  1.00  0.00    -0.349 N 
ATOM      3  H2  UNL     1       7.259  14.114 124.939  1.00  0.00     0.167 HD
HETATM    4  C2  UNL     1       8.242  12.601 124.022  1.00  0.00     0.108 C 
HETATM    5  C3  UNL     1       8.530  11.262 123.901  1.00  0.00     0.064 C 
HETATM    6  C6  UNL     1       7.571  10.306 123.517  1.00  0.00     0.259 C 
HETATM    7  O1  UNL     1       8.003   9.270 122.952  1.00  0.00    -0.267 OA
HETATM    8  N7  UNL     1       6.229  10.400 123.703  1.00  0.00    -0.308 N 
ATOM      9  H7  UNL     1       5.711   9.567 123.422  1.00  0.00     0.170 HD
HETATM   10  C7  UNL     1       5.456  11.387 124.187  1.00  0.00     0.163 C 
HETATM   11  N8  UNL     1       4.043  11.171 124.213  1.00  0.00    -0.079 NA
ENDROOT
BRANCH   5  12
HETATM   12  C4  UNL     1       9.837  10.738 124.134  1.00  0.00     0.125 C 
HETATM   13  N3  UNL     1      10.718  10.498 123.293  1.00  0.00    -0.309 N 
ATOM     14  H3  UNL     1      11.592  10.122 123.662  1.00  0.00     0.186 HD
BRANCH  13  15
HETATM   15  N4  UNL     1      10.676  10.669 121.949  1.00  0.00    -0.276 N 
HETATM   16  C5  UNL     1      10.900   9.687 121.153  1.00  0.00     0.215 C 
HETATM   17  N5  UNL     1      10.838   9.941 119.754  1.00  0.00    -0.065 NA
HETATM   18  N6  UNL     1      11.199   8.397 121.661  1.00  0.00    -0.065 NA
ATOM     19  H4  UNL     1      10.462  11.589 121.565  1.00  0.00     0.189 HD
ENDBRANCH  13  15
ENDBRANCH   5  12
BRANCH   1  20
HETATM   20  N1  UNL     1       5.001  13.273 125.294  1.00  0.00    -0.383 N 
ATOM     21  H12 UNL     1       4.302  13.669 124.666  1.00  0.00     0.157 HD
ATOM     22  H11 UNL     1       5.069  13.331 126.310  1.00  0.00     0.157 HD
ENDBRANCH   1  20
TORSDOF 3
ENDMDL
