MODEL 1
REMARK VINA RESULT: -4.475724517      0.000      0.000
REMARK  4 active torsions:
REMARK  status: ('A' for Active; 'I' for Inactive)
REMARK    1  A    between atoms: N1_1  and  C1_4 
REMARK    2  A    between atoms: C2_7  and  N3_8 
REMARK    3  A    between atoms: N4_11  and  S1_12 
REMARK    4  A    between atoms: S1_12  and  N5_15 
ROOT
HETATM    1  C1  UNL     1       4.905  11.212 123.914  1.00  0.00     0.706 A 
HETATM    2  N2  UNL     1       5.260  12.509 124.093  1.00  0.00    -0.019 N 
ATOM      3  H2  UNL     1       4.643  13.322 124.119  1.00  0.00     0.203 HD
HETATM    4  C2  UNL     1       6.594  12.496 124.231  1.00  0.00     0.723 A 
HETATM    5  N4  UNL     1       7.078  11.249 124.144  1.00  0.00     0.026 N 
HETATM    6  N8  UNL     1       6.029  10.473 123.949  1.00  0.00    -0.100 N 
ATOM      7  H8  UNL     1       6.065   9.460 123.841  1.00  0.00     0.207 HD
ENDROOT
BRANCH   5   8
HETATM    8  S1  UNL     1       8.752  10.816 124.271  1.00  0.00     0.360 S 
HETATM    9  O1  UNL     1       9.381  11.816 125.231  1.00  0.00    -0.180 OA
HETATM   10  O2  UNL     1       8.891   9.472 124.927  1.00  0.00    -0.180 OA
BRANCH   8  11
HETATM   11  N5  UNL     1       9.482  10.856 122.737  1.00  0.00    -0.241 N 
HETATM   12  C3  UNL     1       9.177   9.999 121.836  1.00  0.00     0.211 C 
HETATM   13  N6  UNL     1       8.219   9.002 122.120  1.00  0.00    -0.066 NA
HETATM   14  N7  UNL     1       9.788  10.039 120.568  1.00  0.00    -0.066 NA
ATOM     15  H5  UNL     1      10.174  11.576 122.530  1.00  0.00     0.182 HD
ENDBRANCH   8  11
ENDBRANCH   5   8
BRANCH   4  16
HETATM   16  N3  UNL     1       7.336  13.554 124.425  1.00  0.00    -0.232 N 
ATOM     17  H32 UNL     1       8.152  13.789 123.860  1.00  0.00     0.174 HD
ATOM     18  H31 UNL     1       7.180  14.251 125.154  1.00  0.00     0.174 HD
ENDBRANCH   4  16
BRANCH   1  19
HETATM   19  N1  UNL     1       3.681  10.859 123.747  1.00  0.00    -0.233 N 
ATOM     20  H12 UNL     1       2.834  11.423 123.675  1.00  0.00     0.174 HD
ATOM     21  H11 UNL     1       3.409   9.880 123.662  1.00  0.00     0.174 HD
ENDBRANCH   1  19
TORSDOF 4
ENDMDL
MODEL 2
REMARK VINA RESULT: -4.428157859      1.482      1.686
REMARK  4 active torsions:
REMARK  status: ('A' for Active; 'I' for Inactive)
REMARK    1  A    between atoms: N1_1  and  C1_4 
REMARK    2  A    between atoms: C2_7  and  N3_8 
REMARK    3  A    between atoms: N4_11  and  S1_12 
REMARK    4  A    between atoms: S1_12  and  N5_15 
ROOT
HETATM    1  C1  UNL     1       4.070  11.144 123.782  1.00  0.00     0.706 A 
HETATM    2  N2  UNL     1       3.938  12.106 124.730  1.00  0.00    -0.019 N 
ATOM      3  H2  UNL     1       3.072  12.458 125.138  1.00  0.00     0.203 HD
HETATM    4  C2  UNL     1       5.189  12.496 125.015  1.00  0.00     0.723 A 
HETATM    5  N4  UNL     1       6.087  11.818 124.285  1.00  0.00     0.026 N 
HETATM    6  N8  UNL     1       5.384  10.993 123.535  1.00  0.00    -0.100 N 
ATOM      7  H8  UNL     1       5.779  10.335 122.864  1.00  0.00     0.207 HD
ENDROOT
BRANCH   5   8
HETATM    8  S1  UNL     1       7.805  12.033 124.364  1.00  0.00     0.360 S 
HETATM    9  O1  UNL     1       8.059  13.523 124.191  1.00  0.00    -0.180 OA
HETATM   10  O2  UNL     1       8.308  11.687 125.737  1.00  0.00    -0.180 OA
BRANCH   8  11
HETATM   11  N5  UNL     1       8.564  11.111 123.154  1.00  0.00    -0.241 N 
HETATM   12  C3  UNL     1       8.511   9.832 123.167  1.00  0.00     0.211 C 
HETATM   13  N6  UNL     1       7.812   9.174 124.202  1.00  0.00    -0.066 NA
HETATM   14  N7  UNL     1       9.143   9.075 122.161  1.00  0.00    -0.066 NA
ATOM     15  H5  UNL     1       9.069  11.584 122.406  1.00  0.00     0.182 HD
ENDBRANCH   8  11
ENDBRANCH   5   8
BRANCH   4  16
HETATM   16  N3  UNL     1       5.505  13.417 125.888  1.00  0.00    -0.232 N 
ATOM     17  H32 UNL     1       5.427  14.418 125.713  1.00  0.00     0.174 HD
ATOM     18  H31 UNL     1       5.859  13.233 126.827  1.00  0.00     0.174 HD
ENDBRANCH   4  16
BRANCH   1  19
HETATM   19  N1  UNL     1       3.052  10.545 123.276  1.00  0.00    -0.233 N 
ATOM     20  H12 UNL     1       2.069  10.815 123.256  1.00  0.00     0.174 HD
ATOM     21  H11 UNL     1       3.138   9.650 122.796  1.00  0.00     0.174 HD
ENDBRANCH   1  19
TORSDOF 4
ENDMDL
MODEL 3
REMARK VINA RESULT: -4.378839667      1.187      1.583
REMARK  4 active torsions:
REMARK  status: ('A' for Active; 'I' for Inactive)
REMARK    1  A    between atoms: N1_1  and  C1_4 
REMARK    2  A    between atoms: C2_7  and  N3_8 
REMARK    3  A    between atoms: N4_11  and  S1_12 
REMARK    4  A    between atoms: S1_12  and  N5_15 
ROOT
HETATM    1  C1  UNL     1       4.983  10.835 124.064  1.00  0.00     0.706 A 
HETATM    2  N2  UNL     1       5.038  10.357 125.333  1.00  0.00    -0.019 N 
ATOM      3  H2  UNL     1       4.253  10.140 125.948  1.00  0.00     0.203 HD
HETATM    4  C2  UNL     1       6.344  10.229 125.607  1.00  0.00     0.723 A 
HETATM    5  N4  UNL     1       7.097  10.608 124.564  1.00  0.00     0.026 N 
HETATM    6  N8  UNL     1       6.246  10.976 123.626  1.00  0.00    -0.100 N 
ATOM      7  H8  UNL     1       6.508  11.318 122.702  1.00  0.00     0.207 HD
ENDROOT
BRANCH   5   8
HETATM    8  S1  UNL     1       8.830  10.590 124.524  1.00  0.00     0.360 S 
HETATM    9  O1  UNL     1       9.292  11.710 125.445  1.00  0.00    -0.180 OA
HETATM   10  O2  UNL     1       9.349   9.318 125.132  1.00  0.00    -0.180 OA
BRANCH   8  11
HETATM   11  N5  UNL     1       9.379  10.806 122.930  1.00  0.00    -0.241 N 
HETATM   12  C3  UNL     1       9.067   9.979 122.005  1.00  0.00     0.211 C 
HETATM   13  N6  UNL     1       8.253   8.866 122.312  1.00  0.00    -0.066 NA
HETATM   14  N7  UNL     1       9.527  10.165 120.687  1.00  0.00    -0.066 NA
ATOM     15  H5  UNL     1       9.967  11.609 122.707  1.00  0.00     0.182 HD
ENDBRANCH   8  11
ENDBRANCH   5   8
BRANCH   4  16
HETATM   16  N3  UNL     1       6.833   9.794 126.739  1.00  0.00    -0.232 N 
ATOM     17  H32 UNL     1       7.720   9.299 126.823  1.00  0.00     0.174 HD
ATOM     18  H31 UNL     1       6.384   9.903 127.648  1.00  0.00     0.174 HD
ENDBRANCH   4  16
BRANCH   1  19
HETATM   19  N1  UNL     1       3.865  11.076 123.478  1.00  0.00    -0.233 N 
ATOM     20  H12 UNL     1       3.154  11.782 123.672  1.00  0.00     0.174 HD
ATOM     21  H11 UNL     1       3.547  10.528 122.678  1.00  0.00     0.174 HD
ENDBRANCH   1  19
TORSDOF 4
ENDMDL
MODEL 4
REMARK VINA RESULT: -4.331817683      4.460      5.968
REMARK  4 active torsions:
REMARK  status: ('A' for Active; 'I' for Inactive)
REMARK    1  A    between atoms: N1_1  and  C1_4 
REMARK    2  A    between atoms: C2_7  and  N3_8 
REMARK    3  A    between atoms: N4_11  and  S1_12 
REMARK    4  A    between atoms: S1_12  and  N5_15 
ROOT
HETATM    1  C1  UNL     1       9.047   9.796 121.400  1.00  0.00     0.706 A 
HETATM    2  N2  UNL     1       9.762  10.718 122.093  1.00  0.00    -0.019 N 
ATOM      3  H2  UNL     1       9.600  11.036 123.049  1.00  0.00     0.203 HD
HETATM    4  C2  UNL     1      10.726  11.122 121.253  1.00  0.00     0.723 A 
HETATM    5  N4  UNL     1      10.637  10.491 120.073  1.00  0.00     0.026 N 
HETATM    6  N8  UNL     1       9.603   9.681 120.180  1.00  0.00    -0.100 N 
ATOM      7  H8  UNL     1       9.271   9.058 119.445  1.00  0.00     0.207 HD
ENDROOT
BRANCH   5   8
HETATM    8  S1  UNL     1      11.701  10.738 118.726  1.00  0.00     0.360 S 
HETATM    9  O1  UNL     1      11.836  12.244 118.558  1.00  0.00    -0.180 OA
HETATM   10  O2  UNL     1      13.078  10.236 119.054  1.00  0.00    -0.180 OA
BRANCH   8  11
HETATM   11  N5  UNL     1      11.064   9.994 117.337  1.00  0.00    -0.241 N 
HETATM   12  C3  UNL     1      11.710   9.994 116.232  1.00  0.00     0.211 C 
HETATM   13  N6  UNL     1      12.973  10.620 116.164  1.00  0.00    -0.066 NA
HETATM   14  N7  UNL     1      11.174   9.376 115.085  1.00  0.00    -0.066 NA
ATOM     15  H5  UNL     1      10.152   9.541 117.384  1.00  0.00     0.182 HD
ENDBRANCH   8  11
ENDBRANCH   5   8
BRANCH   4  16
HETATM   16  N3  UNL     1      11.639  12.015 121.536  1.00  0.00    -0.232 N 
ATOM     17  H32 UNL     1      11.841  12.341 122.480  1.00  0.00     0.174 HD
ATOM     18  H31 UNL     1      12.239  12.473 120.851  1.00  0.00     0.174 HD
ENDBRANCH   4  16
BRANCH   1  19
HETATM   19  N1  UNL     1       8.033   9.196 121.914  1.00  0.00    -0.233 N 
ATOM     20  H12 UNL     1       7.235   9.568 122.428  1.00  0.00     0.174 HD
ATOM     21  H11 UNL     1       7.917   8.185 121.851  1.00  0.00     0.174 HD
ENDBRANCH   1  19
TORSDOF 4
ENDMDL
MODEL 5
REMARK VINA RESULT: -4.325686234      7.714     10.369
REMARK  4 active torsions:
REMARK  status: ('A' for Active; 'I' for Inactive)
REMARK    1  A    between atoms: N1_1  and  C1_4 
REMARK    2  A    between atoms: C2_7  and  N3_8 
REMARK    3  A    between atoms: N4_11  and  S1_12 
REMARK    4  A    between atoms: S1_12  and  N5_15 
ROOT
HETATM    1  C1  UNL     1      14.476   7.672 116.166  1.00  0.00     0.706 A 
HETATM    2  N2  UNL     1      13.829   7.044 115.152  1.00  0.00    -0.019 N 
ATOM      3  H2  UNL     1      14.072   6.153 114.719  1.00  0.00     0.203 HD
HETATM    4  C2  UNL     1      12.800   7.846 114.839  1.00  0.00     0.723 A 
HETATM    5  N4  UNL     1      12.785   8.940 115.614  1.00  0.00     0.026 N 
HETATM    6  N8  UNL     1      13.819   8.817 116.423  1.00  0.00    -0.100 N 
ATOM      7  H8  UNL     1      14.082   9.492 117.139  1.00  0.00     0.207 HD
ENDROOT
BRANCH   5   8
HETATM    8  S1  UNL     1      11.613  10.214 115.519  1.00  0.00     0.360 S 
HETATM    9  O1  UNL     1      11.661  10.735 114.090  1.00  0.00    -0.180 OA
HETATM   10  O2  UNL     1      10.230   9.662 115.709  1.00  0.00    -0.180 OA
BRANCH   8  11
HETATM   11  N5  UNL     1      11.979  11.427 116.653  1.00  0.00    -0.241 N 
HETATM   12  C3  UNL     1      11.828  11.225 117.908  1.00  0.00     0.211 C 
HETATM   13  N6  UNL     1      11.350   9.976 118.360  1.00  0.00    -0.066 NA
HETATM   14  N7  UNL     1      12.132  12.236 118.841  1.00  0.00    -0.066 NA
ATOM     15  H5  UNL     1      12.324  12.329 116.329  1.00  0.00     0.182 HD
ENDBRANCH   8  11
ENDBRANCH   5   8
BRANCH   4  16
HETATM   16  N3  UNL     1      11.921   7.604 113.902  1.00  0.00    -0.232 N 
ATOM     17  H32 UNL     1      12.065   6.935 113.146  1.00  0.00     0.174 HD
ATOM     18  H31 UNL     1      11.008   8.052 113.828  1.00  0.00     0.174 HD
ENDBRANCH   4  16
BRANCH   1  19
HETATM   19  N1  UNL     1      15.525   7.171 116.714  1.00  0.00    -0.233 N 
ATOM     20  H12 UNL     1      16.008   7.428 117.575  1.00  0.00     0.174 HD
ATOM     21  H11 UNL     1      16.027   6.387 116.299  1.00  0.00     0.174 HD
ENDBRANCH   1  19
TORSDOF 4
ENDMDL
