MODEL 1
REMARK VINA RESULT: -4.325681769      0.000      0.000
REMARK  4 active torsions:
REMARK  status: ('A' for Active; 'I' for Inactive)
REMARK    1  A    between atoms: N1_1  and  N2_4 
REMARK    2  A    between atoms: N2_4  and  C1_6 
REMARK    3  A    between atoms: C2_11  and  S1_12 
REMARK    4  A    between atoms: S1_12  and  N5_13 
ROOT
HETATM    1  C1  UNL     1       4.589  12.036   7.896  1.00  0.00     0.180 A 
HETATM    2  N3  UNL     1       4.221  11.609   9.106  1.00  0.00    -0.277 N 
ATOM      3  H3  UNL     1       4.239  10.616   9.337  1.00  0.00     0.189 HD
HETATM    4  N4  UNL     1       3.846  12.467   9.962  1.00  0.00    -0.281 N 
ATOM      5  H4  UNL     1       3.561  12.155  10.890  1.00  0.00     0.188 HD
HETATM    6  C2  UNL     1       3.817  13.745   9.678  1.00  0.00     0.208 A 
HETATM    7  S2  UNL     1       4.373  13.727   8.043  1.00  0.00    -0.018 SA
ENDROOT
BRANCH   6   8
HETATM    8  S1  UNL     1       3.339  15.118  10.690  1.00  0.00     0.280 S 
HETATM    9  O1  UNL     1       1.977  15.578  10.253  1.00  0.00    -0.199 OA
HETATM   10  O2  UNL     1       3.248  14.699  12.121  1.00  0.00    -0.199 OA
BRANCH   8  11
HETATM   11  N5  UNL     1       4.485  16.391  10.470  1.00  0.00    -0.323 N 
ATOM     12  H52 UNL     1       5.476  16.257  10.269  1.00  0.00     0.169 HD
ATOM     13  H51 UNL     1       4.004  17.285  10.575  1.00  0.00     0.169 HD
ENDBRANCH   8  11
ENDBRANCH   6   8
BRANCH   1  14
HETATM   14  N2  UNL     1       5.004  11.318   6.880  1.00  0.00    -0.285 N 
ATOM     15  H2  UNL     1       4.420  11.199   6.052  1.00  0.00     0.188 HD
BRANCH  14  16
HETATM   16  N1  UNL     1       6.276  10.713   6.959  1.00  0.00    -0.343 N 
ATOM     17  H12 UNL     1       6.355   9.696   6.968  1.00  0.00     0.176 HD
ATOM     18  H11 UNL     1       7.098  11.315   7.006  1.00  0.00     0.176 HD
ENDBRANCH  14  16
ENDBRANCH   1  14
TORSDOF 4
ENDMDL
MODEL 2
REMARK VINA RESULT: -4.313444533      3.228      4.998
REMARK  4 active torsions:
REMARK  status: ('A' for Active; 'I' for Inactive)
REMARK    1  A    between atoms: N1_1  and  N2_4 
REMARK    2  A    between atoms: N2_4  and  C1_6 
REMARK    3  A    between atoms: C2_11  and  S1_12 
REMARK    4  A    between atoms: S1_12  and  N5_13 
ROOT
HETATM    1  C1  UNL     1       3.714  13.957   9.980  1.00  0.00     0.180 A 
HETATM    2  N3  UNL     1       3.708  12.638  10.180  1.00  0.00    -0.277 N 
ATOM      3  H3  UNL     1       3.386  12.245  11.065  1.00  0.00     0.189 HD
HETATM    4  N4  UNL     1       4.113  11.882   9.245  1.00  0.00    -0.281 N 
ATOM      5  H4  UNL     1       4.115  10.872   9.385  1.00  0.00     0.188 HD
HETATM    6  C2  UNL     1       4.530  12.373   8.105  1.00  0.00     0.208 A 
HETATM    7  S2  UNL     1       4.328  14.064   8.387  1.00  0.00    -0.018 SA
ENDROOT
BRANCH   6   8
HETATM    8  S1  UNL     1       5.135  11.534   6.667  1.00  0.00     0.280 S 
HETATM    9  O1  UNL     1       6.109  10.478   7.109  1.00  0.00    -0.199 OA
HETATM   10  O2  UNL     1       4.013  10.858   5.950  1.00  0.00    -0.199 OA
BRANCH   8  11
HETATM   11  N5  UNL     1       5.938  12.682   5.656  1.00  0.00    -0.323 N 
ATOM     12  H52 UNL     1       6.947  12.731   5.516  1.00  0.00     0.169 HD
ATOM     13  H51 UNL     1       5.237  13.290   5.233  1.00  0.00     0.169 HD
ENDBRANCH   8  11
ENDBRANCH   6   8
BRANCH   1  14
HETATM   14  N2  UNL     1       3.339  14.899  10.811  1.00  0.00    -0.285 N 
ATOM     15  H2  UNL     1       2.462  14.822  11.328  1.00  0.00     0.188 HD
BRANCH  14  16
HETATM   16  N1  UNL     1       4.176  16.024  10.975  1.00  0.00    -0.343 N 
ATOM     17  H12 UNL     1       3.832  16.952  10.727  1.00  0.00     0.176 HD
ATOM     18  H11 UNL     1       5.116  15.880  11.344  1.00  0.00     0.176 HD
ENDBRANCH  14  16
ENDBRANCH   1  14
TORSDOF 4
ENDMDL
MODEL 3
REMARK VINA RESULT: -4.290169419      3.310      5.101
REMARK  4 active torsions:
REMARK  status: ('A' for Active; 'I' for Inactive)
REMARK    1  A    between atoms: N1_1  and  N2_4 
REMARK    2  A    between atoms: N2_4  and  C1_6 
REMARK    3  A    between atoms: C2_11  and  S1_12 
REMARK    4  A    between atoms: S1_12  and  N5_13 
ROOT
HETATM    1  C1  UNL     1       3.860  13.704   9.756  1.00  0.00     0.180 A 
HETATM    2  N3  UNL     1       3.886  12.378   9.909  1.00  0.00    -0.277 N 
ATOM      3  H3  UNL     1       3.644  11.951  10.802  1.00  0.00     0.189 HD
HETATM    4  N4  UNL     1       4.222  11.662   8.917  1.00  0.00    -0.281 N 
ATOM      5  H4  UNL     1       4.247  10.647   9.019  1.00  0.00     0.188 HD
HETATM    6  C2  UNL     1       4.536  12.198   7.765  1.00  0.00     0.208 A 
HETATM    7  S2  UNL     1       4.338  13.875   8.123  1.00  0.00    -0.018 SA
ENDROOT
BRANCH   6   8
HETATM    8  S1  UNL     1       5.030  11.419   6.252  1.00  0.00     0.280 S 
HETATM    9  O1  UNL     1       3.840  10.705   5.676  1.00  0.00    -0.199 OA
HETATM   10  O2  UNL     1       5.477  12.445   5.263  1.00  0.00    -0.199 OA
BRANCH   8  11
HETATM   11  N5  UNL     1       6.281  10.281   6.601  1.00  0.00    -0.323 N 
ATOM     12  H52 UNL     1       7.224  10.525   6.906  1.00  0.00     0.169 HD
ATOM     13  H51 UNL     1       5.918   9.340   6.451  1.00  0.00     0.169 HD
ENDBRANCH   8  11
ENDBRANCH   6   8
BRANCH   1  14
HETATM   14  N2  UNL     1       3.544  14.611  10.649  1.00  0.00    -0.285 N 
ATOM     15  H2  UNL     1       3.312  15.563  10.366  1.00  0.00     0.188 HD
BRANCH  14  16
HETATM   16  N1  UNL     1       3.532  14.240  12.010  1.00  0.00    -0.343 N 
ATOM     17  H12 UNL     1       4.413  14.112  12.509  1.00  0.00     0.176 HD
ATOM     18  H11 UNL     1       2.632  14.106  12.470  1.00  0.00     0.176 HD
ENDBRANCH  14  16
ENDBRANCH   1  14
TORSDOF 4
ENDMDL
MODEL 4
REMARK VINA RESULT: -4.255760258      1.147      1.336
REMARK  4 active torsions:
REMARK  status: ('A' for Active; 'I' for Inactive)
REMARK    1  A    between atoms: N1_1  and  N2_4 
REMARK    2  A    between atoms: N2_4  and  C1_6 
REMARK    3  A    between atoms: C2_11  and  S1_12 
REMARK    4  A    between atoms: S1_12  and  N5_13 
ROOT
HETATM    1  C1  UNL     1       4.507  12.012   7.779  1.00  0.00     0.180 A 
HETATM    2  N3  UNL     1       4.196  11.560   8.996  1.00  0.00    -0.277 N 
ATOM      3  H3  UNL     1       4.209  10.560   9.199  1.00  0.00     0.189 HD
HETATM    4  N4  UNL     1       3.884  12.401   9.893  1.00  0.00    -0.281 N 
ATOM      5  H4  UNL     1       3.644  12.069  10.826  1.00  0.00     0.188 HD
HETATM    6  C2  UNL     1       3.864  13.686   9.643  1.00  0.00     0.208 A 
HETATM    7  S2  UNL     1       4.331  13.702   7.981  1.00  0.00    -0.018 SA
ENDROOT
BRANCH   6   8
HETATM    8  S1  UNL     1       3.466  15.039  10.715  1.00  0.00     0.280 S 
HETATM    9  O1  UNL     1       4.452  16.146  10.468  1.00  0.00    -0.199 OA
HETATM   10  O2  UNL     1       2.101  15.559  10.408  1.00  0.00    -0.199 OA
BRANCH   8  11
HETATM   11  N5  UNL     1       3.590  14.501  12.352  1.00  0.00    -0.323 N 
ATOM     12  H52 UNL     1       4.319  14.786  13.006  1.00  0.00     0.169 HD
ATOM     13  H51 UNL     1       2.820  13.860  12.543  1.00  0.00     0.169 HD
ENDBRANCH   8  11
ENDBRANCH   6   8
BRANCH   1  14
HETATM   14  N2  UNL     1       4.853  11.314   6.724  1.00  0.00    -0.285 N 
ATOM     15  H2  UNL     1       4.272  11.312   5.886  1.00  0.00     0.188 HD
BRANCH  14  16
HETATM   16  N1  UNL     1       6.050  10.568   6.775  1.00  0.00    -0.343 N 
ATOM     17  H12 UNL     1       6.241   9.971   7.579  1.00  0.00     0.176 HD
ATOM     18  H11 UNL     1       6.703  10.643   5.995  1.00  0.00     0.176 HD
ENDBRANCH  14  16
ENDBRANCH   1  14
TORSDOF 4
ENDMDL
MODEL 5
REMARK VINA RESULT: -4.205775001      3.362      5.123
REMARK  4 active torsions:
REMARK  status: ('A' for Active; 'I' for Inactive)
REMARK    1  A    between atoms: N1_1  and  N2_4 
REMARK    2  A    between atoms: N2_4  and  C1_6 
REMARK    3  A    between atoms: C2_11  and  S1_12 
REMARK    4  A    between atoms: S1_12  and  N5_13 
ROOT
HETATM    1  C1  UNL     1       3.686  13.739   9.624  1.00  0.00     0.180 A 
HETATM    2  N3  UNL     1       3.675  12.427   9.871  1.00  0.00    -0.277 N 
ATOM      3  H3  UNL     1       3.241  12.059  10.717  1.00  0.00     0.189 HD
HETATM    4  N4  UNL     1       4.217  11.649   9.027  1.00  0.00    -0.281 N 
ATOM      5  H4  UNL     1       4.216  10.644   9.203  1.00  0.00     0.188 HD
HETATM    6  C2  UNL     1       4.776  12.109   7.937  1.00  0.00     0.208 A 
HETATM    7  S2  UNL     1       4.509  13.805   8.126  1.00  0.00    -0.018 SA
ENDROOT
BRANCH   6   8
HETATM    8  S1  UNL     1       5.586  11.235   6.627  1.00  0.00     0.280 S 
HETATM    9  O1  UNL     1       6.407  12.216   5.838  1.00  0.00    -0.199 OA
HETATM   10  O2  UNL     1       6.510  10.203   7.185  1.00  0.00    -0.199 OA
BRANCH   8  11
HETATM   11  N5  UNL     1       4.383  10.529   5.608  1.00  0.00    -0.323 N 
ATOM     12  H52 UNL     1       3.555  11.013   5.261  1.00  0.00     0.169 HD
ATOM     13  H51 UNL     1       4.643   9.561   5.420  1.00  0.00     0.169 HD
ENDBRANCH   8  11
ENDBRANCH   6   8
BRANCH   1  14
HETATM   14  N2  UNL     1       3.185  14.701  10.361  1.00  0.00    -0.285 N 
ATOM     15  H2  UNL     1       2.187  14.733  10.570  1.00  0.00     0.188 HD
BRANCH  14  16
HETATM   16  N1  UNL     1       4.059  15.691  10.860  1.00  0.00    -0.343 N 
ATOM     17  H12 UNL     1       4.724  15.456  11.596  1.00  0.00     0.176 HD
ATOM     18  H11 UNL     1       4.004  16.630  10.466  1.00  0.00     0.176 HD
ENDBRANCH  14  16
ENDBRANCH   1  14
TORSDOF 4
ENDMDL
