MODEL 1
REMARK VINA RESULT: -5.331913426      0.000      0.000
REMARK  3 active torsions:
REMARK  status: ('A' for Active; 'I' for Inactive)
REMARK    1  A    between atoms: N4_10  and  N5_11 
REMARK    2  A    between atoms: C3_13  and  C4_14 
REMARK    3  A    between atoms: C5_15  and  O1_16 
ROOT
HETATM    1  N5  UNL     1       5.636  11.748   6.814  1.00  0.00    -0.275 N 
ATOM      2  H5  UNL     1       6.230  12.576   6.819  1.00  0.00     0.188 HD
HETATM    3  C3  UNL     1       4.591  11.739   7.561  1.00  0.00     0.128 C 
ENDROOT
BRANCH   1   4
HETATM    4  N4  UNL     1       5.995  10.673   5.996  1.00  0.00    -0.020 N 
HETATM    5  C1  UNL     1       6.891   9.722   6.293  1.00  0.00     0.713 A 
HETATM    6  N1  UNL     1       7.556   9.658   7.387  1.00  0.00    -0.231 N 
HETATM    7  N2  UNL     1       6.935   8.888   5.241  1.00  0.00    -0.184 N 
ATOM      8  H12 UNL     1       8.238   8.934   7.613  1.00  0.00     0.174 HD
ATOM      9  H11 UNL     1       7.523  10.291   8.186  1.00  0.00     0.174 HD
HETATM   10  C2  UNL     1       6.077   9.301   4.283  1.00  0.00     0.217 A 
ATOM     11  H2  UNL     1       7.529   8.061   5.175  1.00  0.00     0.185 HD
HETATM   12  N3  UNL     1       5.506  10.409   4.772  1.00  0.00    -0.260 N 
ATOM     13  H3  UNL     1       4.804  10.969   4.288  1.00  0.00     0.190 HD
ENDBRANCH   1   4
BRANCH   3  14
HETATM   14  C4  UNL     1       4.280  12.901   8.390  1.00  0.00     0.072 A 
HETATM   15  C5  UNL     1       3.484  13.116   9.494  1.00  0.00     0.136 A 
HETATM   16  C6  UNL     1       3.846  14.444   9.517  1.00  0.00     0.256 A 
HETATM   17  O2  UNL     1       3.583  15.469  10.232  1.00  0.00    -0.281 OA
HETATM   18  C7  UNL     1       4.644  14.243   8.416  1.00  0.00     0.239 A 
HETATM   19  O3  UNL     1       5.408  14.948   7.693  1.00  0.00    -0.283 OA
BRANCH  15  20
HETATM   20  O1  UNL     1       2.634  12.332  10.298  1.00  0.00    -0.356 OA
ATOM     21  H1  UNL     1       2.747  11.640  10.940  1.00  0.00     0.218 HD
ENDBRANCH  15  20
ENDBRANCH   3  14
TORSDOF 3
ENDMDL
MODEL 2
REMARK VINA RESULT: -5.305060848      0.589      1.500
REMARK  3 active torsions:
REMARK  status: ('A' for Active; 'I' for Inactive)
REMARK    1  A    between atoms: N4_10  and  N5_11 
REMARK    2  A    between atoms: C3_13  and  C4_14 
REMARK    3  A    between atoms: C5_15  and  O1_16 
ROOT
HETATM    1  N5  UNL     1       5.860  11.667   7.194  1.00  0.00    -0.275 N 
ATOM      2  H5  UNL     1       6.278  12.573   6.985  1.00  0.00     0.188 HD
HETATM    3  C3  UNL     1       4.836  11.629   7.968  1.00  0.00     0.128 C 
ENDROOT
BRANCH   1   4
HETATM    4  N4  UNL     1       6.428  10.523   6.625  1.00  0.00    -0.020 N 
HETATM    5  C1  UNL     1       6.136  10.015   5.419  1.00  0.00     0.713 A 
HETATM    6  N1  UNL     1       5.284  10.513   4.602  1.00  0.00    -0.231 N 
HETATM    7  N2  UNL     1       6.900   8.921   5.264  1.00  0.00    -0.184 N 
ATOM      8  H12 UNL     1       5.063  10.126   3.684  1.00  0.00     0.174 HD
ATOM      9  H11 UNL     1       4.704  11.343   4.719  1.00  0.00     0.174 HD
HETATM   10  C2  UNL     1       7.670   8.732   6.358  1.00  0.00     0.217 A 
ATOM     11  H2  UNL     1       6.899   8.320   4.440  1.00  0.00     0.185 HD
HETATM   12  N3  UNL     1       7.361   9.736   7.188  1.00  0.00    -0.260 N 
ATOM     13  H3  UNL     1       7.772   9.882   8.110  1.00  0.00     0.190 HD
ENDBRANCH   1   4
BRANCH   3  14
HETATM   14  C4  UNL     1       4.299  12.868   8.524  1.00  0.00     0.072 A 
HETATM   15  C5  UNL     1       3.370  13.168   9.498  1.00  0.00     0.136 A 
HETATM   16  C6  UNL     1       3.561  14.514   9.288  1.00  0.00     0.256 A 
HETATM   17  O2  UNL     1       3.101  15.606   9.764  1.00  0.00    -0.281 OA
HETATM   18  C7  UNL     1       4.489  14.229   8.315  1.00  0.00     0.239 A 
HETATM   19  O3  UNL     1       5.232  14.889   7.531  1.00  0.00    -0.283 OA
BRANCH  15  20
HETATM   20  O1  UNL     1       2.544  12.433  10.371  1.00  0.00    -0.356 OA
ATOM     21  H1  UNL     1       2.675  11.884  11.135  1.00  0.00     0.218 HD
ENDBRANCH  15  20
ENDBRANCH   3  14
TORSDOF 3
ENDMDL
MODEL 3
REMARK VINA RESULT: -5.079684289      4.324      5.942
REMARK  3 active torsions:
REMARK  status: ('A' for Active; 'I' for Inactive)
REMARK    1  A    between atoms: N4_10  and  N5_11 
REMARK    2  A    between atoms: C3_13  and  C4_14 
REMARK    3  A    between atoms: C5_15  and  O1_16 
ROOT
HETATM    1  N5  UNL     1       3.525  14.126  11.260  1.00  0.00    -0.275 N 
ATOM      2  H5  UNL     1       3.146  13.253  11.627  1.00  0.00     0.188 HD
HETATM    3  C3  UNL     1       3.555  15.153  12.030  1.00  0.00     0.128 C 
ENDROOT
BRANCH   1   4
HETATM    4  N4  UNL     1       3.989  14.150   9.941  1.00  0.00    -0.020 N 
HETATM    5  C1  UNL     1       4.140  13.086   9.140  1.00  0.00     0.713 A 
HETATM    6  N1  UNL     1       3.876  11.877   9.471  1.00  0.00    -0.231 N 
HETATM    7  N2  UNL     1       4.606  13.547   7.967  1.00  0.00    -0.184 N 
ATOM      8  H12 UNL     1       3.991  11.067   8.861  1.00  0.00     0.174 HD
ATOM      9  H11 UNL     1       3.523  11.526  10.361  1.00  0.00     0.174 HD
HETATM   10  C2  UNL     1       4.751  14.889   8.018  1.00  0.00     0.217 A 
ATOM     11  H2  UNL     1       4.819  12.968   7.155  1.00  0.00     0.185 HD
HETATM   12  N3  UNL     1       4.363  15.240   9.251  1.00  0.00    -0.260 N 
ATOM     13  H3  UNL     1       4.352  16.195   9.612  1.00  0.00     0.190 HD
ENDBRANCH   1   4
BRANCH   3  14
HETATM   14  C4  UNL     1       3.052  15.050  13.398  1.00  0.00     0.072 A 
HETATM   15  C5  UNL     1       3.419  14.326  14.512  1.00  0.00     0.136 A 
HETATM   16  C6  UNL     1       2.396  14.894  15.238  1.00  0.00     0.256 A 
HETATM   17  O2  UNL     1       1.944  14.815  16.429  1.00  0.00    -0.281 OA
HETATM   18  C7  UNL     1       2.020  15.622  14.134  1.00  0.00     0.239 A 
HETATM   19  O3  UNL     1       1.122  16.469  13.854  1.00  0.00    -0.283 OA
BRANCH  15  20
HETATM   20  O1  UNL     1       4.418  13.384  14.823  1.00  0.00    -0.356 OA
ATOM     21  H1  UNL     1       5.041  13.257  15.530  1.00  0.00     0.218 HD
ENDBRANCH  15  20
ENDBRANCH   3  14
TORSDOF 3
ENDMDL
MODEL 4
REMARK VINA RESULT: -5.078800058      1.116      1.783
REMARK  3 active torsions:
REMARK  status: ('A' for Active; 'I' for Inactive)
REMARK    1  A    between atoms: N4_10  and  N5_11 
REMARK    2  A    between atoms: C3_13  and  C4_14 
REMARK    3  A    between atoms: C5_15  and  O1_16 
ROOT
HETATM    1  N5  UNL     1       4.807  11.657   7.620  1.00  0.00    -0.275 N 
ATOM      2  H5  UNL     1       4.170  11.202   8.274  1.00  0.00     0.188 HD
HETATM    3  C3  UNL     1       4.979  12.926   7.716  1.00  0.00     0.128 C 
ENDROOT
BRANCH   1   4
HETATM    4  N4  UNL     1       5.451  10.872   6.660  1.00  0.00    -0.020 N 
HETATM    5  C1  UNL     1       5.019  10.641   5.412  1.00  0.00     0.713 A 
HETATM    6  N1  UNL     1       3.939  11.114   4.912  1.00  0.00    -0.231 N 
HETATM    7  N2  UNL     1       5.928   9.842   4.829  1.00  0.00    -0.184 N 
ATOM      8  H12 UNL     1       3.611  10.938   3.962  1.00  0.00     0.174 HD
ATOM      9  H11 UNL     1       3.249  11.721   5.354  1.00  0.00     0.174 HD
HETATM   10  C2  UNL     1       6.929   9.565   5.693  1.00  0.00     0.217 A 
ATOM     11  H2  UNL     1       5.872   9.494   3.872  1.00  0.00     0.185 HD
HETATM   12  N3  UNL     1       6.612  10.214   6.821  1.00  0.00    -0.260 N 
ATOM     13  H3  UNL     1       7.169  10.210   7.676  1.00  0.00     0.190 HD
ENDBRANCH   1   4
BRANCH   3  14
HETATM   14  C4  UNL     1       4.270  13.681   8.746  1.00  0.00     0.072 A 
HETATM   15  C5  UNL     1       3.341  13.360   9.713  1.00  0.00     0.136 A 
HETATM   16  C6  UNL     1       3.305  14.669  10.136  1.00  0.00     0.256 A 
HETATM   17  O2  UNL     1       2.692  15.342  11.031  1.00  0.00    -0.281 OA
HETATM   18  C7  UNL     1       4.230  15.003   9.176  1.00  0.00     0.239 A 
HETATM   19  O3  UNL     1       4.827  16.054   8.799  1.00  0.00    -0.283 OA
BRANCH  15  20
HETATM   20  O1  UNL     1       2.678  12.190  10.132  1.00  0.00    -0.356 OA
ATOM     21  H1  UNL     1       1.868  11.990  10.587  1.00  0.00     0.218 HD
ENDBRANCH  15  20
ENDBRANCH   3  14
TORSDOF 3
ENDMDL
MODEL 5
REMARK VINA RESULT: -5.052567861      1.229      1.411
REMARK  3 active torsions:
REMARK  status: ('A' for Active; 'I' for Inactive)
REMARK    1  A    between atoms: N4_10  and  N5_11 
REMARK    2  A    between atoms: C3_13  and  C4_14 
REMARK    3  A    between atoms: C5_15  and  O1_16 
ROOT
HETATM    1  N5  UNL     1       6.403  10.615   6.545  1.00  0.00    -0.275 N 
ATOM      2  H5  UNL     1       6.960  10.835   7.371  1.00  0.00     0.188 HD
HETATM    3  C3  UNL     1       5.297  11.242   6.367  1.00  0.00     0.128 C 
ENDROOT
BRANCH   1   4
HETATM    4  N4  UNL     1       6.879   9.645   5.658  1.00  0.00    -0.020 N 
HETATM    5  C1  UNL     1       7.494   8.502   5.997  1.00  0.00     0.713 A 
HETATM    6  N1  UNL     1       7.735   8.129   7.198  1.00  0.00    -0.231 N 
HETATM    7  N2  UNL     1       7.785   7.865   4.850  1.00  0.00    -0.184 N 
ATOM      8  H12 UNL     1       8.203   7.259   7.455  1.00  0.00     0.174 HD
ATOM      9  H11 UNL     1       7.514   8.612   8.069  1.00  0.00     0.174 HD
HETATM   10  C2  UNL     1       7.362   8.591   3.793  1.00  0.00     0.217 A 
ATOM     11  H2  UNL     1       8.257   6.963   4.788  1.00  0.00     0.185 HD
HETATM   12  N3  UNL     1       6.805   9.690   4.318  1.00  0.00    -0.260 N 
ATOM     13  H3  UNL     1       6.385  10.448   3.779  1.00  0.00     0.190 HD
ENDBRANCH   1   4
BRANCH   3  14
HETATM   14  C4  UNL     1       4.865  12.244   7.338  1.00  0.00     0.072 A 
HETATM   15  C5  UNL     1       4.063  12.221   8.460  1.00  0.00     0.136 A 
HETATM   16  C6  UNL     1       4.270  13.568   8.654  1.00  0.00     0.256 A 
HETATM   17  O2  UNL     1       3.900  14.455   9.495  1.00  0.00    -0.281 OA
HETATM   18  C7  UNL     1       5.071  13.605   7.538  1.00  0.00     0.239 A 
HETATM   19  O3  UNL     1       5.738  14.480   6.913  1.00  0.00    -0.283 OA
BRANCH  15  20
HETATM   20  O1  UNL     1       3.321  11.246   9.155  1.00  0.00    -0.356 OA
ATOM     21  H1  UNL     1       2.456  10.863   9.077  1.00  0.00     0.218 HD
ENDBRANCH  15  20
ENDBRANCH   3  14
TORSDOF 3
ENDMDL
