MODEL 1
REMARK VINA RESULT: -8.042441613      0.000      0.000
REMARK  1 active torsions:
REMARK  status: ('A' for Active; 'I' for Inactive)
REMARK    1  A    between atoms: C1_4  and  C2_6 
ROOT
HETATM    1  C2  UNL     1      29.172  45.182  -5.084  1.00  0.00     0.149 A 
HETATM    2  N3  UNL     1      29.758  46.379  -5.137  1.00  0.00    -0.326 N 
ATOM      3  H3  UNL     1      30.409  46.577  -5.897  1.00  0.00     0.168 HD
HETATM    4  C3  UNL     1      29.516  47.344  -4.214  1.00  0.00     0.148 A 
HETATM    5  N4  UNL     1      30.140  48.622  -4.269  1.00  0.00    -0.080 NA
HETATM    6  C4  UNL     1      28.644  47.094  -3.188  1.00  0.00     0.123 A 
HETATM    7  N5  UNL     1      28.346  47.988  -2.232  1.00  0.00    -0.301 N 
ATOM      8  H5  UNL     1      28.776  48.913  -2.241  1.00  0.00     0.171 HD
HETATM    9  C5  UNL     1      27.465  47.650  -1.248  1.00  0.00     0.339 A 
HETATM   10  O1  UNL     1      27.227  48.524  -0.387  1.00  0.00    -0.245 OA
HETATM   11  N6  UNL     1      26.875  46.442  -1.196  1.00  0.00    -0.250 N 
ATOM     12  H6  UNL     1      26.218  46.208  -0.451  1.00  0.00     0.192 HD
HETATM   13  N7  UNL     1      27.174  45.570  -2.138  1.00  0.00    -0.280 N 
ATOM     14  H7  UNL     1      26.740  44.647  -2.118  1.00  0.00     0.189 HD
HETATM   15  C6  UNL     1      28.038  45.866  -3.126  1.00  0.00     0.152 A 
HETATM   16  N8  UNL     1      28.313  44.958  -4.059  1.00  0.00    -0.323 N 
ATOM     17  H8  UNL     1      27.855  44.049  -4.001  1.00  0.00     0.169 HD
ENDROOT
BRANCH   1  18
HETATM   18  C1  UNL     1      29.440  44.151  -6.084  1.00  0.00     0.154 C 
HETATM   19  N1  UNL     1      29.668  42.956  -5.704  1.00  0.00    -0.385 N 
ATOM     20  H12 UNL     1      29.856  42.237  -6.402  1.00  0.00     0.157 HD
ATOM     21  H11 UNL     1      29.663  42.727  -4.710  1.00  0.00     0.157 HD
HETATM   22  N2  UNL     1      29.448  44.466  -7.455  1.00  0.00    -0.079 NA
ENDBRANCH   1  18
TORSDOF 1
ENDMDL
MODEL 2
REMARK VINA RESULT: -7.412527385      3.083      5.416
REMARK  1 active torsions:
REMARK  status: ('A' for Active; 'I' for Inactive)
REMARK    1  A    between atoms: C1_4  and  C2_6 
ROOT
HETATM    1  C2  UNL     1      28.816  45.868  -4.099  1.00  0.00     0.149 A 
HETATM    2  N3  UNL     1      29.488  46.766  -4.822  1.00  0.00    -0.326 N 
ATOM      3  H3  UNL     1      29.497  47.738  -4.516  1.00  0.00     0.168 HD
HETATM    4  C3  UNL     1      30.162  46.427  -5.950  1.00  0.00     0.148 A 
HETATM    5  N4  UNL     1      30.880  47.383  -6.722  1.00  0.00    -0.080 NA
HETATM    6  C4  UNL     1      30.161  45.124  -6.373  1.00  0.00     0.123 A 
HETATM    7  N5  UNL     1      30.799  44.700  -7.476  1.00  0.00    -0.301 N 
ATOM      8  H5  UNL     1      31.322  45.359  -8.052  1.00  0.00     0.171 HD
HETATM    9  C5  UNL     1      30.742  43.382  -7.820  1.00  0.00     0.339 A 
HETATM   10  O1  UNL     1      31.356  43.048  -8.855  1.00  0.00    -0.245 OA
HETATM   11  N6  UNL     1      30.063  42.479  -7.089  1.00  0.00    -0.250 N 
ATOM     12  H6  UNL     1      30.032  41.496  -7.363  1.00  0.00     0.192 HD
HETATM   13  N7  UNL     1      29.439  42.903  -6.009  1.00  0.00    -0.280 N 
ATOM     14  H7  UNL     1      28.917  42.236  -5.441  1.00  0.00     0.189 HD
HETATM   15  C6  UNL     1      29.473  44.196  -5.637  1.00  0.00     0.152 A 
HETATM   16  N8  UNL     1      28.829  44.585  -4.538  1.00  0.00    -0.323 N 
ATOM     17  H8  UNL     1      28.322  43.884  -3.999  1.00  0.00     0.169 HD
ENDROOT
BRANCH   1  18
HETATM   18  C1  UNL     1      28.095  46.244  -2.886  1.00  0.00     0.154 C 
HETATM   19  N1  UNL     1      27.936  45.382  -1.961  1.00  0.00    -0.385 N 
ATOM     20  H12 UNL     1      27.432  45.645  -1.114  1.00  0.00     0.157 HD
ATOM     21  H11 UNL     1      28.310  44.440  -2.072  1.00  0.00     0.157 HD
HETATM   22  N2  UNL     1      27.578  47.544  -2.733  1.00  0.00    -0.079 NA
ENDBRANCH   1  18
TORSDOF 1
ENDMDL
MODEL 3
REMARK VINA RESULT: -7.398801193      2.390      4.842
REMARK  1 active torsions:
REMARK  status: ('A' for Active; 'I' for Inactive)
REMARK    1  A    between atoms: C1_4  and  C2_6 
ROOT
HETATM    1  C2  UNL     1      28.382  46.155  -2.447  1.00  0.00     0.149 A 
HETATM    2  N3  UNL     1      28.544  45.289  -3.449  1.00  0.00    -0.326 N 
ATOM      3  H3  UNL     1      28.146  44.354  -3.362  1.00  0.00     0.168 HD
HETATM    4  C3  UNL     1      29.221  45.611  -4.580  1.00  0.00     0.148 A 
HETATM    5  N4  UNL     1      29.396  44.688  -5.649  1.00  0.00    -0.080 NA
HETATM    6  C4  UNL     1      29.760  46.864  -4.712  1.00  0.00     0.123 A 
HETATM    7  N5  UNL     1      30.444  47.267  -5.794  1.00  0.00    -0.301 N 
ATOM      8  H5  UNL     1      30.588  46.631  -6.578  1.00  0.00     0.171 HD
HETATM    9  C5  UNL     1      30.945  48.534  -5.838  1.00  0.00     0.339 A 
HETATM   10  O1  UNL     1      31.572  48.853  -6.870  1.00  0.00    -0.245 OA
HETATM   11  N6  UNL     1      30.780  49.407  -4.826  1.00  0.00    -0.250 N 
ATOM     12  H6  UNL     1      31.163  50.351  -4.877  1.00  0.00     0.192 HD
HETATM   13  N7  UNL     1      30.108  49.001  -3.767  1.00  0.00    -0.280 N 
ATOM     14  H7  UNL     1      29.971  49.645  -2.988  1.00  0.00     0.189 HD
HETATM   15  C6  UNL     1      29.597  47.759  -3.688  1.00  0.00     0.152 A 
HETATM   16  N8  UNL     1      28.924  47.388  -2.601  1.00  0.00    -0.323 N 
ATOM     17  H8  UNL     1      28.810  48.065  -1.847  1.00  0.00     0.169 HD
ENDROOT
BRANCH   1  18
HETATM   18  C1  UNL     1      27.651  45.797  -1.234  1.00  0.00     0.154 C 
HETATM   19  N1  UNL     1      26.394  45.998  -1.179  1.00  0.00    -0.385 N 
ATOM     20  H12 UNL     1      25.884  45.749  -0.332  1.00  0.00     0.157 HD
ATOM     21  H11 UNL     1      25.907  46.406  -1.978  1.00  0.00     0.157 HD
HETATM   22  N2  UNL     1      28.322  45.234  -0.132  1.00  0.00    -0.079 NA
ENDBRANCH   1  18
TORSDOF 1
ENDMDL
MODEL 4
REMARK VINA RESULT: -7.355632775      2.184      2.885
REMARK  1 active torsions:
REMARK  status: ('A' for Active; 'I' for Inactive)
REMARK    1  A    between atoms: C1_4  and  C2_6 
ROOT
HETATM    1  C2  UNL     1      30.379  47.541  -4.562  1.00  0.00     0.149 A 
HETATM    2  N3  UNL     1      30.896  48.153  -3.495  1.00  0.00    -0.326 N 
ATOM      3  H3  UNL     1      31.623  48.855  -3.632  1.00  0.00     0.168 HD
HETATM    4  C3  UNL     1      30.486  47.872  -2.232  1.00  0.00     0.148 A 
HETATM    5  N4  UNL     1      31.036  48.524  -1.093  1.00  0.00    -0.080 NA
HETATM    6  C4  UNL     1      29.509  46.933  -2.031  1.00  0.00     0.123 A 
HETATM    7  N5  UNL     1      29.044  46.593  -0.818  1.00  0.00    -0.301 N 
ATOM      8  H5  UNL     1      29.417  47.040   0.019  1.00  0.00     0.171 HD
HETATM    9  C5  UNL     1      28.069  45.646  -0.714  1.00  0.00     0.339 A 
HETATM   10  O1  UNL     1      27.676  45.372   0.439  1.00  0.00    -0.245 OA
HETATM   11  N6  UNL     1      27.550  45.030  -1.792  1.00  0.00    -0.250 N 
ATOM     12  H6  UNL     1      26.821  44.323  -1.694  1.00  0.00     0.192 HD
HETATM   13  N7  UNL     1      28.013  45.369  -2.979  1.00  0.00    -0.280 N 
ATOM     14  H7  UNL     1      27.634  44.914  -3.809  1.00  0.00     0.189 HD
HETATM   15  C6  UNL     1      28.973  46.300  -3.121  1.00  0.00     0.152 A 
HETATM   16  N8  UNL     1      29.415  46.615  -4.338  1.00  0.00    -0.323 N 
ATOM     17  H8  UNL     1      29.007  46.136  -5.140  1.00  0.00     0.169 HD
ENDROOT
BRANCH   1  18
HETATM   18  C1  UNL     1      30.829  47.851  -5.917  1.00  0.00     0.154 C 
HETATM   19  N1  UNL     1      31.271  49.017  -6.177  1.00  0.00    -0.385 N 
ATOM     20  H12 UNL     1      31.585  49.233  -7.123  1.00  0.00     0.157 HD
ATOM     21  H11 UNL     1      31.309  49.724  -5.443  1.00  0.00     0.157 HD
HETATM   22  N2  UNL     1      30.776  46.876  -6.930  1.00  0.00    -0.079 NA
ENDBRANCH   1  18
TORSDOF 1
ENDMDL
MODEL 5
REMARK VINA RESULT: -7.327336675      2.732      4.872
REMARK  1 active torsions:
REMARK  status: ('A' for Active; 'I' for Inactive)
REMARK    1  A    between atoms: C1_4  and  C2_6 
ROOT
HETATM    1  C2  UNL     1      28.660  45.974  -2.105  1.00  0.00     0.149 A 
HETATM    2  N3  UNL     1      29.802  46.644  -1.944  1.00  0.00    -0.326 N 
ATOM      3  H3  UNL     1      30.045  46.989  -1.016  1.00  0.00     0.168 HD
HETATM    4  C3  UNL     1      30.652  46.882  -2.975  1.00  0.00     0.148 A 
HETATM    5  N4  UNL     1      31.871  47.596  -2.804  1.00  0.00    -0.080 NA
HETATM    6  C4  UNL     1      30.340  46.424  -4.228  1.00  0.00     0.123 A 
HETATM    7  N5  UNL     1      31.121  46.613  -5.303  1.00  0.00    -0.301 N 
ATOM      8  H5  UNL     1      32.001  47.122  -5.216  1.00  0.00     0.171 HD
HETATM    9  C5  UNL     1      30.729  46.121  -6.512  1.00  0.00     0.339 A 
HETATM   10  O1  UNL     1      31.497  46.328  -7.475  1.00  0.00    -0.245 OA
HETATM   11  N6  UNL     1      29.576  45.445  -6.673  1.00  0.00    -0.250 N 
ATOM     12  H6  UNL     1      29.300  45.085  -7.586  1.00  0.00     0.192 HD
HETATM   13  N7  UNL     1      28.815  45.265  -5.612  1.00  0.00    -0.280 N 
ATOM     14  H7  UNL     1      27.937  44.757  -5.711  1.00  0.00     0.189 HD
HETATM   15  C6  UNL     1      29.169  45.735  -4.402  1.00  0.00     0.152 A 
HETATM   16  N8  UNL     1      28.373  45.531  -3.354  1.00  0.00    -0.323 N 
ATOM     17  H8  UNL     1      27.504  45.017  -3.498  1.00  0.00     0.169 HD
ENDROOT
BRANCH   1  18
HETATM   18  C1  UNL     1      27.752  45.724  -0.988  1.00  0.00     0.154 C 
HETATM   19  N1  UNL     1      26.508  45.962  -1.129  1.00  0.00    -0.385 N 
ATOM     20  H12 UNL     1      25.874  45.788  -0.349  1.00  0.00     0.157 HD
ATOM     21  H11 UNL     1      26.155  46.324  -2.015  1.00  0.00     0.157 HD
HETATM   22  N2  UNL     1      28.239  45.225   0.234  1.00  0.00    -0.079 NA
ENDBRANCH   1  18
TORSDOF 1
ENDMDL
