MODEL 1
REMARK VINA RESULT: -6.582847942      0.000      0.000
REMARK  2 active torsions:
REMARK  status: ('A' for Active; 'I' for Inactive)
REMARK    1  A    between atoms: O1_2  and  N1_3 
REMARK    2  A    between atoms: C5_9  and  N3_10 
ROOT
HETATM    1  N1  UNL     1      31.045  47.838  -2.889  1.00  0.00    -0.150 N 
HETATM    2  C2  UNL     1      30.480  47.997  -1.688  1.00  0.00     0.355 A 
HETATM    3  O2  UNL     1      30.936  48.742  -0.781  1.00  0.00    -0.244 OA
HETATM    4  N2  UNL     1      29.360  47.246  -1.599  1.00  0.00    -0.295 N 
HETATM    5  C3  UNL     1      28.526  47.204  -0.422  1.00  0.00     0.161 C 
HETATM    6  C4  UNL     1      29.170  46.579  -2.744  1.00  0.00     0.130 A 
HETATM    7  C5  UNL     1      28.216  45.690  -3.202  1.00  0.00     0.145 A 
HETATM    8  N4  UNL     1      28.389  45.219  -4.479  1.00  0.00    -0.175 N 
ATOM      9  H4  UNL     1      27.701  44.562  -4.846  1.00  0.00     0.186 HD
HETATM   10  C6  UNL     1      29.403  45.569  -5.266  1.00  0.00     0.679 A 
HETATM   11  N5  UNL     1      29.513  45.084  -6.474  1.00  0.00    -0.234 N 
ATOM     12  H51 UNL     1      30.290  45.353  -7.077  1.00  0.00     0.174 HD
ATOM     13  H52 UNL     1      28.826  44.426  -6.844  1.00  0.00     0.174 HD
HETATM   14  N6  UNL     1      30.305  46.435  -4.779  1.00  0.00    -0.172 N 
ATOM     15  H6  UNL     1      31.082  46.705  -5.382  1.00  0.00     0.186 HD
HETATM   16  C7  UNL     1      30.249  46.968  -3.548  1.00  0.00     0.184 A 
ENDROOT
BRANCH   7  17
HETATM   17  N3  UNL     1      27.237  45.323  -2.505  1.00  0.00    -0.383 N 
ATOM     18  H32 UNL     1      26.335  45.792  -2.580  1.00  0.00     0.157 HD
ATOM     19  H31 UNL     1      27.291  44.552  -1.839  1.00  0.00     0.157 HD
ENDBRANCH   7  17
BRANCH   1  20
HETATM   20  O1  UNL     1      32.183  48.399  -3.414  1.00  0.00    -0.273 OA
HETATM   21  C1  UNL     1      33.485  47.982  -3.136  1.00  0.00     0.238 C 
ENDBRANCH   1  20
TORSDOF 2
ENDMDL
MODEL 2
REMARK VINA RESULT: -6.439756019      2.244      4.337
REMARK  2 active torsions:
REMARK  status: ('A' for Active; 'I' for Inactive)
REMARK    1  A    between atoms: O1_2  and  N1_3 
REMARK    2  A    between atoms: C5_9  and  N3_10 
ROOT
HETATM    1  N1  UNL     1      29.696  45.575  -5.180  1.00  0.00    -0.150 N 
HETATM    2  C2  UNL     1      30.773  46.329  -5.422  1.00  0.00     0.355 A 
HETATM    3  O2  UNL     1      31.459  46.270  -6.476  1.00  0.00    -0.244 OA
HETATM    4  N2  UNL     1      31.008  47.152  -4.376  1.00  0.00    -0.295 N 
HETATM    5  C3  UNL     1      32.104  48.090  -4.337  1.00  0.00     0.161 C 
HETATM    6  C4  UNL     1      30.087  46.952  -3.427  1.00  0.00     0.130 A 
HETATM    7  C5  UNL     1      29.844  47.495  -2.179  1.00  0.00     0.145 A 
HETATM    8  N4  UNL     1      28.761  46.999  -1.500  1.00  0.00    -0.175 N 
ATOM      9  H4  UNL     1      28.555  47.381  -0.577  1.00  0.00     0.186 HD
HETATM   10  C6  UNL     1      27.962  46.047  -1.977  1.00  0.00     0.679 A 
HETATM   11  N5  UNL     1      26.945  45.615  -1.280  1.00  0.00    -0.234 N 
ATOM     12  H51 UNL     1      26.333  44.885  -1.645  1.00  0.00     0.174 HD
ATOM     13  H52 UNL     1      26.737  45.995  -0.356  1.00  0.00     0.174 HD
HETATM   14  N6  UNL     1      28.236  45.548  -3.191  1.00  0.00    -0.172 N 
ATOM     15  H6  UNL     1      27.624  44.819  -3.558  1.00  0.00     0.186 HD
HETATM   16  C7  UNL     1      29.265  45.949  -3.956  1.00  0.00     0.184 A 
ENDROOT
BRANCH   7  17
HETATM   17  N3  UNL     1      30.563  48.397  -1.678  1.00  0.00    -0.383 N 
ATOM     18  H32 UNL     1      30.199  49.338  -1.533  1.00  0.00     0.157 HD
ATOM     19  H31 UNL     1      31.531  48.239  -1.396  1.00  0.00     0.157 HD
ENDBRANCH   7  17
BRANCH   1  20
HETATM   20  O1  UNL     1      29.097  44.612  -5.953  1.00  0.00    -0.273 OA
HETATM   21  C1  UNL     1      29.537  43.294  -6.077  1.00  0.00     0.238 C 
ENDBRANCH   1  20
TORSDOF 2
ENDMDL
MODEL 3
REMARK VINA RESULT: -6.367313498      2.903      4.870
REMARK  2 active torsions:
REMARK  status: ('A' for Active; 'I' for Inactive)
REMARK    1  A    between atoms: O1_2  and  N1_3 
REMARK    2  A    between atoms: C5_9  and  N3_10 
ROOT
HETATM    1  N1  UNL     1      29.537  45.148  -6.354  1.00  0.00    -0.150 N 
HETATM    2  C2  UNL     1      30.345  46.054  -6.912  1.00  0.00     0.355 A 
HETATM    3  O2  UNL     1      30.835  45.953  -8.067  1.00  0.00    -0.244 OA
HETATM    4  N2  UNL     1      30.550  47.081  -6.058  1.00  0.00    -0.295 N 
HETATM    5  C3  UNL     1      31.380  48.219  -6.373  1.00  0.00     0.161 C 
HETATM    6  C4  UNL     1      29.879  46.865  -4.921  1.00  0.00     0.130 A 
HETATM    7  C5  UNL     1      29.730  47.560  -3.735  1.00  0.00     0.145 A 
HETATM    8  N4  UNL     1      28.929  46.976  -2.786  1.00  0.00    -0.175 N 
ATOM      9  H4  UNL     1      28.798  47.465  -1.901  1.00  0.00     0.186 HD
HETATM   10  C6  UNL     1      28.313  45.809  -2.955  1.00  0.00     0.679 A 
HETATM   11  N5  UNL     1      27.563  45.305  -2.011  1.00  0.00    -0.234 N 
ATOM     12  H51 UNL     1      27.090  44.410  -2.141  1.00  0.00     0.174 HD
ATOM     13  H52 UNL     1      27.430  45.792  -1.124  1.00  0.00     0.174 HD
HETATM   14  N6  UNL     1      28.486  45.170  -4.121  1.00  0.00    -0.172 N 
ATOM     15  H6  UNL     1      28.014  44.276  -4.251  1.00  0.00     0.186 HD
HETATM   16  C7  UNL     1      29.244  45.635  -5.129  1.00  0.00     0.184 A 
ENDROOT
BRANCH   7  17
HETATM   17  N3  UNL     1      30.286  48.666  -3.519  1.00  0.00    -0.383 N 
ATOM     18  H32 UNL     1      29.987  49.508  -4.010  1.00  0.00     0.157 HD
ATOM     19  H31 UNL     1      31.053  48.779  -2.855  1.00  0.00     0.157 HD
ENDBRANCH   7  17
BRANCH   1  20
HETATM   20  O1  UNL     1      29.063  43.958  -6.850  1.00  0.00    -0.273 OA
HETATM   21  C1  UNL     1      29.438  42.693  -6.395  1.00  0.00     0.238 C 
ENDBRANCH   1  20
TORSDOF 2
ENDMDL
MODEL 4
REMARK VINA RESULT: -6.338782627      1.397      3.526
REMARK  2 active torsions:
REMARK  status: ('A' for Active; 'I' for Inactive)
REMARK    1  A    between atoms: O1_2  and  N1_3 
REMARK    2  A    between atoms: C5_9  and  N3_10 
ROOT
HETATM    1  N1  UNL     1      31.209  48.147  -3.110  1.00  0.00    -0.150 N 
HETATM    2  C2  UNL     1      31.327  47.282  -4.122  1.00  0.00     0.355 A 
HETATM    3  O2  UNL     1      32.281  47.273  -4.943  1.00  0.00    -0.244 OA
HETATM    4  N2  UNL     1      30.278  46.429  -4.127  1.00  0.00    -0.295 N 
HETATM    5  C3  UNL     1      30.119  45.375  -5.100  1.00  0.00     0.161 C 
HETATM    6  C4  UNL     1      29.452  46.721  -3.116  1.00  0.00     0.130 A 
HETATM    7  C5  UNL     1      28.260  46.197  -2.653  1.00  0.00     0.145 A 
HETATM    8  N4  UNL     1      27.716  46.804  -1.550  1.00  0.00    -0.175 N 
ATOM      9  H4  UNL     1      26.837  46.439  -1.185  1.00  0.00     0.186 HD
HETATM   10  C6  UNL     1      28.270  47.843  -0.930  1.00  0.00     0.679 A 
HETATM   11  N5  UNL     1      27.702  48.378   0.118  1.00  0.00    -0.234 N 
ATOM     12  H51 UNL     1      28.126  49.174   0.594  1.00  0.00     0.174 HD
ATOM     13  H52 UNL     1      26.822  48.016   0.485  1.00  0.00     0.174 HD
HETATM   14  N6  UNL     1      29.427  48.319  -1.413  1.00  0.00    -0.172 N 
ATOM     15  H6  UNL     1      29.853  49.114  -0.937  1.00  0.00     0.186 HD
HETATM   16  C7  UNL     1      30.061  47.813  -2.484  1.00  0.00     0.184 A 
ENDROOT
BRANCH   7  17
HETATM   17  N3  UNL     1      27.690  45.217  -3.198  1.00  0.00    -0.383 N 
ATOM     18  H32 UNL     1      28.220  44.392  -3.477  1.00  0.00     0.157 HD
ATOM     19  H31 UNL     1      26.688  45.197  -3.389  1.00  0.00     0.157 HD
ENDBRANCH   7  17
BRANCH   1  20
HETATM   20  O1  UNL     1      32.032  49.178  -2.726  1.00  0.00    -0.273 OA
HETATM   21  C1  UNL     1      32.157  50.396  -3.394  1.00  0.00     0.238 C 
ENDBRANCH   1  20
TORSDOF 2
ENDMDL
MODEL 5
REMARK VINA RESULT: -6.275437365      2.435      4.403
REMARK  2 active torsions:
REMARK  status: ('A' for Active; 'I' for Inactive)
REMARK    1  A    between atoms: O1_2  and  N1_3 
REMARK    2  A    between atoms: C5_9  and  N3_10 
ROOT
HETATM    1  N1  UNL     1      29.513  46.399  -4.342  1.00  0.00    -0.150 N 
HETATM    2  C2  UNL     1      30.093  47.468  -4.896  1.00  0.00     0.355 A 
HETATM    3  O2  UNL     1      30.157  48.603  -4.355  1.00  0.00    -0.244 OA
HETATM    4  N2  UNL     1      30.594  47.148  -6.110  1.00  0.00    -0.295 N 
HETATM    5  C3  UNL     1      31.282  48.092  -6.958  1.00  0.00     0.161 C 
HETATM    6  C4  UNL     1      30.351  45.859  -6.374  1.00  0.00     0.130 A 
HETATM    7  C5  UNL     1      30.625  45.016  -7.435  1.00  0.00     0.145 A 
HETATM    8  N4  UNL     1      30.190  43.721  -7.310  1.00  0.00    -0.175 N 
ATOM      9  H4  UNL     1      30.378  43.075  -8.076  1.00  0.00     0.186 HD
HETATM   10  C6  UNL     1      29.536  43.260  -6.247  1.00  0.00     0.679 A 
HETATM   11  N5  UNL     1      29.147  42.014  -6.189  1.00  0.00    -0.234 N 
ATOM     12  H51 UNL     1      28.646  41.660  -5.374  1.00  0.00     0.174 HD
ATOM     13  H52 UNL     1      29.334  41.365  -6.954  1.00  0.00     0.174 HD
HETATM   14  N6  UNL     1      29.292  44.113  -5.241  1.00  0.00    -0.172 N 
ATOM     15  H6  UNL     1      28.792  43.759  -4.426  1.00  0.00     0.186 HD
HETATM   16  C7  UNL     1      29.665  45.403  -5.241  1.00  0.00     0.184 A 
ENDROOT
BRANCH   7  17
HETATM   17  N3  UNL     1      31.239  45.396  -8.464  1.00  0.00    -0.383 N 
ATOM     18  H32 UNL     1      32.250  45.292  -8.539  1.00  0.00     0.157 HD
ATOM     19  H31 UNL     1      30.768  45.821  -9.263  1.00  0.00     0.157 HD
ENDBRANCH   7  17
BRANCH   1  20
HETATM   20  O1  UNL     1      28.881  46.262  -3.131  1.00  0.00    -0.273 OA
HETATM   21  C1  UNL     1      27.500  46.187  -2.951  1.00  0.00     0.238 C 
ENDBRANCH   1  20
TORSDOF 2
ENDMDL
