MODEL 1
REMARK VINA RESULT: -6.765667125      0.000      0.000
REMARK  3 active torsions:
REMARK  status: ('A' for Active; 'I' for Inactive)
REMARK    1  A    between atoms: O1_2  and  N1_3 
REMARK    2  A    between atoms: N1_3  and  C2_5 
REMARK    3  A    between atoms: C5_13  and  N4_14 
ROOT
HETATM    1  C2  UNL     1      28.701  45.436  -4.297  1.00  0.00     0.251 A 
HETATM    2  N2  UNL     1      29.366  45.819  -3.192  1.00  0.00    -0.312 N 
ATOM      3  H2  UNL     1      30.260  45.433  -2.887  1.00  0.00     0.170 HD
HETATM    4  C3  UNL     1      28.686  46.780  -2.547  1.00  0.00     0.157 A 
HETATM    5  C4  UNL     1      28.908  47.513  -1.382  1.00  0.00     0.290 A 
HETATM    6  O2  UNL     1      29.955  47.294  -0.724  1.00  0.00    -0.265 OA
HETATM    7  N3  UNL     1      27.987  48.422  -1.021  1.00  0.00    -0.154 N 
ATOM      8  H3  UNL     1      28.126  48.971  -0.173  1.00  0.00     0.187 HD
HETATM    9  C5  UNL     1      26.882  48.616  -1.767  1.00  0.00     0.680 A 
HETATM   10  N5  UNL     1      26.666  47.897  -2.905  1.00  0.00    -0.168 N 
ATOM     11  H5  UNL     1      25.823  48.060  -3.454  1.00  0.00     0.186 HD
HETATM   12  C6  UNL     1      27.551  46.983  -3.306  1.00  0.00     0.198 A 
HETATM   13  O3  UNL     1      27.615  46.151  -4.339  1.00  0.00    -0.258 OA
ENDROOT
BRANCH   1  14
HETATM   14  N1  UNL     1      29.033  44.542  -5.170  1.00  0.00    -0.230 N 
ATOM     15  H1  UNL     1      29.279  43.609  -4.840  1.00  0.00     0.198 HD
BRANCH  14  16
HETATM   16  O1  UNL     1      29.071  44.785  -6.501  1.00  0.00    -0.282 OA
HETATM   17  C1  UNL     1      30.076  45.450  -7.199  1.00  0.00     0.237 C 
ENDBRANCH  14  16
ENDBRANCH   1  14
BRANCH   9  18
HETATM   18  N4  UNL     1      26.007  49.499  -1.399  1.00  0.00    -0.234 N 
ATOM     19  H42 UNL     1      26.248  50.166  -0.665  1.00  0.00     0.174 HD
ATOM     20  H41 UNL     1      25.090  49.517  -1.846  1.00  0.00     0.174 HD
ENDBRANCH   9  18
TORSDOF 3
ENDMDL
MODEL 2
REMARK VINA RESULT: -6.541893064      1.307      1.307
REMARK  3 active torsions:
REMARK  status: ('A' for Active; 'I' for Inactive)
REMARK    1  A    between atoms: O1_2  and  N1_3 
REMARK    2  A    between atoms: N1_3  and  C2_5 
REMARK    3  A    between atoms: C5_13  and  N4_14 
ROOT
HETATM    1  C2  UNL     1      28.644  45.763  -4.512  1.00  0.00     0.251 A 
HETATM    2  N2  UNL     1      28.687  45.305  -3.248  1.00  0.00    -0.312 N 
ATOM      3  H2  UNL     1      29.070  44.402  -2.969  1.00  0.00     0.170 HD
HETATM    4  C3  UNL     1      28.154  46.205  -2.406  1.00  0.00     0.157 A 
HETATM    5  C4  UNL     1      27.950  46.245  -1.028  1.00  0.00     0.290 A 
HETATM    6  O2  UNL     1      28.316  45.262  -0.336  1.00  0.00    -0.265 OA
HETATM    7  N3  UNL     1      27.369  47.337  -0.505  1.00  0.00    -0.154 N 
ATOM      8  H3  UNL     1      27.208  47.391   0.501  1.00  0.00     0.187 HD
HETATM    9  C5  UNL     1      26.997  48.363  -1.295  1.00  0.00     0.680 A 
HETATM   10  N5  UNL     1      27.197  48.322  -2.642  1.00  0.00    -0.168 N 
ATOM     11  H5  UNL     1      26.907  49.110  -3.221  1.00  0.00     0.186 HD
HETATM   12  C6  UNL     1      27.770  47.259  -3.209  1.00  0.00     0.198 A 
HETATM   13  O3  UNL     1      28.087  46.938  -4.458  1.00  0.00    -0.258 OA
ENDROOT
BRANCH   1  14
HETATM   14  N1  UNL     1      29.057  45.189  -5.593  1.00  0.00    -0.230 N 
ATOM     15  H1  UNL     1      29.097  45.739  -6.451  1.00  0.00     0.198 HD
BRANCH  14  16
HETATM   16  O1  UNL     1      29.438  43.891  -5.642  1.00  0.00    -0.282 OA
HETATM   17  C1  UNL     1      29.440  43.064  -6.762  1.00  0.00     0.237 C 
ENDBRANCH  14  16
ENDBRANCH   1  14
BRANCH   9  18
HETATM   18  N4  UNL     1      26.438  49.408  -0.767  1.00  0.00    -0.234 N 
ATOM     19  H42 UNL     1      26.481  49.541   0.243  1.00  0.00     0.174 HD
ATOM     20  H41 UNL     1      25.964  50.083  -1.368  1.00  0.00     0.174 HD
ENDBRANCH   9  18
TORSDOF 3
ENDMDL
MODEL 3
REMARK VINA RESULT: -6.497654768      2.834      4.416
REMARK  3 active torsions:
REMARK  status: ('A' for Active; 'I' for Inactive)
REMARK    1  A    between atoms: O1_2  and  N1_3 
REMARK    2  A    between atoms: N1_3  and  C2_5 
REMARK    3  A    between atoms: C5_13  and  N4_14 
ROOT
HETATM    1  C2  UNL     1      30.961  48.281  -3.163  1.00  0.00     0.251 A 
HETATM    2  N2  UNL     1      30.072  47.584  -3.893  1.00  0.00    -0.312 N 
ATOM      3  H2  UNL     1      29.993  47.624  -4.910  1.00  0.00     0.170 HD
HETATM    4  C3  UNL     1      29.302  46.827  -3.094  1.00  0.00     0.157 A 
HETATM    5  C4  UNL     1      28.253  45.937  -3.315  1.00  0.00     0.290 A 
HETATM    6  O2  UNL     1      27.875  45.732  -4.496  1.00  0.00    -0.265 OA
HETATM    7  N3  UNL     1      27.695  45.338  -2.249  1.00  0.00    -0.154 N 
ATOM      8  H3  UNL     1      26.926  44.682  -2.384  1.00  0.00     0.187 HD
HETATM    9  C5  UNL     1      28.142  45.595  -1.005  1.00  0.00     0.680 A 
HETATM   10  N5  UNL     1      29.168  46.467  -0.791  1.00  0.00    -0.168 N 
ATOM     11  H5  UNL     1      29.489  46.647   0.160  1.00  0.00     0.186 HD
HETATM   12  C6  UNL     1      29.754  47.086  -1.816  1.00  0.00     0.198 A 
HETATM   13  O3  UNL     1      30.746  47.962  -1.920  1.00  0.00    -0.258 OA
ENDROOT
BRANCH   1  14
HETATM   14  N1  UNL     1      31.864  49.111  -3.570  1.00  0.00    -0.230 N 
ATOM     15  H1  UNL     1      32.352  48.909  -4.442  1.00  0.00     0.198 HD
BRANCH  14  16
HETATM   16  O1  UNL     1      32.193  50.236  -2.893  1.00  0.00    -0.282 OA
HETATM   17  C1  UNL     1      32.492  51.481  -3.440  1.00  0.00     0.237 C 
ENDBRANCH  14  16
ENDBRANCH   1  14
BRANCH   9  18
HETATM   18  N4  UNL     1      27.588  45.006   0.010  1.00  0.00    -0.234 N 
ATOM     19  H42 UNL     1      27.679  45.419   0.938  1.00  0.00     0.174 HD
ATOM     20  H41 UNL     1      27.070  44.138  -0.133  1.00  0.00     0.174 HD
ENDBRANCH   9  18
TORSDOF 3
ENDMDL
MODEL 4
REMARK VINA RESULT: -6.480411615      2.972      3.764
REMARK  3 active torsions:
REMARK  status: ('A' for Active; 'I' for Inactive)
REMARK    1  A    between atoms: O1_2  and  N1_3 
REMARK    2  A    between atoms: N1_3  and  C2_5 
REMARK    3  A    between atoms: C5_13  and  N4_14 
ROOT
HETATM    1  C2  UNL     1      29.791  48.201  -3.902  1.00  0.00     0.251 A 
HETATM    2  N2  UNL     1      28.581  48.601  -3.471  1.00  0.00    -0.312 N 
ATOM      3  H2  UNL     1      28.079  49.418  -3.819  1.00  0.00     0.170 HD
HETATM    4  C3  UNL     1      28.127  47.772  -2.517  1.00  0.00     0.157 A 
HETATM    5  C4  UNL     1      26.965  47.718  -1.749  1.00  0.00     0.290 A 
HETATM    6  O2  UNL     1      26.089  48.602  -1.920  1.00  0.00    -0.265 OA
HETATM    7  N3  UNL     1      26.840  46.718  -0.860  1.00  0.00    -0.154 N 
ATOM      8  H3  UNL     1      25.999  46.656  -0.285  1.00  0.00     0.187 HD
HETATM    9  C5  UNL     1      27.812  45.796  -0.720  1.00  0.00     0.680 A 
HETATM   10  N5  UNL     1      28.947  45.851  -1.471  1.00  0.00    -0.168 N 
ATOM     11  H5  UNL     1      29.671  45.143  -1.349  1.00  0.00     0.186 HD
HETATM   12  C6  UNL     1      29.119  46.825  -2.367  1.00  0.00     0.198 A 
HETATM   13  O3  UNL     1      30.089  47.133  -3.221  1.00  0.00    -0.258 OA
ENDROOT
BRANCH   1  14
HETATM   14  N1  UNL     1      30.543  48.737  -4.805  1.00  0.00    -0.230 N 
ATOM     15  H1  UNL     1      31.031  48.124  -5.458  1.00  0.00     0.198 HD
BRANCH  14  16
HETATM   16  O1  UNL     1      30.716  50.074  -4.926  1.00  0.00    -0.282 OA
HETATM   17  C1  UNL     1      31.669  50.854  -4.275  1.00  0.00     0.237 C 
ENDBRANCH  14  16
ENDBRANCH   1  14
BRANCH   9  18
HETATM   18  N4  UNL     1      27.669  44.840   0.145  1.00  0.00    -0.234 N 
ATOM     19  H42 UNL     1      27.534  45.073   1.129  1.00  0.00     0.174 HD
ATOM     20  H41 UNL     1      27.692  43.869  -0.169  1.00  0.00     0.174 HD
ENDBRANCH   9  18
TORSDOF 3
ENDMDL
MODEL 5
REMARK VINA RESULT: -6.444353301      2.008      2.104
REMARK  3 active torsions:
REMARK  status: ('A' for Active; 'I' for Inactive)
REMARK    1  A    between atoms: O1_2  and  N1_3 
REMARK    2  A    between atoms: N1_3  and  C2_5 
REMARK    3  A    between atoms: C5_13  and  N4_14 
ROOT
HETATM    1  C2  UNL     1      29.222  45.631  -5.526  1.00  0.00     0.251 A 
HETATM    2  N2  UNL     1      29.882  46.444  -4.681  1.00  0.00    -0.312 N 
ATOM      3  H2  UNL     1      30.694  47.008  -4.931  1.00  0.00     0.170 HD
HETATM    4  C3  UNL     1      29.320  46.408  -3.462  1.00  0.00     0.157 A 
HETATM    5  C4  UNL     1      29.591  47.035  -2.248  1.00  0.00     0.290 A 
HETATM    6  O2  UNL     1      30.561  47.832  -2.185  1.00  0.00    -0.265 OA
HETATM    7  N3  UNL     1      28.799  46.756  -1.199  1.00  0.00    -0.154 N 
ATOM      8  H3  UNL     1      28.977  47.202  -0.299  1.00  0.00     0.187 HD
HETATM    9  C5  UNL     1      27.772  45.893  -1.324  1.00  0.00     0.680 A 
HETATM   10  N5  UNL     1      27.508  45.280  -2.512  1.00  0.00    -0.168 N 
ATOM     11  H5  UNL     1      26.726  44.630  -2.584  1.00  0.00     0.186 HD
HETATM   12  C6  UNL     1      28.266  45.524  -3.583  1.00  0.00     0.198 A 
HETATM   13  O3  UNL     1      28.257  45.092  -4.838  1.00  0.00    -0.258 OA
ENDROOT
BRANCH   1  14
HETATM   14  N1  UNL     1      29.460  45.399  -6.774  1.00  0.00    -0.230 N 
ATOM     15  H1  UNL     1      29.765  46.175  -7.363  1.00  0.00     0.198 HD
BRANCH  14  16
HETATM   16  O1  UNL     1      29.326  44.177  -7.339  1.00  0.00    -0.282 OA
HETATM   17  C1  UNL     1      30.082  43.041  -7.059  1.00  0.00     0.237 C 
ENDBRANCH  14  16
ENDBRANCH   1  14
BRANCH   9  18
HETATM   18  N4  UNL     1      27.020  45.639  -0.298  1.00  0.00    -0.234 N 
ATOM     19  H42 UNL     1      26.430  46.378   0.084  1.00  0.00     0.174 HD
ATOM     20  H41 UNL     1      27.027  44.705   0.113  1.00  0.00     0.174 HD
ENDBRANCH   9  18
TORSDOF 3
ENDMDL
