MODEL 1
REMARK VINA RESULT: -7.938564234      0.000      0.000
REMARK  3 active torsions:
REMARK  status: ('A' for Active; 'I' for Inactive)
REMARK    1  A    between atoms: C4_6  and  C5_7 
REMARK    2  A    between atoms: C6_10  and  N4_11 
REMARK    3  A    between atoms: N4_11  and  N5_13 
ROOT
HETATM    1  N1  UNL     1      31.421  47.026  -4.351  1.00  0.00    -0.191 NA
HETATM    2  C1  UNL     1      30.571  46.360  -4.834  1.00  0.00     0.111 C 
HETATM    3  C2  UNL     1      29.554  45.565  -5.448  1.00  0.00     0.128 C 
HETATM    4  C3  UNL     1      29.834  44.956  -6.739  1.00  0.00     0.111 C 
HETATM    5  N2  UNL     1      30.050  44.459  -7.771  1.00  0.00    -0.191 NA
HETATM    6  C4  UNL     1      28.399  45.401  -4.847  1.00  0.00     0.083 C 
ENDROOT
BRANCH   6   7
HETATM    7  C5  UNL     1      27.991  45.940  -3.575  1.00  0.00     0.138 A 
HETATM    8  N3  UNL     1      27.504  47.208  -3.501  1.00  0.00    -0.174 N 
HETATM    9  C6  UNL     1      27.093  47.742  -2.340  1.00  0.00     0.712 A 
ATOM     10  H3  UNL     1      27.450  47.768  -4.351  1.00  0.00     0.186 HD
HETATM   11  N6  UNL     1      27.154  47.024  -1.203  1.00  0.00    -0.021 N 
HETATM   12  C7  UNL     1      27.625  45.785  -1.260  1.00  0.00     0.692 A 
ATOM     13  H6  UNL     1      26.844  47.423  -0.318  1.00  0.00     0.203 HD
HETATM   14  N7  UNL     1      27.690  45.084  -0.177  1.00  0.00    -0.234 N 
HETATM   15  N8  UNL     1      28.046  45.237  -2.445  1.00  0.00    -0.176 N 
ATOM     16  H72 UNL     1      27.377  45.492   0.705  1.00  0.00     0.174 HD
ATOM     17  H71 UNL     1      28.052  44.132  -0.220  1.00  0.00     0.174 HD
ATOM     18  H8  UNL     1      28.405  44.282  -2.462  1.00  0.00     0.186 HD
BRANCH   9  19
HETATM   19  N4  UNL     1      26.644  48.938  -2.323  1.00  0.00    -0.138 N 
ATOM     20  H4  UNL     1      26.609  49.436  -3.214  1.00  0.00     0.205 HD
BRANCH  19  21
HETATM   21  N5  UNL     1      26.201  49.615  -1.203  1.00  0.00    -0.331 N 
ATOM     22  H52 UNL     1      26.915  49.872  -0.522  1.00  0.00     0.177 HD
ATOM     23  H51 UNL     1      25.233  49.872  -1.009  1.00  0.00     0.177 HD
ENDBRANCH  19  21
ENDBRANCH   9  19
ENDBRANCH   6   7
TORSDOF 3
ENDMDL
MODEL 2
REMARK VINA RESULT: -7.693893960      2.118      3.137
REMARK  3 active torsions:
REMARK  status: ('A' for Active; 'I' for Inactive)
REMARK    1  A    between atoms: C4_6  and  C5_7 
REMARK    2  A    between atoms: C6_10  and  N4_11 
REMARK    3  A    between atoms: N4_11  and  N5_13 
ROOT
HETATM    1  N1  UNL     1      30.309  46.269  -4.944  1.00  0.00    -0.191 NA
HETATM    2  C1  UNL     1      30.939  46.836  -4.118  1.00  0.00     0.111 C 
HETATM    3  C2  UNL     1      31.727  47.508  -3.133  1.00  0.00     0.128 C 
HETATM    4  C3  UNL     1      33.066  47.948  -3.496  1.00  0.00     0.111 C 
HETATM    5  N2  UNL     1      34.137  48.308  -3.779  1.00  0.00    -0.191 NA
HETATM    6  C4  UNL     1      31.239  47.714  -1.933  1.00  0.00     0.083 C 
ENDROOT
BRANCH   6   7
HETATM    7  C5  UNL     1      29.938  47.337  -1.442  1.00  0.00     0.138 A 
HETATM    8  N3  UNL     1      28.990  48.291  -1.235  1.00  0.00    -0.174 N 
HETATM    9  C6  UNL     1      27.759  47.982  -0.798  1.00  0.00     0.712 A 
ATOM     10  H3  UNL     1      29.221  49.267  -1.417  1.00  0.00     0.186 HD
HETATM   11  N6  UNL     1      27.428  46.701  -0.550  1.00  0.00    -0.021 N 
HETATM   12  C7  UNL     1      28.342  45.760  -0.748  1.00  0.00     0.692 A 
ATOM     13  H6  UNL     1      26.494  46.459  -0.217  1.00  0.00     0.203 HD
HETATM   14  N7  UNL     1      28.038  44.527  -0.514  1.00  0.00    -0.234 N 
HETATM   15  N8  UNL     1      29.601  46.073  -1.195  1.00  0.00    -0.176 N 
ATOM     16  H72 UNL     1      27.102  44.294  -0.182  1.00  0.00     0.174 HD
ATOM     17  H71 UNL     1      28.740  43.803  -0.667  1.00  0.00     0.174 HD
ATOM     18  H8  UNL     1      30.285  45.331  -1.339  1.00  0.00     0.186 HD
BRANCH   9  19
HETATM   19  N4  UNL     1      26.903  48.915  -0.619  1.00  0.00    -0.138 N 
ATOM     20  H4  UNL     1      26.765  49.245   0.337  1.00  0.00     0.205 HD
BRANCH  19  21
HETATM   21  N5  UNL     1      26.150  49.514  -1.610  1.00  0.00    -0.331 N 
ATOM     22  H52 UNL     1      26.440  50.451  -1.889  1.00  0.00     0.177 HD
ATOM     23  H51 UNL     1      25.341  49.100  -2.074  1.00  0.00     0.177 HD
ENDBRANCH  19  21
ENDBRANCH   9  19
ENDBRANCH   6   7
TORSDOF 3
ENDMDL
MODEL 3
REMARK VINA RESULT: -7.544387255      0.723      2.566
REMARK  3 active torsions:
REMARK  status: ('A' for Active; 'I' for Inactive)
REMARK    1  A    between atoms: C4_6  and  C5_7 
REMARK    2  A    between atoms: C6_10  and  N4_11 
REMARK    3  A    between atoms: N4_11  and  N5_13 
ROOT
HETATM    1  N1  UNL     1      31.420  47.146  -4.753  1.00  0.00    -0.191 NA
HETATM    2  C1  UNL     1      30.642  46.354  -5.163  1.00  0.00     0.111 C 
HETATM    3  C2  UNL     1      29.713  45.404  -5.689  1.00  0.00     0.128 C 
HETATM    4  C3  UNL     1      30.112  44.604  -6.837  1.00  0.00     0.111 C 
HETATM    5  N2  UNL     1      30.425  43.955  -7.752  1.00  0.00    -0.191 NA
HETATM    6  C4  UNL     1      28.530  45.270  -5.137  1.00  0.00     0.083 C 
ENDROOT
BRANCH   6   7
HETATM    7  C5  UNL     1      28.008  45.989  -4.002  1.00  0.00     0.138 A 
HETATM    8  N3  UNL     1      27.941  45.381  -2.788  1.00  0.00    -0.174 N 
HETATM    9  C6  UNL     1      27.480  46.020  -1.700  1.00  0.00     0.712 A 
ATOM     10  H3  UNL     1      28.249  44.413  -2.700  1.00  0.00     0.186 HD
HETATM   11  N6  UNL     1      27.068  47.298  -1.788  1.00  0.00    -0.021 N 
HETATM   12  C7  UNL     1      27.128  47.905  -2.967  1.00  0.00     0.692 A 
ATOM     13  H6  UNL     1      26.716  47.790  -0.967  1.00  0.00     0.203 HD
HETATM   14  N7  UNL     1      26.735  49.131  -3.067  1.00  0.00    -0.234 N 
HETATM   15  N8  UNL     1      27.598  47.253  -4.080  1.00  0.00    -0.176 N 
ATOM     16  H72 UNL     1      26.385  49.616  -2.239  1.00  0.00     0.174 HD
ATOM     17  H71 UNL     1      26.781  49.597  -3.972  1.00  0.00     0.174 HD
ATOM     18  H8  UNL     1      27.634  47.742  -4.974  1.00  0.00     0.186 HD
BRANCH   9  19
HETATM   19  N4  UNL     1      27.438  45.405  -0.581  1.00  0.00    -0.138 N 
ATOM     20  H4  UNL     1      26.782  45.754   0.119  1.00  0.00     0.205 HD
BRANCH  19  21
HETATM   21  N5  UNL     1      28.202  44.307  -0.238  1.00  0.00    -0.331 N 
ATOM     22  H52 UNL     1      28.232  43.549  -0.920  1.00  0.00     0.177 HD
ATOM     23  H51 UNL     1      28.730  44.198   0.628  1.00  0.00     0.177 HD
ENDBRANCH  19  21
ENDBRANCH   9  19
ENDBRANCH   6   7
TORSDOF 3
ENDMDL
MODEL 4
REMARK VINA RESULT: -7.518268938      1.652      2.388
REMARK  3 active torsions:
REMARK  status: ('A' for Active; 'I' for Inactive)
REMARK    1  A    between atoms: C4_6  and  C5_7 
REMARK    2  A    between atoms: C6_10  and  N4_11 
REMARK    3  A    between atoms: N4_11  and  N5_13 
ROOT
HETATM    1  N1  UNL     1      29.022  45.450  -5.342  1.00  0.00    -0.191 NA
HETATM    2  C1  UNL     1      29.846  46.134  -4.840  1.00  0.00     0.111 C 
HETATM    3  C2  UNL     1      30.866  46.945  -4.251  1.00  0.00     0.128 C 
HETATM    4  C3  UNL     1      32.032  47.285  -5.052  1.00  0.00     0.111 C 
HETATM    5  N2  UNL     1      32.967  47.567  -5.687  1.00  0.00    -0.191 NA
HETATM    6  C4  UNL     1      30.736  47.363  -3.014  1.00  0.00     0.083 C 
ENDROOT
BRANCH   6   7
HETATM    7  C5  UNL     1      29.641  47.107  -2.114  1.00  0.00     0.138 A 
HETATM    8  N3  UNL     1      28.815  48.122  -1.745  1.00  0.00    -0.174 N 
HETATM    9  C6  UNL     1      27.771  47.923  -0.925  1.00  0.00     0.712 A 
ATOM     10  H3  UNL     1      28.995  49.060  -2.101  1.00  0.00     0.186 HD
HETATM   11  N6  UNL     1      27.512  46.695  -0.441  1.00  0.00    -0.021 N 
HETATM   12  C7  UNL     1      28.308  45.693  -0.794  1.00  0.00     0.692 A 
ATOM     13  H6  UNL     1      26.721  46.536   0.183  1.00  0.00     0.203 HD
HETATM   14  N7  UNL     1      28.072  44.509  -0.336  1.00  0.00    -0.234 N 
HETATM   15  N8  UNL     1      29.377  45.894  -1.631  1.00  0.00    -0.176 N 
ATOM     16  H72 UNL     1      27.278  44.359   0.286  1.00  0.00     0.174 HD
ATOM     17  H71 UNL     1      28.684  43.739  -0.607  1.00  0.00     0.174 HD
ATOM     18  H8  UNL     1      29.974  45.108  -1.887  1.00  0.00     0.186 HD
BRANCH   9  19
HETATM   19  N4  UNL     1      27.024  48.911  -0.608  1.00  0.00    -0.138 N 
ATOM     20  H4  UNL     1      27.092  49.259   0.349  1.00  0.00     0.205 HD
BRANCH  19  21
HETATM   21  N5  UNL     1      26.134  49.549  -1.451  1.00  0.00    -0.331 N 
ATOM     22  H52 UNL     1      25.688  48.964  -2.157  1.00  0.00     0.177 HD
ATOM     23  H51 UNL     1      25.894  50.540  -1.420  1.00  0.00     0.177 HD
ENDBRANCH  19  21
ENDBRANCH   9  19
ENDBRANCH   6   7
TORSDOF 3
ENDMDL
MODEL 5
REMARK VINA RESULT: -7.362833910      1.795      1.940
REMARK  3 active torsions:
REMARK  status: ('A' for Active; 'I' for Inactive)
REMARK    1  A    between atoms: C4_6  and  C5_7 
REMARK    2  A    between atoms: C6_10  and  N4_11 
REMARK    3  A    between atoms: N4_11  and  N5_13 
ROOT
HETATM    1  N1  UNL     1      32.446  47.941  -2.300  1.00  0.00    -0.191 NA
HETATM    2  C1  UNL     1      31.774  47.622  -3.219  1.00  0.00     0.111 C 
HETATM    3  C2  UNL     1      30.976  47.258  -4.349  1.00  0.00     0.128 C 
HETATM    4  C3  UNL     1      31.582  47.307  -5.670  1.00  0.00     0.111 C 
HETATM    5  N2  UNL     1      32.060  47.337  -6.733  1.00  0.00    -0.191 NA
HETATM    6  C4  UNL     1      29.728  46.893  -4.178  1.00  0.00     0.083 C 
ENDROOT
BRANCH   6   7
HETATM    7  C5  UNL     1      29.006  46.798  -2.935  1.00  0.00     0.138 A 
HETATM    8  N3  UNL     1      28.379  47.894  -2.430  1.00  0.00    -0.174 N 
HETATM    9  C6  UNL     1      27.679  47.845  -1.285  1.00  0.00     0.712 A 
ATOM     10  H3  UNL     1      28.444  48.778  -2.934  1.00  0.00     0.186 HD
HETATM   11  N6  UNL     1      27.578  46.691  -0.600  1.00  0.00    -0.021 N 
HETATM   12  C7  UNL     1      28.183  45.612  -1.082  1.00  0.00     0.692 A 
ATOM     13  H6  UNL     1      27.049  46.646   0.270  1.00  0.00     0.203 HD
HETATM   14  N7  UNL     1      28.096  44.498  -0.434  1.00  0.00    -0.234 N 
HETATM   15  N8  UNL     1      28.900  45.660  -2.251  1.00  0.00    -0.176 N 
ATOM     16  H72 UNL     1      27.563  44.462   0.435  1.00  0.00     0.174 HD
ATOM     17  H71 UNL     1      28.561  43.669  -0.804  1.00  0.00     0.174 HD
ATOM     18  H8  UNL     1      29.356  44.817  -2.599  1.00  0.00     0.186 HD
BRANCH   9  19
HETATM   19  N4  UNL     1      27.108  48.903  -0.852  1.00  0.00    -0.138 N 
ATOM     20  H4  UNL     1      27.410  49.258   0.056  1.00  0.00     0.205 HD
BRANCH  19  21
HETATM   21  N5  UNL     1      26.118  49.608  -1.509  1.00  0.00    -0.331 N 
ATOM     22  H52 UNL     1      25.848  49.254  -2.426  1.00  0.00     0.177 HD
ATOM     23  H51 UNL     1      25.645  50.439  -1.152  1.00  0.00     0.177 HD
ENDBRANCH  19  21
ENDBRANCH   9  19
ENDBRANCH   6   7
TORSDOF 3
ENDMDL
