MODEL 1
REMARK VINA RESULT: -4.653872521      0.000      0.000
REMARK  1 active torsions:
REMARK  status: ('A' for Active; 'I' for Inactive)
REMARK    1  A    between atoms: C5_12  and  C6_13 
ROOT
HETATM    1  N1  UNL     1       0.103 -16.147   4.963  1.00  0.00    -0.081 NA
HETATM    2  C1  UNL     1      -0.952 -16.267   4.019  1.00  0.00     0.141 C 
HETATM    3  N2  UNL     1      -0.646 -16.885   2.864  1.00  0.00    -0.310 N 
ATOM      4  H2  UNL     1       0.336 -17.130   2.742  1.00  0.00     0.170 HD
HETATM    5  C2  UNL     1      -1.470 -17.227   1.834  1.00  0.00     0.262 C 
HETATM    6  O1  UNL     1      -1.069 -18.105   1.026  1.00  0.00    -0.267 OA
HETATM    7  C3  UNL     1      -2.716 -16.673   1.622  1.00  0.00     0.165 C 
HETATM    8  N3  UNL     1      -3.491 -15.892   2.429  1.00  0.00    -0.327 N 
ATOM      9  H3  UNL     1      -4.266 -15.406   1.979  1.00  0.00     0.168 HD
HETATM   10  C4  UNL     1      -3.348 -15.691   3.763  1.00  0.00     0.265 C 
HETATM   11  O2  UNL     1      -4.390 -15.461   4.437  1.00  0.00    -0.267 OA
HETATM   12  C5  UNL     1      -2.152 -15.715   4.455  1.00  0.00     0.149 C 
ENDROOT
BRANCH  12  13
HETATM   13  C6  UNL     1      -2.198 -15.099   5.750  1.00  0.00     0.218 C 
HETATM   14  O3  UNL     1      -1.965 -13.854   5.903  1.00  0.00    -0.644 OA
HETATM   15  O4  UNL     1      -2.498 -15.836   6.884  1.00  0.00    -0.644 OA
ENDBRANCH  12  13
TORSDOF 1
ENDMDL
MODEL 2
REMARK VINA RESULT: -4.593237716      1.421      2.733
REMARK  1 active torsions:
REMARK  status: ('A' for Active; 'I' for Inactive)
REMARK    1  A    between atoms: C5_12  and  C6_13 
ROOT
HETATM    1  N1  UNL     1      -4.427 -15.310   4.093  1.00  0.00    -0.081 NA
HETATM    2  C1  UNL     1      -3.334 -15.829   3.349  1.00  0.00     0.141 C 
HETATM    3  N2  UNL     1      -3.602 -16.200   2.083  1.00  0.00    -0.310 N 
ATOM      4  H2  UNL     1      -4.583 -16.153   1.809  1.00  0.00     0.170 HD
HETATM    5  C2  UNL     1      -2.741 -16.630   1.119  1.00  0.00     0.262 C 
HETATM    6  O1  UNL     1      -3.124 -16.578  -0.078  1.00  0.00    -0.267 OA
HETATM    7  C3  UNL     1      -1.476 -17.120   1.373  1.00  0.00     0.165 C 
HETATM    8  N3  UNL     1      -0.720 -17.086   2.509  1.00  0.00    -0.327 N 
ATOM      9  H3  UNL     1       0.083 -17.714   2.536  1.00  0.00     0.168 HD
HETATM   10  C4  UNL     1      -0.918 -16.313   3.606  1.00  0.00     0.265 C 
HETATM   11  O2  UNL     1       0.098 -15.964   4.269  1.00  0.00    -0.267 OA
HETATM   12  C5  UNL     1      -2.143 -15.870   4.066  1.00  0.00     0.149 C 
ENDROOT
BRANCH  12  13
HETATM   13  C6  UNL     1      -2.142 -15.413   5.427  1.00  0.00     0.218 C 
HETATM   14  O3  UNL     1      -2.306 -16.221   6.400  1.00  0.00    -0.644 OA
HETATM   15  O4  UNL     1      -1.960 -14.074   5.733  1.00  0.00    -0.644 OA
ENDBRANCH  12  13
TORSDOF 1
ENDMDL
MODEL 3
REMARK VINA RESULT: -4.258499704      3.303      5.253
REMARK  1 active torsions:
REMARK  status: ('A' for Active; 'I' for Inactive)
REMARK    1  A    between atoms: C5_12  and  C6_13 
ROOT
HETATM    1  N1  UNL     1      -3.146 -18.476   6.502  1.00  0.00    -0.081 NA
HETATM    2  C1  UNL     1      -3.416 -17.182   7.023  1.00  0.00     0.141 C 
HETATM    3  N2  UNL     1      -4.256 -17.129   8.073  1.00  0.00    -0.310 N 
ATOM      4  H2  UNL     1      -4.686 -18.015   8.338  1.00  0.00     0.170 HD
HETATM    5  C2  UNL     1      -4.612 -16.053   8.829  1.00  0.00     0.262 C 
HETATM    6  O1  UNL     1      -5.110 -16.269   9.964  1.00  0.00    -0.267 OA
HETATM    7  C3  UNL     1      -4.460 -14.741   8.428  1.00  0.00     0.165 C 
HETATM    8  N3  UNL     1      -3.764 -14.204   7.384  1.00  0.00    -0.327 N 
ATOM      9  H3  UNL     1      -3.984 -13.238   7.143  1.00  0.00     0.168 HD
HETATM   10  C4  UNL     1      -2.813 -14.812   6.631  1.00  0.00     0.265 C 
HETATM   11  O2  UNL     1      -1.900 -14.088   6.144  1.00  0.00    -0.267 OA
HETATM   12  C5  UNL     1      -2.753 -16.162   6.348  1.00  0.00     0.149 C 
ENDROOT
BRANCH  12  13
HETATM   13  C6  UNL     1      -1.910 -16.505   5.238  1.00  0.00     0.218 C 
HETATM   14  O3  UNL     1      -2.331 -16.430   4.036  1.00  0.00    -0.644 OA
HETATM   15  O4  UNL     1      -0.605 -16.928   5.432  1.00  0.00    -0.644 OA
ENDBRANCH  12  13
TORSDOF 1
ENDMDL
MODEL 4
REMARK VINA RESULT: -4.242173647      3.182      5.014
REMARK  1 active torsions:
REMARK  status: ('A' for Active; 'I' for Inactive)
REMARK    1  A    between atoms: C5_12  and  C6_13 
ROOT
HETATM    1  N1  UNL     1      -1.839 -14.124   5.946  1.00  0.00    -0.081 NA
HETATM    2  C1  UNL     1      -2.668 -15.108   6.548  1.00  0.00     0.141 C 
HETATM    3  N2  UNL     1      -3.540 -14.665   7.472  1.00  0.00    -0.310 N 
ATOM      4  H2  UNL     1      -3.460 -13.677   7.714  1.00  0.00     0.170 HD
HETATM    5  C2  UNL     1      -4.513 -15.356   8.129  1.00  0.00     0.262 C 
HETATM    6  O1  UNL     1      -5.440 -14.697   8.668  1.00  0.00    -0.267 OA
HETATM    7  C3  UNL     1      -4.546 -16.731   8.239  1.00  0.00     0.165 C 
HETATM    8  N3  UNL     1      -3.831 -17.693   7.589  1.00  0.00    -0.327 N 
ATOM      9  H3  UNL     1      -3.853 -18.627   7.997  1.00  0.00     0.168 HD
HETATM   10  C4  UNL     1      -3.093 -17.547   6.460  1.00  0.00     0.265 C 
HETATM   11  O2  UNL     1      -2.991 -18.545   5.692  1.00  0.00    -0.267 OA
HETATM   12  C5  UNL     1      -2.437 -16.395   6.072  1.00  0.00     0.149 C 
ENDROOT
BRANCH  12  13
HETATM   13  C6  UNL     1      -1.424 -16.589   5.075  1.00  0.00     0.218 C 
HETATM   14  O3  UNL     1      -0.251 -16.983   5.386  1.00  0.00    -0.644 OA
HETATM   15  O4  UNL     1      -1.684 -16.358   3.733  1.00  0.00    -0.644 OA
ENDBRANCH  12  13
TORSDOF 1
ENDMDL
MODEL 5
REMARK VINA RESULT: -4.217831493      2.960      4.626
REMARK  1 active torsions:
REMARK  status: ('A' for Active; 'I' for Inactive)
REMARK    1  A    between atoms: C5_12  and  C6_13 
ROOT
HETATM    1  N1  UNL     1      -1.888 -18.554   5.540  1.00  0.00    -0.081 NA
HETATM    2  C1  UNL     1      -2.525 -17.480   6.218  1.00  0.00     0.141 C 
HETATM    3  N2  UNL     1      -3.479 -17.820   7.103  1.00  0.00    -0.310 N 
ATOM      4  H2  UNL     1      -3.714 -18.812   7.138  1.00  0.00     0.170 HD
HETATM    5  C2  UNL     1      -4.175 -17.020   7.959  1.00  0.00     0.262 C 
HETATM    6  O1  UNL     1      -4.746 -17.564   8.940  1.00  0.00    -0.267 OA
HETATM    7  C3  UNL     1      -4.293 -15.652   7.817  1.00  0.00     0.165 C 
HETATM    8  N3  UNL     1      -3.620 -14.780   7.012  1.00  0.00    -0.327 N 
ATOM      9  H3  UNL     1      -4.033 -13.854   6.903  1.00  0.00     0.168 HD
HETATM   10  C4  UNL     1      -2.464 -15.006   6.340  1.00  0.00     0.265 C 
HETATM   11  O2  UNL     1      -1.697 -14.022   6.144  1.00  0.00    -0.267 OA
HETATM   12  C5  UNL     1      -2.046 -16.227   5.847  1.00  0.00     0.149 C 
ENDROOT
BRANCH  12  13
HETATM   13  C6  UNL     1      -1.013 -16.151   4.854  1.00  0.00     0.218 C 
HETATM   14  O3  UNL     1      -1.288 -16.029   3.615  1.00  0.00    -0.644 OA
HETATM   15  O4  UNL     1       0.326 -16.205   5.208  1.00  0.00    -0.644 OA
ENDBRANCH  12  13
TORSDOF 1
ENDMDL
