MODEL 1
REMARK VINA RESULT: -4.736066252      0.000      0.000
REMARK  1 active torsions:
REMARK  status: ('A' for Active; 'I' for Inactive)
REMARK       I    between atoms: N1_1  and  C1_4 
REMARK       I    between atoms: C1_4  and  N3_6 
REMARK       I    between atoms: N3_6  and  C2_8 
REMARK    1  A    between atoms: C2_8  and  C3_10 
ROOT
HETATM    1  C3  UNL     1      -0.683 -16.117   4.901  1.00  0.00     0.179 A 
HETATM    2  N4  UNL     1      -0.606 -15.958   3.570  1.00  0.00    -0.334 N 
ATOM      3  H4  UNL     1      -1.266 -15.338   3.100  1.00  0.00     0.168 HD
HETATM    4  C4  UNL     1       0.329 -16.605   2.844  1.00  0.00     0.186 A 
HETATM    5  N5  UNL     1       1.223 -17.434   3.414  1.00  0.00    -0.305 N 
ATOM      6  H5  UNL     1       1.929 -17.919   2.860  1.00  0.00     0.171 HD
HETATM    7  C5  UNL     1       1.145 -17.594   4.750  1.00  0.00     0.326 A 
HETATM    8  O2  UNL     1       1.967 -18.362   5.305  1.00  0.00    -0.247 OA
HETATM    9  N6  UNL     1       0.207 -16.945   5.476  1.00  0.00    -0.290 N 
ATOM     10  H6  UNL     1       0.175 -17.086   6.486  1.00  0.00     0.172 HD
ENDROOT
BRANCH   1  11
HETATM   11  C2  UNL     1      -1.700 -15.417   5.703  1.00  0.00     0.292 C 
HETATM   12  N3  UNL     1      -2.529 -16.188   6.547  1.00  0.00    -0.295 N 
HETATM   13  C1  UNL     1      -3.521 -15.551   7.335  1.00  0.00     0.188 C 
ATOM     14  H3  UNL     1      -2.415 -17.201   6.590  1.00  0.00     0.171 HD
HETATM   15  N1  UNL     1      -4.252 -16.308   8.090  1.00  0.00    -0.373 N 
HETATM   16  N2  UNL     1      -3.669 -14.157   7.270  1.00  0.00    -0.064 NA
ATOM     17  H12 UNL     1      -4.965 -15.849   8.657  1.00  0.00     0.158 HD
ATOM     18  H11 UNL     1      -4.144 -17.321   8.137  1.00  0.00     0.158 HD
HETATM   19  O1  UNL     1      -1.826 -14.167   5.638  1.00  0.00    -0.264 OA
ENDBRANCH   1  11
TORSDOF 1
ENDMDL
MODEL 2
REMARK VINA RESULT: -4.597136925      1.295      1.809
REMARK  1 active torsions:
REMARK  status: ('A' for Active; 'I' for Inactive)
REMARK       I    between atoms: N1_1  and  C1_4 
REMARK       I    between atoms: C1_4  and  N3_6 
REMARK       I    between atoms: N3_6  and  C2_8 
REMARK    1  A    between atoms: C2_8  and  C3_10 
ROOT
HETATM    1  C3  UNL     1      -0.692 -16.158   4.801  1.00  0.00     0.179 A 
HETATM    2  N4  UNL     1       0.332 -16.839   5.341  1.00  0.00    -0.334 N 
ATOM      3  H4  UNL     1       0.433 -16.871   6.356  1.00  0.00     0.168 HD
HETATM    4  C4  UNL     1       1.229 -17.481   4.564  1.00  0.00     0.186 A 
HETATM    5  N5  UNL     1       1.141 -17.470   3.221  1.00  0.00    -0.305 N 
ATOM      6  H5  UNL     1       1.821 -17.959   2.638  1.00  0.00     0.171 HD
HETATM    7  C5  UNL     1       0.114 -16.786   2.679  1.00  0.00     0.326 A 
HETATM    8  O2  UNL     1       0.010 -16.761   1.429  1.00  0.00    -0.247 OA
HETATM    9  N6  UNL     1      -0.785 -16.144   3.459  1.00  0.00    -0.290 N 
ATOM     10  H6  UNL     1      -1.552 -15.636   3.020  1.00  0.00     0.172 HD
ENDROOT
BRANCH   1  11
HETATM   11  C2  UNL     1      -1.676 -15.454   5.639  1.00  0.00     0.292 C 
HETATM   12  N3  UNL     1      -2.508 -16.226   6.479  1.00  0.00    -0.295 N 
HETATM   13  C1  UNL     1      -3.470 -15.585   7.302  1.00  0.00     0.188 C 
ATOM     14  H3  UNL     1      -2.418 -17.242   6.495  1.00  0.00     0.171 HD
HETATM   15  N1  UNL     1      -4.205 -16.343   8.051  1.00  0.00    -0.373 N 
HETATM   16  N2  UNL     1      -3.585 -14.187   7.274  1.00  0.00    -0.064 NA
ATOM     17  H12 UNL     1      -4.896 -15.882   8.643  1.00  0.00     0.158 HD
ATOM     18  H11 UNL     1      -4.121 -17.359   8.072  1.00  0.00     0.158 HD
HETATM   19  O1  UNL     1      -1.773 -14.200   5.607  1.00  0.00    -0.264 OA
ENDBRANCH   1  11
TORSDOF 1
ENDMDL
MODEL 3
REMARK VINA RESULT: -4.296674990      1.963      5.580
REMARK  1 active torsions:
REMARK  status: ('A' for Active; 'I' for Inactive)
REMARK       I    between atoms: N1_1  and  C1_4 
REMARK       I    between atoms: C1_4  and  N3_6 
REMARK       I    between atoms: N3_6  and  C2_8 
REMARK    1  A    between atoms: C2_8  and  C3_10 
ROOT
HETATM    1  C3  UNL     1      -3.247 -15.377   6.510  1.00  0.00     0.179 A 
HETATM    2  N4  UNL     1      -3.131 -14.620   7.613  1.00  0.00    -0.334 N 
ATOM      3  H4  UNL     1      -2.243 -14.158   7.814  1.00  0.00     0.168 HD
HETATM    4  C4  UNL     1      -4.168 -14.459   8.460  1.00  0.00     0.186 A 
HETATM    5  N5  UNL     1      -5.361 -15.044   8.242  1.00  0.00    -0.305 N 
ATOM      6  H5  UNL     1      -6.143 -14.918   8.885  1.00  0.00     0.171 HD
HETATM    7  C5  UNL     1      -5.477 -15.805   7.135  1.00  0.00     0.326 A 
HETATM    8  O2  UNL     1      -6.578 -16.362   6.909  1.00  0.00    -0.247 OA
HETATM    9  N6  UNL     1      -4.436 -15.965   6.287  1.00  0.00    -0.290 N 
ATOM     10  H6  UNL     1      -4.555 -16.545   5.457  1.00  0.00     0.172 HD
ENDROOT
BRANCH   1  11
HETATM   11  C2  UNL     1      -2.121 -15.560   5.579  1.00  0.00     0.292 C 
HETATM   12  N3  UNL     1      -1.325 -16.718   5.717  1.00  0.00    -0.295 N 
HETATM   13  C1  UNL     1      -0.231 -16.931   4.841  1.00  0.00     0.188 C 
ATOM     14  H3  UNL     1      -1.537 -17.401   6.445  1.00  0.00     0.171 HD
HETATM   15  N1  UNL     1       0.463 -18.010   5.014  1.00  0.00    -0.373 N 
HETATM   16  N2  UNL     1       0.052 -15.986   3.842  1.00  0.00    -0.064 NA
ATOM     17  H12 UNL     1       1.251 -18.163   4.383  1.00  0.00     0.158 HD
ATOM     18  H11 UNL     1       0.258 -18.697   5.740  1.00  0.00     0.158 HD
HETATM   19  O1  UNL     1      -1.875 -14.707   4.687  1.00  0.00    -0.264 OA
ENDBRANCH   1  11
TORSDOF 1
ENDMDL
MODEL 4
REMARK VINA RESULT: -4.154299111      1.861      5.235
REMARK  1 active torsions:
REMARK  status: ('A' for Active; 'I' for Inactive)
REMARK       I    between atoms: N1_1  and  C1_4 
REMARK       I    between atoms: C1_4  and  N3_6 
REMARK       I    between atoms: N3_6  and  C2_8 
REMARK    1  A    between atoms: C2_8  and  C3_10 
ROOT
HETATM    1  C3  UNL     1      -2.727 -15.822   5.682  1.00  0.00     0.179 A 
HETATM    2  N4  UNL     1      -3.953 -16.278   5.375  1.00  0.00    -0.334 N 
ATOM      3  H4  UNL     1      -4.083 -16.837   4.531  1.00  0.00     0.168 HD
HETATM    4  C4  UNL     1      -5.014 -16.009   6.163  1.00  0.00     0.186 A 
HETATM    5  N5  UNL     1      -4.896 -15.277   7.287  1.00  0.00    -0.305 N 
ATOM      6  H5  UNL     1      -5.702 -15.078   7.880  1.00  0.00     0.171 HD
HETATM    7  C5  UNL     1      -3.667 -14.819   7.594  1.00  0.00     0.326 A 
HETATM    8  O2  UNL     1      -3.531 -14.135   8.637  1.00  0.00    -0.247 OA
HETATM    9  N6  UNL     1      -2.604 -15.090   6.803  1.00  0.00    -0.290 N 
ATOM     10  H6  UNL     1      -1.686 -14.730   7.063  1.00  0.00     0.172 HD
ENDROOT
BRANCH   1  11
HETATM   11  C2  UNL     1      -1.563 -16.109   4.828  1.00  0.00     0.292 C 
HETATM   12  N3  UNL     1      -0.411 -16.655   5.436  1.00  0.00    -0.295 N 
HETATM   13  C1  UNL     1       0.732 -16.944   4.648  1.00  0.00     0.188 C 
ATOM     14  H3  UNL     1      -0.401 -16.840   6.439  1.00  0.00     0.171 HD
HETATM   15  N1  UNL     1       1.759 -17.443   5.259  1.00  0.00    -0.373 N 
HETATM   16  N2  UNL     1       0.708 -16.686   3.269  1.00  0.00    -0.064 NA
ATOM     17  H12 UNL     1       2.582 -17.652   4.692  1.00  0.00     0.158 HD
ATOM     18  H11 UNL     1       1.777 -17.631   6.262  1.00  0.00     0.158 HD
HETATM   19  O1  UNL     1      -1.593 -15.874   3.592  1.00  0.00    -0.264 OA
ENDBRANCH   1  11
TORSDOF 1
ENDMDL
MODEL 5
REMARK VINA RESULT: -4.135634971      2.994      6.611
REMARK  1 active torsions:
REMARK  status: ('A' for Active; 'I' for Inactive)
REMARK       I    between atoms: N1_1  and  C1_4 
REMARK       I    between atoms: C1_4  and  N3_6 
REMARK       I    between atoms: N3_6  and  C2_8 
REMARK    1  A    between atoms: C2_8  and  C3_10 
ROOT
HETATM    1  C3  UNL     1      -4.659 -15.817   8.461  1.00  0.00     0.179 A 
HETATM    2  N4  UNL     1      -4.558 -17.100   8.843  1.00  0.00    -0.334 N 
ATOM      3  H4  UNL     1      -3.796 -17.673   8.481  1.00  0.00     0.168 HD
HETATM    4  C4  UNL     1      -5.449 -17.644   9.698  1.00  0.00     0.186 A 
HETATM    5  N5  UNL     1      -6.472 -16.932  10.206  1.00  0.00    -0.305 N 
ATOM      6  H5  UNL     1      -7.142 -17.348  10.854  1.00  0.00     0.171 HD
HETATM    7  C5  UNL     1      -6.573 -15.644   9.822  1.00  0.00     0.326 A 
HETATM    8  O2  UNL     1      -7.519 -14.959  10.281  1.00  0.00    -0.247 OA
HETATM    9  N6  UNL     1      -5.679 -15.100   8.965  1.00  0.00    -0.290 N 
ATOM     10  H6  UNL     1      -5.782 -14.123   8.694  1.00  0.00     0.172 HD
ENDROOT
BRANCH   1  11
HETATM   11  C2  UNL     1      -3.693 -15.213   7.528  1.00  0.00     0.292 C 
HETATM   12  N3  UNL     1      -2.782 -16.068   6.869  1.00  0.00    -0.295 N 
HETATM   13  C1  UNL     1      -1.835 -15.525   5.964  1.00  0.00     0.188 C 
ATOM     14  H3  UNL     1      -2.804 -17.072   7.044  1.00  0.00     0.171 HD
HETATM   15  N1  UNL     1      -1.024 -16.355   5.389  1.00  0.00    -0.373 N 
HETATM   16  N2  UNL     1      -1.813 -14.142   5.729  1.00  0.00    -0.064 NA
ATOM     17  H12 UNL     1      -0.344 -15.965   4.737  1.00  0.00     0.158 HD
ATOM     18  H11 UNL     1      -1.040 -17.361   5.559  1.00  0.00     0.158 HD
HETATM   19  O1  UNL     1      -3.680 -13.972   7.325  1.00  0.00    -0.264 OA
ENDBRANCH   1  11
TORSDOF 1
ENDMDL
