MODEL 1
REMARK VINA RESULT: -4.521442975      0.000      0.000
REMARK  3 active torsions:
REMARK  status: ('A' for Active; 'I' for Inactive)
REMARK    1  A    between atoms: N1_1  and  N2_4 
REMARK       I    between atoms: N2_4  and  C1_6 
REMARK    2  A    between atoms: C1_6  and  C2_8 
REMARK    3  A    between atoms: N3_10  and  O2_11 
ROOT
HETATM    1  C2  UNL     1      -1.556 -16.321   5.707  1.00  0.00     0.119 A 
HETATM    2  C3  UNL     1      -2.033 -15.109   6.125  1.00  0.00     0.151 A 
HETATM    3  N3  UNL     1      -3.172 -15.020   6.852  1.00  0.00    -0.183 N 
HETATM    4  C4  UNL     1      -3.823 -16.134   7.159  1.00  0.00     0.353 A 
HETATM    5  O3  UNL     1      -4.884 -16.053   7.834  1.00  0.00    -0.244 OA
HETATM    6  N4  UNL     1      -3.395 -17.368   6.773  1.00  0.00    -0.273 N 
ATOM      7  H4  UNL     1      -3.921 -18.204   7.031  1.00  0.00     0.173 HD
HETATM    8  C5  UNL     1      -2.268 -17.467   6.047  1.00  0.00     0.266 A 
HETATM    9  O4  UNL     1      -1.900 -18.630   5.706  1.00  0.00    -0.267 OA
ENDROOT
BRANCH   1  10
HETATM   10  C1  UNL     1      -0.377 -16.504   4.859  1.00  0.00     0.276 C 
HETATM   11  N2  UNL     1       0.613 -17.434   5.138  1.00  0.00    -0.272 N 
ATOM     12  H2  UNL     1       0.449 -18.003   5.969  1.00  0.00     0.189 HD
HETATM   13  O1  UNL     1      -0.279 -15.780   3.844  1.00  0.00    -0.266 OA
BRANCH  11  14
HETATM   14  N1  UNL     1       1.777 -17.707   4.469  1.00  0.00    -0.342 N 
ATOM     15  H12 UNL     1       1.791 -17.362   3.509  1.00  0.00     0.176 HD
ATOM     16  H11 UNL     1       2.614 -18.196   4.786  1.00  0.00     0.176 HD
ENDBRANCH  11  14
ENDBRANCH   1  10
BRANCH   3  17
HETATM   17  O2  UNL     1      -3.610 -13.757   7.211  1.00  0.00    -0.279 OA
ATOM     18  H2  UNL     1      -3.533 -13.505   8.124  1.00  0.00     0.245 HD
ENDBRANCH   3  17
TORSDOF 3
ENDMDL
MODEL 2
REMARK VINA RESULT: -4.246788543      1.433      2.465
REMARK  3 active torsions:
REMARK  status: ('A' for Active; 'I' for Inactive)
REMARK    1  A    between atoms: N1_1  and  N2_4 
REMARK       I    between atoms: N2_4  and  C1_6 
REMARK    2  A    between atoms: C1_6  and  C2_8 
REMARK    3  A    between atoms: N3_10  and  O2_11 
ROOT
HETATM    1  C2  UNL     1      -2.429 -16.296   6.070  1.00  0.00     0.119 A 
HETATM    2  C3  UNL     1      -3.195 -17.217   6.730  1.00  0.00     0.151 A 
HETATM    3  N3  UNL     1      -4.032 -16.844   7.727  1.00  0.00    -0.183 N 
HETATM    4  C4  UNL     1      -4.102 -15.561   8.056  1.00  0.00     0.353 A 
HETATM    5  O3  UNL     1      -4.879 -15.212   8.984  1.00  0.00    -0.244 OA
HETATM    6  N4  UNL     1      -3.366 -14.599   7.433  1.00  0.00    -0.273 N 
ATOM      7  H4  UNL     1      -3.448 -13.621   7.711  1.00  0.00     0.173 HD
HETATM    8  C5  UNL     1      -2.528 -14.960   6.445  1.00  0.00     0.266 A 
HETATM    9  O4  UNL     1      -1.859 -14.039   5.889  1.00  0.00    -0.267 OA
ENDROOT
BRANCH   1  10
HETATM   10  C1  UNL     1      -1.446 -16.619   5.034  1.00  0.00     0.276 C 
HETATM   11  N2  UNL     1      -0.084 -16.418   5.200  1.00  0.00    -0.272 N 
ATOM     12  H2  UNL     1       0.190 -16.049   6.111  1.00  0.00     0.189 HD
HETATM   13  O1  UNL     1      -1.877 -17.095   3.961  1.00  0.00    -0.266 OA
BRANCH  11  14
HETATM   14  N1  UNL     1       0.950 -16.640   4.330  1.00  0.00    -0.342 N 
ATOM     15  H12 UNL     1       0.659 -17.036   3.436  1.00  0.00     0.176 HD
ATOM     16  H11 UNL     1       1.949 -16.469   4.443  1.00  0.00     0.176 HD
ENDBRANCH  11  14
ENDBRANCH   1  10
BRANCH   3  17
HETATM   17  O2  UNL     1      -4.751 -17.836   8.369  1.00  0.00    -0.279 OA
ATOM     18  H2  UNL     1      -5.033 -18.583   7.853  1.00  0.00     0.245 HD
ENDBRANCH   3  17
TORSDOF 3
ENDMDL
MODEL 3
REMARK VINA RESULT: -4.244967400      1.986      4.855
REMARK  3 active torsions:
REMARK  status: ('A' for Active; 'I' for Inactive)
REMARK    1  A    between atoms: N1_1  and  N2_4 
REMARK       I    between atoms: N2_4  and  C1_6 
REMARK    2  A    between atoms: C1_6  and  C2_8 
REMARK    3  A    between atoms: N3_10  and  O2_11 
ROOT
HETATM    1  C2  UNL     1      -2.129 -15.577   5.241  1.00  0.00     0.119 A 
HETATM    2  C3  UNL     1      -0.839 -15.896   5.565  1.00  0.00     0.151 A 
HETATM    3  N3  UNL     1       0.032 -16.326   4.620  1.00  0.00    -0.183 N 
HETATM    4  C4  UNL     1      -0.386 -16.432   3.366  1.00  0.00     0.353 A 
HETATM    5  O3  UNL     1       0.422 -16.833   2.486  1.00  0.00    -0.244 OA
HETATM    6  N4  UNL     1      -1.658 -16.126   2.985  1.00  0.00    -0.273 N 
ATOM      7  H4  UNL     1      -1.943 -16.217   2.009  1.00  0.00     0.173 HD
HETATM    8  C5  UNL     1      -2.531 -15.703   3.915  1.00  0.00     0.266 A 
HETATM    9  O4  UNL     1      -3.704 -15.428   3.525  1.00  0.00    -0.267 OA
ENDROOT
BRANCH   1  10
HETATM   10  C1  UNL     1      -3.154 -15.175   6.206  1.00  0.00     0.276 C 
HETATM   11  N2  UNL     1      -4.237 -15.979   6.532  1.00  0.00    -0.272 N 
ATOM     12  H2  UNL     1      -4.256 -16.886   6.065  1.00  0.00     0.189 HD
HETATM   13  O1  UNL     1      -3.027 -14.056   6.748  1.00  0.00    -0.266 OA
BRANCH  11  14
HETATM   14  N1  UNL     1      -5.283 -15.742   7.383  1.00  0.00    -0.342 N 
ATOM     15  H12 UNL     1      -5.771 -14.865   7.201  1.00  0.00     0.176 HD
ATOM     16  H11 UNL     1      -5.638 -16.304   8.156  1.00  0.00     0.176 HD
ENDBRANCH  11  14
ENDBRANCH   1  10
BRANCH   3  17
HETATM   17  O2  UNL     1       1.311 -16.660   5.028  1.00  0.00    -0.279 OA
ATOM     18  H2  UNL     1       1.525 -16.551   5.948  1.00  0.00     0.245 HD
ENDBRANCH   3  17
TORSDOF 3
ENDMDL
MODEL 4
REMARK VINA RESULT: -4.224400017      2.379      4.909
REMARK  3 active torsions:
REMARK  status: ('A' for Active; 'I' for Inactive)
REMARK    1  A    between atoms: N1_1  and  N2_4 
REMARK       I    between atoms: N2_4  and  C1_6 
REMARK    2  A    between atoms: C1_6  and  C2_8 
REMARK    3  A    between atoms: N3_10  and  O2_11 
ROOT
HETATM    1  C2  UNL     1      -1.806 -15.650   4.527  1.00  0.00     0.119 A 
HETATM    2  C3  UNL     1      -0.533 -16.113   4.333  1.00  0.00     0.151 A 
HETATM    3  N3  UNL     1      -0.189 -16.748   3.187  1.00  0.00    -0.183 N 
HETATM    4  C4  UNL     1      -1.109 -16.914   2.247  1.00  0.00     0.353 A 
HETATM    5  O3  UNL     1      -0.791 -17.507   1.181  1.00  0.00    -0.244 OA
HETATM    6  N4  UNL     1      -2.390 -16.473   2.383  1.00  0.00    -0.273 N 
ATOM      7  H4  UNL     1      -3.071 -16.616   1.636  1.00  0.00     0.173 HD
HETATM    8  C5  UNL     1      -2.744 -15.845   3.519  1.00  0.00     0.266 A 
HETATM    9  O4  UNL     1      -3.943 -15.449   3.611  1.00  0.00    -0.267 OA
ENDROOT
BRANCH   1  10
HETATM   10  C1  UNL     1      -2.283 -15.019   5.759  1.00  0.00     0.276 C 
HETATM   11  N2  UNL     1      -3.105 -15.670   6.668  1.00  0.00    -0.272 N 
ATOM     12  H2  UNL     1      -3.336 -16.634   6.427  1.00  0.00     0.189 HD
HETATM   13  O1  UNL     1      -1.921 -13.843   5.982  1.00  0.00    -0.266 OA
BRANCH  11  14
HETATM   14  N1  UNL     1      -3.653 -15.217   7.838  1.00  0.00    -0.342 N 
ATOM     15  H12 UNL     1      -3.952 -15.962   8.468  1.00  0.00     0.176 HD
ATOM     16  H11 UNL     1      -3.803 -14.263   8.164  1.00  0.00     0.176 HD
ENDBRANCH  11  14
ENDBRANCH   1  10
BRANCH   3  17
HETATM   17  O2  UNL     1       1.109 -17.216   3.076  1.00  0.00    -0.279 OA
ATOM     18  H2  UNL     1       1.232 -18.118   2.803  1.00  0.00     0.245 HD
ENDBRANCH   3  17
TORSDOF 3
ENDMDL
MODEL 5
REMARK VINA RESULT: -4.174546615      2.370      2.889
REMARK  3 active torsions:
REMARK  status: ('A' for Active; 'I' for Inactive)
REMARK    1  A    between atoms: N1_1  and  N2_4 
REMARK       I    between atoms: N2_4  and  C1_6 
REMARK    2  A    between atoms: C1_6  and  C2_8 
REMARK    3  A    between atoms: N3_10  and  O2_11 
ROOT
HETATM    1  C2  UNL     1      -1.027 -16.420   3.493  1.00  0.00     0.119 A 
HETATM    2  C3  UNL     1      -2.334 -16.134   3.206  1.00  0.00     0.151 A 
HETATM    3  N3  UNL     1      -3.152 -15.593   4.142  1.00  0.00    -0.183 N 
HETATM    4  C4  UNL     1      -2.664 -15.340   5.348  1.00  0.00     0.353 A 
HETATM    5  O3  UNL     1      -3.423 -14.839   6.220  1.00  0.00    -0.244 OA
HETATM    6  N4  UNL     1      -1.371 -15.601   5.690  1.00  0.00    -0.273 N 
ATOM      7  H4  UNL     1      -1.030 -15.390   6.628  1.00  0.00     0.173 HD
HETATM    8  C5  UNL     1      -0.552 -16.142   4.770  1.00  0.00     0.266 A 
HETATM    9  O4  UNL     1       0.642 -16.371   5.124  1.00  0.00    -0.267 OA
ENDROOT
BRANCH   1  10
HETATM   10  C1  UNL     1      -0.096 -17.069   2.569  1.00  0.00     0.276 C 
HETATM   11  N2  UNL     1       1.184 -16.591   2.332  1.00  0.00    -0.272 N 
ATOM     12  H2  UNL     1       1.441 -15.761   2.868  1.00  0.00     0.189 HD
HETATM   13  O1  UNL     1      -0.493 -18.098   1.980  1.00  0.00    -0.266 OA
BRANCH  11  14
HETATM   14  N1  UNL     1       2.156 -17.060   1.489  1.00  0.00    -0.342 N 
ATOM     15  H12 UNL     1       1.794 -17.598   0.701  1.00  0.00     0.176 HD
ATOM     16  H11 UNL     1       3.169 -16.952   1.533  1.00  0.00     0.176 HD
ENDBRANCH  11  14
ENDBRANCH   1  10
BRANCH   3  17
HETATM   17  O2  UNL     1      -4.470 -15.361   3.788  1.00  0.00    -0.279 OA
ATOM     18  H2  UNL     1      -4.951 -14.707   4.281  1.00  0.00     0.245 HD
ENDBRANCH   3  17
TORSDOF 3
ENDMDL
