MODEL 1
REMARK VINA RESULT: -4.607188713      0.000      0.000
REMARK  3 active torsions:
REMARK  status: ('A' for Active; 'I' for Inactive)
REMARK    1  A    between atoms: N1_1  and  N2_4 
REMARK       I    between atoms: N2_4  and  C1_6 
REMARK    2  A    between atoms: C1_6  and  C2_8 
REMARK    3  A    between atoms: C4_15  and  C5_16 
ROOT
HETATM    1  C2  UNL     1      -0.270 -17.021   4.188  1.00  0.00     0.191 A 
HETATM    2  N3  UNL     1      -0.960 -17.037   3.018  1.00  0.00    -0.278 N 
ATOM      3  H3  UNL     1      -0.555 -17.506   2.208  1.00  0.00     0.189 HD
HETATM    4  N4  UNL     1      -2.144 -16.459   2.903  1.00  0.00    -0.263 N 
ATOM      5  H4  UNL     1      -2.622 -16.496   2.003  1.00  0.00     0.190 HD
HETATM    6  C3  UNL     1      -2.742 -15.823   3.927  1.00  0.00     0.291 A 
HETATM    7  O2  UNL     1      -3.880 -15.276   3.795  1.00  0.00    -0.264 OA
HETATM    8  C4  UNL     1      -2.068 -15.789   5.130  1.00  0.00     0.169 A 
HETATM    9  N6  UNL     1      -0.864 -16.387   5.216  1.00  0.00    -0.328 N 
ATOM     10  H6  UNL     1      -0.374 -16.356   6.110  1.00  0.00     0.168 HD
ENDROOT
BRANCH   1  11
HETATM   11  C1  UNL     1       1.033 -17.657   4.318  1.00  0.00     0.304 C 
HETATM   12  N2  UNL     1       1.844 -17.549   5.455  1.00  0.00    -0.270 N 
ATOM     13  H2  UNL     1       1.497 -16.991   6.236  1.00  0.00     0.189 HD
HETATM   14  O1  UNL     1       1.442 -18.341   3.348  1.00  0.00    -0.263 OA
BRANCH  12  15
HETATM   15  N1  UNL     1       3.079 -18.147   5.590  1.00  0.00    -0.342 N 
ATOM     16  H12 UNL     1       3.850 -17.546   5.880  1.00  0.00     0.176 HD
ATOM     17  H11 UNL     1       3.261 -19.135   5.420  1.00  0.00     0.176 HD
ENDBRANCH  12  15
ENDBRANCH   1  11
BRANCH   8  18
HETATM   18  C5  UNL     1      -2.667 -15.112   6.280  1.00  0.00     0.287 C 
HETATM   19  N5  UNL     1      -3.337 -15.880   7.260  1.00  0.00    -0.056 NA
HETATM   20  O3  UNL     1      -2.580 -13.872   6.385  1.00  0.00    -0.269 OA
ENDBRANCH   8  18
TORSDOF 3
ENDMDL
MODEL 2
REMARK VINA RESULT: -4.583738245      1.519      1.519
REMARK  3 active torsions:
REMARK  status: ('A' for Active; 'I' for Inactive)
REMARK    1  A    between atoms: N1_1  and  N2_4 
REMARK       I    between atoms: N2_4  and  C1_6 
REMARK    2  A    between atoms: C1_6  and  C2_8 
REMARK    3  A    between atoms: C4_15  and  C5_16 
ROOT
HETATM    1  C2  UNL     1      -0.693 -16.708   2.806  1.00  0.00     0.191 A 
HETATM    2  N3  UNL     1      -1.779 -16.776   1.992  1.00  0.00    -0.278 N 
ATOM      3  H3  UNL     1      -1.681 -17.191   1.066  1.00  0.00     0.189 HD
HETATM    4  N4  UNL     1      -2.960 -16.315   2.371  1.00  0.00    -0.263 N 
ATOM      5  H4  UNL     1      -3.744 -16.387   1.724  1.00  0.00     0.190 HD
HETATM    6  C3  UNL     1      -3.166 -15.756   3.578  1.00  0.00     0.291 A 
HETATM    7  O2  UNL     1      -4.308 -15.322   3.922  1.00  0.00    -0.264 OA
HETATM    8  C4  UNL     1      -2.083 -15.673   4.429  1.00  0.00     0.169 A 
HETATM    9  N6  UNL     1      -0.894 -16.150   4.013  1.00  0.00    -0.328 N 
ATOM     10  H6  UNL     1      -0.100 -16.084   4.651  1.00  0.00     0.168 HD
ENDROOT
BRANCH   1  11
HETATM   11  C1  UNL     1       0.607 -17.214   2.391  1.00  0.00     0.304 C 
HETATM   12  N2  UNL     1       1.509 -17.849   3.255  1.00  0.00    -0.270 N 
ATOM     13  H2  UNL     1       1.234 -17.960   4.232  1.00  0.00     0.189 HD
HETATM   14  O1  UNL     1       0.927 -17.070   1.186  1.00  0.00    -0.263 OA
BRANCH  12  15
HETATM   15  N1  UNL     1       2.742 -18.333   2.875  1.00  0.00    -0.342 N 
ATOM     16  H12 UNL     1       2.828 -19.345   2.780  1.00  0.00     0.176 HD
ATOM     17  H11 UNL     1       3.556 -17.749   2.686  1.00  0.00     0.176 HD
ENDBRANCH  12  15
ENDBRANCH   1  11
BRANCH   8  18
HETATM   18  C5  UNL     1      -2.244 -15.075   5.754  1.00  0.00     0.287 C 
HETATM   19  N5  UNL     1      -2.700 -15.879   6.823  1.00  0.00    -0.056 NA
HETATM   20  O3  UNL     1      -1.979 -13.867   5.926  1.00  0.00    -0.269 OA
ENDBRANCH   8  18
TORSDOF 3
ENDMDL
MODEL 3
REMARK VINA RESULT: -4.567224573      1.047      1.047
REMARK  3 active torsions:
REMARK  status: ('A' for Active; 'I' for Inactive)
REMARK    1  A    between atoms: N1_1  and  N2_4 
REMARK       I    between atoms: N2_4  and  C1_6 
REMARK    2  A    between atoms: C1_6  and  C2_8 
REMARK    3  A    between atoms: C4_15  and  C5_16 
ROOT
HETATM    1  C2  UNL     1      -0.243 -16.962   4.204  1.00  0.00     0.191 A 
HETATM    2  N3  UNL     1      -0.929 -16.991   3.032  1.00  0.00    -0.278 N 
ATOM      3  H3  UNL     1      -0.511 -17.448   2.222  1.00  0.00     0.189 HD
HETATM    4  N4  UNL     1      -2.126 -16.441   2.915  1.00  0.00    -0.263 N 
ATOM      5  H4  UNL     1      -2.601 -16.487   2.014  1.00  0.00     0.190 HD
HETATM    6  C3  UNL     1      -2.742 -15.822   3.939  1.00  0.00     0.291 A 
HETATM    7  O2  UNL     1      -3.892 -15.301   3.805  1.00  0.00    -0.264 OA
HETATM    8  C4  UNL     1      -2.072 -15.775   5.144  1.00  0.00     0.169 A 
HETATM    9  N6  UNL     1      -0.854 -16.345   5.231  1.00  0.00    -0.328 N 
ATOM     10  H6  UNL     1      -0.367 -16.305   6.126  1.00  0.00     0.168 HD
ENDROOT
BRANCH   1  11
HETATM   11  C1  UNL     1       1.075 -17.567   4.335  1.00  0.00     0.304 C 
HETATM   12  N2  UNL     1       1.832 -18.029   3.250  1.00  0.00    -0.270 N 
ATOM     13  H2  UNL     1       1.432 -17.934   2.316  1.00  0.00     0.189 HD
HETATM   14  O1  UNL     1       1.550 -17.674   5.491  1.00  0.00    -0.263 OA
BRANCH  12  15
HETATM   15  N1  UNL     1       3.080 -18.603   3.361  1.00  0.00    -0.342 N 
ATOM     16  H12 UNL     1       3.112 -19.618   3.457  1.00  0.00     0.176 HD
ATOM     17  H11 UNL     1       3.956 -18.082   3.353  1.00  0.00     0.176 HD
ENDBRANCH  12  15
ENDBRANCH   1  11
BRANCH   8  18
HETATM   18  C5  UNL     1      -2.689 -15.116   6.295  1.00  0.00     0.287 C 
HETATM   19  N5  UNL     1      -3.361 -15.899   7.260  1.00  0.00    -0.056 NA
HETATM   20  O3  UNL     1      -2.616 -13.875   6.411  1.00  0.00    -0.269 OA
ENDBRANCH   8  18
TORSDOF 3
ENDMDL
MODEL 4
REMARK VINA RESULT: -4.222460780      2.211      4.614
REMARK  3 active torsions:
REMARK  status: ('A' for Active; 'I' for Inactive)
REMARK    1  A    between atoms: N1_1  and  N2_4 
REMARK       I    between atoms: N2_4  and  C1_6 
REMARK    2  A    between atoms: C1_6  and  C2_8 
REMARK    3  A    between atoms: C4_15  and  C5_16 
ROOT
HETATM    1  C2  UNL     1      -2.820 -16.353   2.417  1.00  0.00     0.191 A 
HETATM    2  N3  UNL     1      -1.589 -16.863   2.150  1.00  0.00    -0.278 N 
ATOM      3  H3  UNL     1      -1.421 -17.309   1.249  1.00  0.00     0.189 HD
HETATM    4  N4  UNL     1      -0.604 -16.796   3.031  1.00  0.00    -0.263 N 
ATOM      5  H4  UNL     1       0.301 -17.195   2.785  1.00  0.00     0.190 HD
HETATM    6  C3  UNL     1      -0.751 -16.222   4.239  1.00  0.00     0.291 A 
HETATM    7  O2  UNL     1       0.209 -16.167   5.068  1.00  0.00    -0.264 OA
HETATM    8  C4  UNL     1      -1.988 -15.693   4.542  1.00  0.00     0.169 A 
HETATM    9  N6  UNL     1      -2.971 -15.778   3.624  1.00  0.00    -0.328 N 
ATOM     10  H6  UNL     1      -3.882 -15.383   3.857  1.00  0.00     0.168 HD
ENDROOT
BRANCH   1  11
HETATM   11  C1  UNL     1      -3.905 -16.425   1.450  1.00  0.00     0.304 C 
HETATM   12  N2  UNL     1      -4.035 -15.558   0.357  1.00  0.00    -0.270 N 
ATOM     13  H2  UNL     1      -3.325 -14.835   0.237  1.00  0.00     0.189 HD
HETATM   14  O1  UNL     1      -4.767 -17.322   1.613  1.00  0.00    -0.263 OA
BRANCH  12  15
HETATM   15  N1  UNL     1      -5.057 -15.617  -0.565  1.00  0.00    -0.342 N 
ATOM     16  H12 UNL     1      -5.097 -16.449  -1.154  1.00  0.00     0.176 HD
ATOM     17  H11 UNL     1      -5.762 -14.891  -0.691  1.00  0.00     0.176 HD
ENDBRANCH  12  15
ENDBRANCH   1  11
BRANCH   8  18
HETATM   18  C5  UNL     1      -2.209 -15.056   5.840  1.00  0.00     0.287 C 
HETATM   19  N5  UNL     1      -2.721 -15.827   6.908  1.00  0.00    -0.056 NA
HETATM   20  O3  UNL     1      -1.945 -13.846   5.989  1.00  0.00    -0.269 OA
ENDBRANCH   8  18
TORSDOF 3
ENDMDL
MODEL 5
REMARK VINA RESULT: -4.127704266      2.124      4.988
REMARK  3 active torsions:
REMARK  status: ('A' for Active; 'I' for Inactive)
REMARK    1  A    between atoms: N1_1  and  N2_4 
REMARK       I    between atoms: N2_4  and  C1_6 
REMARK    2  A    between atoms: C1_6  and  C2_8 
REMARK    3  A    between atoms: C4_15  and  C5_16 
ROOT
HETATM    1  C2  UNL     1      -1.918 -16.213   5.556  1.00  0.00     0.191 A 
HETATM    2  N3  UNL     1      -1.927 -17.465   6.085  1.00  0.00    -0.278 N 
ATOM      3  H3  UNL     1      -2.327 -17.611   7.011  1.00  0.00     0.189 HD
HETATM    4  N4  UNL     1      -1.429 -18.499   5.427  1.00  0.00    -0.263 N 
ATOM      5  H4  UNL     1      -1.456 -19.419   5.866  1.00  0.00     0.190 HD
HETATM    6  C3  UNL     1      -0.886 -18.385   4.201  1.00  0.00     0.291 A 
HETATM    7  O2  UNL     1      -0.414 -19.391   3.587  1.00  0.00    -0.264 OA
HETATM    8  C4  UNL     1      -0.861 -17.127   3.635  1.00  0.00     0.169 A 
HETATM    9  N6  UNL     1      -1.376 -16.094   4.330  1.00  0.00    -0.328 N 
ATOM     10  H6  UNL     1      -1.354 -15.168   3.903  1.00  0.00     0.168 HD
ENDROOT
BRANCH   1  11
HETATM   11  C1  UNL     1      -2.465 -15.074   6.277  1.00  0.00     0.304 C 
HETATM   12  N2  UNL     1      -3.462 -15.177   7.257  1.00  0.00    -0.270 N 
ATOM     13  H2  UNL     1      -3.822 -16.107   7.473  1.00  0.00     0.189 HD
HETATM   14  O1  UNL     1      -2.009 -13.939   5.999  1.00  0.00    -0.263 OA
BRANCH  12  15
HETATM   15  N1  UNL     1      -3.988 -14.106   7.947  1.00  0.00    -0.342 N 
ATOM     16  H12 UNL     1      -3.353 -13.604   8.569  1.00  0.00     0.176 HD
ATOM     17  H11 UNL     1      -4.955 -13.793   7.874  1.00  0.00     0.176 HD
ENDBRANCH  12  15
ENDBRANCH   1  11
BRANCH   8  18
HETATM   18  C5  UNL     1      -0.284 -16.939   2.305  1.00  0.00     0.287 C 
HETATM   19  N5  UNL     1      -1.111 -17.080   1.168  1.00  0.00    -0.056 NA
HETATM   20  O3  UNL     1       0.926 -16.657   2.188  1.00  0.00    -0.269 OA
ENDBRANCH   8  18
TORSDOF 3
ENDMDL
