MODEL 1
REMARK VINA RESULT: -4.207029529      0.000      0.000
REMARK  4 active torsions:
REMARK  status: ('A' for Active; 'I' for Inactive)
REMARK    1  A    between atoms: N1_1  and  C1_4 
REMARK    2  A    between atoms: C4_10  and  O1_11 
REMARK    3  A    between atoms: C4_10  and  N4_13 
REMARK    4  A    between atoms: N4_13  and  N5_15 
ROOT
HETATM    1  C1  UNL     1      -3.939 -15.284   6.616  1.00  0.00     0.691 A 
HETATM    2  N2  UNL     1      -2.680 -15.101   7.046  1.00  0.00    -0.186 N 
ATOM      3  H2  UNL     1      -2.499 -14.711   7.972  1.00  0.00     0.185 HD
HETATM    4  C2  UNL     1      -1.649 -15.442   6.229  1.00  0.00     0.224 A 
HETATM    5  N3  UNL     1      -1.843 -15.960   5.004  1.00  0.00    -0.137 N 
HETATM    6  C3  UNL     1      -1.017 -16.357   4.024  1.00  0.00     0.125 A 
HETATM    7  C4  UNL     1       0.419 -16.440   3.977  1.00  0.00     0.184 C 
HETATM    8  C5  UNL     1      -1.819 -16.800   2.943  1.00  0.00     0.141 A 
HETATM    9  N6  UNL     1      -3.080 -16.647   3.336  1.00  0.00    -0.198 N 
ATOM     10  H6  UNL     1      -3.897 -16.881   2.772  1.00  0.00     0.183 HD
HETATM   11  C6  UNL     1      -3.128 -16.139   4.579  1.00  0.00     0.704 A 
HETATM   12  N7  UNL     1      -4.143 -15.799   5.395  1.00  0.00    -0.022 N 
ATOM     13  H7  UNL     1      -5.101 -15.937   5.072  1.00  0.00     0.203 HD
ENDROOT
BRANCH   7  14
HETATM   14  O1  UNL     1       0.985 -16.428   2.803  1.00  0.00    -0.343 OA
ATOM     15  H1  UNL     1       1.648 -17.086   2.628  1.00  0.00     0.219 HD
ENDBRANCH   7  14
BRANCH   7  16
HETATM   16  N4  UNL     1       1.286 -16.538   5.076  1.00  0.00    -0.285 N 
ATOM     17  H4  UNL     1       1.413 -15.742   5.702  1.00  0.00     0.188 HD
BRANCH  16  18
HETATM   18  N5  UNL     1       1.993 -17.761   5.316  1.00  0.00    -0.343 N 
ATOM     19  H52 UNL     1       1.466 -18.597   5.569  1.00  0.00     0.176 HD
ATOM     20  H51 UNL     1       3.009 -17.782   5.232  1.00  0.00     0.176 HD
ENDBRANCH  16  18
ENDBRANCH   7  16
BRANCH   1  21
HETATM   21  N1  UNL     1      -4.886 -14.950   7.416  1.00  0.00    -0.234 N 
ATOM     22  H12 UNL     1      -4.766 -14.847   8.423  1.00  0.00     0.174 HD
ATOM     23  H11 UNL     1      -5.804 -14.781   7.005  1.00  0.00     0.174 HD
ENDBRANCH   1  21
TORSDOF 4
ENDMDL
MODEL 2
REMARK VINA RESULT: -3.989780712      2.533      4.767
REMARK  4 active torsions:
REMARK  status: ('A' for Active; 'I' for Inactive)
REMARK    1  A    between atoms: N1_1  and  C1_4 
REMARK    2  A    between atoms: C4_10  and  O1_11 
REMARK    3  A    between atoms: C4_10  and  N4_13 
REMARK    4  A    between atoms: N4_13  and  N5_15 
ROOT
HETATM    1  C1  UNL     1      -0.416 -16.300   3.791  1.00  0.00     0.691 A 
HETATM    2  N2  UNL     1      -0.495 -16.362   5.130  1.00  0.00    -0.186 N 
ATOM      3  H2  UNL     1       0.345 -16.503   5.693  1.00  0.00     0.185 HD
HETATM    4  C2  UNL     1      -1.710 -16.236   5.726  1.00  0.00     0.224 A 
HETATM    5  N3  UNL     1      -2.839 -16.048   5.020  1.00  0.00    -0.137 N 
HETATM    6  C3  UNL     1      -4.131 -15.910   5.359  1.00  0.00     0.125 A 
HETATM    7  C4  UNL     1      -4.764 -15.837   6.649  1.00  0.00     0.184 C 
HETATM    8  C5  UNL     1      -4.872 -15.761   4.161  1.00  0.00     0.141 A 
HETATM    9  N6  UNL     1      -3.984 -15.814   3.172  1.00  0.00    -0.198 N 
ATOM     10  H6  UNL     1      -4.213 -15.734   2.181  1.00  0.00     0.183 HD
HETATM   11  C6  UNL     1      -2.745 -15.988   3.660  1.00  0.00     0.704 A 
HETATM   12  N7  UNL     1      -1.537 -16.114   3.079  1.00  0.00    -0.022 N 
ATOM     13  H7  UNL     1      -1.473 -16.066   2.062  1.00  0.00     0.203 HD
ENDROOT
BRANCH   7  14
HETATM   14  O1  UNL     1      -6.029 -16.144   6.717  1.00  0.00    -0.343 OA
ATOM     15  H1  UNL     1      -6.612 -15.518   7.131  1.00  0.00     0.219 HD
ENDBRANCH   7  14
BRANCH   7  16
HETATM   16  N4  UNL     1      -4.158 -15.458   7.857  1.00  0.00    -0.285 N 
ATOM     17  H4  UNL     1      -3.825 -16.169   8.508  1.00  0.00     0.188 HD
BRANCH  16  18
HETATM   18  N5  UNL     1      -4.009 -14.069   8.172  1.00  0.00    -0.343 N 
ATOM     19  H52 UNL     1      -4.788 -13.572   8.605  1.00  0.00     0.176 HD
ATOM     20  H51 UNL     1      -3.132 -13.594   7.962  1.00  0.00     0.176 HD
ENDBRANCH  16  18
ENDBRANCH   7  16
BRANCH   1  21
HETATM   21  N1  UNL     1       0.749 -16.423   3.266  1.00  0.00    -0.234 N 
ATOM     22  H12 UNL     1       1.600 -16.047   3.683  1.00  0.00     0.174 HD
ATOM     23  H11 UNL     1       0.810 -16.928   2.382  1.00  0.00     0.174 HD
ENDBRANCH   1  21
TORSDOF 4
ENDMDL
MODEL 3
REMARK VINA RESULT: -3.900079514      2.336      4.225
REMARK  4 active torsions:
REMARK  status: ('A' for Active; 'I' for Inactive)
REMARK    1  A    between atoms: N1_1  and  C1_4 
REMARK    2  A    between atoms: C4_10  and  O1_11 
REMARK    3  A    between atoms: C4_10  and  N4_13 
REMARK    4  A    between atoms: N4_13  and  N5_15 
ROOT
HETATM    1  C1  UNL     1      -5.284 -16.738   2.185  1.00  0.00     0.691 A 
HETATM    2  N2  UNL     1      -5.726 -16.271   3.365  1.00  0.00    -0.186 N 
ATOM      3  H2  UNL     1      -6.726 -16.218   3.560  1.00  0.00     0.185 HD
HETATM    4  C2  UNL     1      -4.821 -15.870   4.296  1.00  0.00     0.224 A 
HETATM    5  N3  UNL     1      -3.495 -15.925   4.080  1.00  0.00    -0.137 N 
HETATM    6  C3  UNL     1      -2.421 -15.587   4.812  1.00  0.00     0.125 A 
HETATM    7  C4  UNL     1      -2.317 -15.101   6.162  1.00  0.00     0.184 C 
HETATM    8  C5  UNL     1      -1.270 -15.859   4.032  1.00  0.00     0.141 A 
HETATM    9  N6  UNL     1      -1.717 -16.348   2.879  1.00  0.00    -0.198 N 
ATOM     10  H6  UNL     1      -1.123 -16.643   2.104  1.00  0.00     0.183 HD
HETATM   11  C6  UNL     1      -3.059 -16.400   2.877  1.00  0.00     0.704 A 
HETATM   12  N7  UNL     1      -3.963 -16.795   1.960  1.00  0.00    -0.022 N 
ATOM     13  H7  UNL     1      -3.631 -17.151   1.064  1.00  0.00     0.203 HD
ENDROOT
BRANCH   7  14
HETATM   14  O1  UNL     1      -1.239 -14.441   6.483  1.00  0.00    -0.343 OA
ATOM     15  H1  UNL     1      -0.499 -14.493   5.889  1.00  0.00     0.219 HD
ENDBRANCH   7  14
BRANCH   7  16
HETATM   16  N4  UNL     1      -3.262 -15.270   7.186  1.00  0.00    -0.285 N 
ATOM     17  H4  UNL     1      -3.425 -16.195   7.585  1.00  0.00     0.188 HD
BRANCH  16  18
HETATM   18  N5  UNL     1      -3.995 -14.139   7.670  1.00  0.00    -0.343 N 
ATOM     19  H52 UNL     1      -4.112 -13.327   7.063  1.00  0.00     0.176 HD
ATOM     20  H51 UNL     1      -4.390 -14.156   8.610  1.00  0.00     0.176 HD
ENDBRANCH  16  18
ENDBRANCH   7  16
BRANCH   1  21
HETATM   21  N1  UNL     1      -6.168 -17.108   1.333  1.00  0.00    -0.234 N 
ATOM     22  H12 UNL     1      -6.116 -16.899   0.336  1.00  0.00     0.174 HD
ATOM     23  H11 UNL     1      -6.962 -17.641   1.687  1.00  0.00     0.174 HD
ENDBRANCH   1  21
TORSDOF 4
ENDMDL
MODEL 4
REMARK VINA RESULT: -3.837143938      2.599      5.109
REMARK  4 active torsions:
REMARK  status: ('A' for Active; 'I' for Inactive)
REMARK    1  A    between atoms: N1_1  and  C1_4 
REMARK    2  A    between atoms: C4_10  and  O1_11 
REMARK    3  A    between atoms: C4_10  and  N4_13 
REMARK    4  A    between atoms: N4_13  and  N5_15 
ROOT
HETATM    1  C1  UNL     1       1.241 -17.867   4.140  1.00  0.00     0.691 A 
HETATM    2  N2  UNL     1       0.841 -17.240   3.022  1.00  0.00    -0.186 N 
ATOM      3  H2  UNL     1       1.488 -17.100   2.246  1.00  0.00     0.185 HD
HETATM    4  C2  UNL     1      -0.440 -16.793   2.940  1.00  0.00     0.224 A 
HETATM    5  N3  UNL     1      -1.324 -16.958   3.939  1.00  0.00    -0.137 N 
HETATM    6  C3  UNL     1      -2.609 -16.607   4.107  1.00  0.00     0.125 A 
HETATM    7  C4  UNL     1      -3.539 -15.977   3.208  1.00  0.00     0.184 C 
HETATM    8  C5  UNL     1      -3.005 -17.042   5.396  1.00  0.00     0.141 A 
HETATM    9  N6  UNL     1      -1.938 -17.631   5.927  1.00  0.00    -0.198 N 
ATOM     10  H6  UNL     1      -1.908 -18.051   6.856  1.00  0.00     0.183 HD
HETATM   11  C6  UNL     1      -0.904 -17.596   5.070  1.00  0.00     0.704 A 
HETATM   12  N7  UNL     1       0.366 -18.035   5.143  1.00  0.00    -0.022 N 
ATOM     13  H7  UNL     1       0.674 -18.514   5.990  1.00  0.00     0.203 HD
ENDROOT
BRANCH   7  14
HETATM   14  O1  UNL     1      -4.557 -15.355   3.733  1.00  0.00    -0.343 OA
ATOM     15  H1  UNL     1      -5.359 -15.850   3.855  1.00  0.00     0.219 HD
ENDBRANCH   7  14
BRANCH   7  16
HETATM   16  N4  UNL     1      -3.468 -15.965   1.806  1.00  0.00    -0.285 N 
ATOM     17  H4  UNL     1      -2.562 -15.951   1.339  1.00  0.00     0.188 HD
BRANCH  16  18
HETATM   18  N5  UNL     1      -4.675 -15.971   1.034  1.00  0.00    -0.343 N 
ATOM     19  H52 UNL     1      -5.564 -15.791   1.501  1.00  0.00     0.176 HD
ATOM     20  H51 UNL     1      -4.633 -16.156   0.032  1.00  0.00     0.176 HD
ENDBRANCH  16  18
ENDBRANCH   7  16
BRANCH   1  21
HETATM   21  N1  UNL     1       2.457 -18.275   4.180  1.00  0.00    -0.234 N 
ATOM     22  H12 UNL     1       2.845 -18.825   4.947  1.00  0.00     0.174 HD
ATOM     23  H11 UNL     1       3.057 -18.030   3.393  1.00  0.00     0.174 HD
ENDBRANCH   1  21
TORSDOF 4
ENDMDL
MODEL 5
REMARK VINA RESULT: -3.767617913      1.849      2.043
REMARK  4 active torsions:
REMARK  status: ('A' for Active; 'I' for Inactive)
REMARK    1  A    between atoms: N1_1  and  C1_4 
REMARK    2  A    between atoms: C4_10  and  O1_11 
REMARK    3  A    between atoms: C4_10  and  N4_13 
REMARK    4  A    between atoms: N4_13  and  N5_15 
ROOT
HETATM    1  C1  UNL     1      -3.491 -15.001   7.420  1.00  0.00     0.691 A 
HETATM    2  N2  UNL     1      -2.533 -14.538   6.600  1.00  0.00    -0.186 N 
ATOM      3  H2  UNL     1      -2.315 -13.542   6.568  1.00  0.00     0.185 HD
HETATM    4  C2  UNL     1      -1.858 -15.417   5.813  1.00  0.00     0.224 A 
HETATM    5  N3  UNL     1      -2.113 -16.737   5.827  1.00  0.00    -0.137 N 
HETATM    6  C3  UNL     1      -1.610 -17.785   5.156  1.00  0.00     0.125 A 
HETATM    7  C4  UNL     1      -0.529 -17.868   4.210  1.00  0.00     0.184 C 
HETATM    8  C5  UNL     1      -2.304 -18.942   5.590  1.00  0.00     0.141 A 
HETATM    9  N6  UNL     1      -3.180 -18.524   6.499  1.00  0.00    -0.198 N 
ATOM     10  H6  UNL     1      -3.831 -19.129   7.000  1.00  0.00     0.183 HD
HETATM   11  C6  UNL     1      -3.090 -17.194   6.664  1.00  0.00     0.704 A 
HETATM   12  N7  UNL     1      -3.753 -16.316   7.440  1.00  0.00    -0.022 N 
ATOM     13  H7  UNL     1      -4.481 -16.664   8.065  1.00  0.00     0.203 HD
ENDROOT
BRANCH   7  14
HETATM   14  O1  UNL     1      -0.525 -18.880   3.388  1.00  0.00    -0.343 OA
ATOM     15  H1  UNL     1      -0.200 -18.729   2.508  1.00  0.00     0.219 HD
ENDBRANCH   7  14
BRANCH   7  16
HETATM   16  N4  UNL     1       0.538 -16.966   4.080  1.00  0.00    -0.285 N 
ATOM     17  H4  UNL     1       0.629 -16.399   3.237  1.00  0.00     0.188 HD
BRANCH  16  18
HETATM   18  N5  UNL     1       1.499 -16.845   5.135  1.00  0.00    -0.343 N 
ATOM     19  H52 UNL     1       1.252 -17.169   6.071  1.00  0.00     0.176 HD
ATOM     20  H51 UNL     1       2.414 -16.438   4.942  1.00  0.00     0.176 HD
ENDBRANCH  16  18
ENDBRANCH   7  16
BRANCH   1  21
HETATM   21  N1  UNL     1      -4.106 -14.141   8.147  1.00  0.00    -0.234 N 
ATOM     22  H12 UNL     1      -3.648 -13.346   8.593  1.00  0.00     0.174 HD
ATOM     23  H11 UNL     1      -5.109 -14.272   8.277  1.00  0.00     0.174 HD
ENDBRANCH   1  21
TORSDOF 4
ENDMDL
