MODEL 1
REMARK VINA RESULT: -4.452060463      0.000      0.000
REMARK  4 active torsions:
REMARK  status: ('A' for Active; 'I' for Inactive)
REMARK    1  A    between atoms: N1_1  and  C1_4 
REMARK    2  A    between atoms: N4_12  and  C4_13 
REMARK    3  A    between atoms: C5_14  and  C6_15 
REMARK       I    between atoms: C6_15  and  N5_17 
REMARK    4  A    between atoms: N5_17  and  N6_19 
ROOT
HETATM    1  C1  UNL     1       0.906 -17.215   4.048  1.00  0.00     0.687 A 
HETATM    2  N2  UNL     1       1.513 -18.055   3.175  1.00  0.00    -0.187 N 
ATOM      3  H2  UNL     1       2.438 -18.417   3.409  1.00  0.00     0.185 HD
HETATM    4  C2  UNL     1       0.952 -18.431   2.019  1.00  0.00     0.202 A 
HETATM    5  N3  UNL     1      -0.262 -17.946   1.731  1.00  0.00    -0.303 N 
ATOM      6  H3  UNL     1      -0.726 -18.206   0.861  1.00  0.00     0.171 HD
HETATM    7  C3  UNL     1      -0.859 -17.120   2.591  1.00  0.00     0.345 A 
HETATM    8  O1  UNL     1      -2.009 -16.687   2.270  1.00  0.00    -0.246 OA
HETATM    9  N4  UNL     1      -0.289 -16.731   3.777  1.00  0.00    -0.107 N 
ENDROOT
BRANCH   9  10
HETATM   10  C4  UNL     1      -1.034 -15.845   4.597  1.00  0.00     0.125 C 
HETATM   11  C5  UNL     1      -1.681 -16.067   5.686  1.00  0.00     0.094 C 
BRANCH  11  12
HETATM   12  C6  UNL     1      -2.386 -14.981   6.365  1.00  0.00     0.260 C 
HETATM   13  O2  UNL     1      -2.136 -13.808   6.023  1.00  0.00    -0.267 OA
HETATM   14  N5  UNL     1      -3.339 -15.178   7.390  1.00  0.00    -0.273 N 
ATOM     15  H5  UNL     1      -3.539 -16.140   7.666  1.00  0.00     0.189 HD
BRANCH  14  16
HETATM   16  N6  UNL     1      -4.016 -14.182   8.045  1.00  0.00    -0.342 N 
ATOM     17  H62 UNL     1      -3.623 -13.244   7.968  1.00  0.00     0.176 HD
ATOM     18  H61 UNL     1      -4.867 -14.309   8.592  1.00  0.00     0.176 HD
ENDBRANCH  14  16
ENDBRANCH  11  12
ENDBRANCH   9  10
BRANCH   1  19
HETATM   19  N1  UNL     1       1.534 -16.930   5.111  1.00  0.00    -0.234 N 
ATOM     20  H12 UNL     1       2.127 -16.105   5.194  1.00  0.00     0.174 HD
ATOM     21  H11 UNL     1       1.427 -17.566   5.901  1.00  0.00     0.174 HD
ENDBRANCH   1  19
TORSDOF 4
ENDMDL
MODEL 2
REMARK VINA RESULT: -4.364953539      1.669      5.686
REMARK  4 active torsions:
REMARK  status: ('A' for Active; 'I' for Inactive)
REMARK    1  A    between atoms: N1_1  and  C1_4 
REMARK    2  A    between atoms: N4_12  and  C4_13 
REMARK    3  A    between atoms: C5_14  and  C6_15 
REMARK       I    between atoms: C6_15  and  N5_17 
REMARK    4  A    between atoms: N5_17  and  N6_19 
ROOT
HETATM    1  C1  UNL     1      -3.116 -17.136   6.690  1.00  0.00     0.687 A 
HETATM    2  N2  UNL     1      -3.988 -16.775   7.663  1.00  0.00    -0.187 N 
ATOM      3  H2  UNL     1      -4.534 -17.503   8.123  1.00  0.00     0.185 HD
HETATM    4  C2  UNL     1      -4.163 -15.504   8.047  1.00  0.00     0.202 A 
HETATM    5  N3  UNL     1      -3.435 -14.564   7.431  1.00  0.00    -0.303 N 
ATOM      6  H3  UNL     1      -3.537 -13.583   7.692  1.00  0.00     0.171 HD
HETATM    7  C3  UNL     1      -2.578 -14.920   6.474  1.00  0.00     0.345 A 
HETATM    8  O1  UNL     1      -1.913 -13.989   5.921  1.00  0.00    -0.246 OA
HETATM    9  N4  UNL     1      -2.394 -16.220   6.076  1.00  0.00    -0.107 N 
ENDROOT
BRANCH   9  10
HETATM   10  C4  UNL     1      -1.450 -16.458   5.045  1.00  0.00     0.125 C 
HETATM   11  C5  UNL     1      -0.189 -16.700   5.111  1.00  0.00     0.094 C 
BRANCH  11  12
HETATM   12  C6  UNL     1       0.593 -16.914   3.895  1.00  0.00     0.260 C 
HETATM   13  O2  UNL     1       0.321 -16.227   2.889  1.00  0.00    -0.267 OA
HETATM   14  N5  UNL     1       1.641 -17.855   3.785  1.00  0.00    -0.273 N 
ATOM     15  H5  UNL     1       1.858 -18.413   4.610  1.00  0.00     0.189 HD
BRANCH  14  16
HETATM   16  N6  UNL     1       2.391 -18.077   2.659  1.00  0.00    -0.342 N 
ATOM     17  H62 UNL     1       2.011 -17.714   1.784  1.00  0.00     0.176 HD
ATOM     18  H61 UNL     1       3.284 -18.570   2.633  1.00  0.00     0.176 HD
ENDBRANCH  14  16
ENDBRANCH  11  12
ENDBRANCH   9  10
BRANCH   1  19
HETATM   19  N1  UNL     1      -3.036 -18.369   6.412  1.00  0.00    -0.234 N 
ATOM     20  H12 UNL     1      -3.823 -19.008   6.513  1.00  0.00     0.174 HD
ATOM     21  H11 UNL     1      -2.136 -18.713   6.074  1.00  0.00     0.174 HD
ENDBRANCH   1  19
TORSDOF 4
ENDMDL
MODEL 3
REMARK VINA RESULT: -4.299336383      1.785      5.959
REMARK  4 active torsions:
REMARK  status: ('A' for Active; 'I' for Inactive)
REMARK    1  A    between atoms: N1_1  and  C1_4 
REMARK    2  A    between atoms: N4_12  and  C4_13 
REMARK    3  A    between atoms: C5_14  and  C6_15 
REMARK       I    between atoms: C6_15  and  N5_17 
REMARK    4  A    between atoms: N5_17  and  N6_19 
ROOT
HETATM    1  C1  UNL     1      -3.748 -17.008   7.451  1.00  0.00     0.687 A 
HETATM    2  N2  UNL     1      -4.464 -16.728   8.566  1.00  0.00    -0.187 N 
ATOM      3  H2  UNL     1      -4.862 -17.501   9.098  1.00  0.00     0.185 HD
HETATM    4  C2  UNL     1      -4.672 -15.478   9.001  1.00  0.00     0.202 A 
HETATM    5  N3  UNL     1      -4.141 -14.477   8.289  1.00  0.00    -0.303 N 
ATOM      6  H3  UNL     1      -4.274 -13.509   8.584  1.00  0.00     0.171 HD
HETATM    7  C3  UNL     1      -3.436 -14.754   7.191  1.00  0.00     0.345 A 
HETATM    8  O1  UNL     1      -2.955 -13.768   6.552  1.00  0.00    -0.246 OA
HETATM    9  N4  UNL     1      -3.220 -16.032   6.741  1.00  0.00    -0.107 N 
ENDROOT
BRANCH   9  10
HETATM   10  C4  UNL     1      -2.453 -16.184   5.558  1.00  0.00     0.125 C 
HETATM   11  C5  UNL     1      -1.180 -16.253   5.395  1.00  0.00     0.094 C 
BRANCH  11  12
HETATM   12  C6  UNL     1      -0.608 -16.411   4.059  1.00  0.00     0.260 C 
HETATM   13  O2  UNL     1      -1.386 -16.462   3.086  1.00  0.00    -0.267 OA
HETATM   14  N5  UNL     1       0.778 -16.509   3.800  1.00  0.00    -0.273 N 
ATOM     15  H5  UNL     1       1.409 -16.467   4.600  1.00  0.00     0.189 HD
BRANCH  14  16
HETATM   16  N6  UNL     1       1.343 -16.656   2.560  1.00  0.00    -0.342 N 
ATOM     17  H62 UNL     1       2.171 -16.090   2.371  1.00  0.00     0.176 HD
ATOM     18  H61 UNL     1       1.004 -17.280   1.827  1.00  0.00     0.176 HD
ENDBRANCH  14  16
ENDBRANCH  11  12
ENDBRANCH   9  10
BRANCH   1  19
HETATM   19  N1  UNL     1      -3.619 -18.229   7.137  1.00  0.00    -0.234 N 
ATOM     20  H12 UNL     1      -3.651 -18.980   7.825  1.00  0.00     0.174 HD
ATOM     21  H11 UNL     1      -3.476 -18.444   6.150  1.00  0.00     0.174 HD
ENDBRANCH   1  19
TORSDOF 4
ENDMDL
MODEL 4
REMARK VINA RESULT: -4.170503172      1.138      1.140
REMARK  4 active torsions:
REMARK  status: ('A' for Active; 'I' for Inactive)
REMARK    1  A    between atoms: N1_1  and  C1_4 
REMARK    2  A    between atoms: N4_12  and  C4_13 
REMARK    3  A    between atoms: C5_14  and  C6_15 
REMARK       I    between atoms: C6_15  and  N5_17 
REMARK    4  A    between atoms: N5_17  and  N6_19 
ROOT
HETATM    1  C1  UNL     1       0.619 -16.734   4.009  1.00  0.00     0.687 A 
HETATM    2  N2  UNL     1       1.346 -16.951   2.886  1.00  0.00    -0.187 N 
ATOM      3  H2  UNL     1       2.361 -17.006   2.965  1.00  0.00     0.185 HD
HETATM    4  C2  UNL     1       0.789 -17.097   1.677  1.00  0.00     0.202 A 
HETATM    5  N3  UNL     1      -0.545 -17.023   1.595  1.00  0.00    -0.303 N 
ATOM      6  H3  UNL     1      -1.011 -17.128   0.694  1.00  0.00     0.171 HD
HETATM    7  C3  UNL     1      -1.260 -16.809   2.701  1.00  0.00     0.345 A 
HETATM    8  O1  UNL     1      -2.521 -16.746   2.568  1.00  0.00    -0.246 OA
HETATM    9  N4  UNL     1      -0.695 -16.658   3.942  1.00  0.00    -0.107 N 
ENDROOT
BRANCH   9  10
HETATM   10  C4  UNL     1      -1.572 -16.435   5.033  1.00  0.00     0.125 C 
HETATM   11  C5  UNL     1      -1.983 -15.335   5.558  1.00  0.00     0.094 C 
BRANCH  11  12
HETATM   12  C6  UNL     1      -2.900 -15.351   6.697  1.00  0.00     0.260 C 
HETATM   13  O2  UNL     1      -3.164 -16.448   7.227  1.00  0.00    -0.267 OA
HETATM   14  N5  UNL     1      -3.509 -14.196   7.236  1.00  0.00    -0.273 N 
ATOM     15  H5  UNL     1      -3.289 -13.302   6.798  1.00  0.00     0.189 HD
BRANCH  14  16
HETATM   16  N6  UNL     1      -4.371 -14.179   8.302  1.00  0.00    -0.342 N 
ATOM     17  H62 UNL     1      -3.948 -14.067   9.223  1.00  0.00     0.176 HD
ATOM     18  H61 UNL     1      -5.386 -14.268   8.241  1.00  0.00     0.176 HD
ENDBRANCH  14  16
ENDBRANCH  11  12
ENDBRANCH   9  10
BRANCH   1  19
HETATM   19  N1  UNL     1       1.256 -16.611   5.097  1.00  0.00    -0.234 N 
ATOM     20  H12 UNL     1       0.793 -16.433   5.988  1.00  0.00     0.174 HD
ATOM     21  H11 UNL     1       2.272 -16.698   5.056  1.00  0.00     0.174 HD
ENDBRANCH   1  19
TORSDOF 4
ENDMDL
MODEL 5
REMARK VINA RESULT: -4.155126985      1.432      2.202
REMARK  4 active torsions:
REMARK  status: ('A' for Active; 'I' for Inactive)
REMARK    1  A    between atoms: N1_1  and  C1_4 
REMARK    2  A    between atoms: N4_12  and  C4_13 
REMARK    3  A    between atoms: C5_14  and  C6_15 
REMARK       I    between atoms: C6_15  and  N5_17 
REMARK    4  A    between atoms: N5_17  and  N6_19 
ROOT
HETATM    1  C1  UNL     1      -1.342 -16.844   2.633  1.00  0.00     0.687 A 
HETATM    2  N2  UNL     1      -0.543 -17.534   1.785  1.00  0.00    -0.187 N 
ATOM      3  H2  UNL     1      -0.939 -17.875   0.909  1.00  0.00     0.185 HD
HETATM    4  C2  UNL     1       0.746 -17.788   2.045  1.00  0.00     0.202 A 
HETATM    5  N3  UNL     1       1.247 -17.332   3.200  1.00  0.00    -0.303 N 
ATOM      6  H3  UNL     1       2.224 -17.502   3.439  1.00  0.00     0.171 HD
HETATM    7  C3  UNL     1       0.460 -16.652   4.034  1.00  0.00     0.345 A 
HETATM    8  O1  UNL     1       0.984 -16.242   5.115  1.00  0.00    -0.246 OA
HETATM    9  N4  UNL     1      -0.862 -16.389   3.772  1.00  0.00    -0.107 N 
ENDROOT
BRANCH   9  10
HETATM   10  C4  UNL     1      -1.584 -15.657   4.748  1.00  0.00     0.125 C 
HETATM   11  C5  UNL     1      -2.185 -16.057   5.812  1.00  0.00     0.094 C 
BRANCH  11  12
HETATM   12  C6  UNL     1      -2.877 -15.105   6.679  1.00  0.00     0.260 C 
HETATM   13  O2  UNL     1      -2.742 -13.887   6.446  1.00  0.00    -0.267 OA
HETATM   14  N5  UNL     1      -3.692 -15.479   7.771  1.00  0.00    -0.273 N 
ATOM     15  H5  UNL     1      -3.798 -16.476   7.957  1.00  0.00     0.189 HD
BRANCH  14  16
HETATM   16  N6  UNL     1      -4.352 -14.610   8.601  1.00  0.00    -0.342 N 
ATOM     17  H62 UNL     1      -5.362 -14.539   8.469  1.00  0.00     0.176 HD
ATOM     18  H61 UNL     1      -3.916 -14.041   9.326  1.00  0.00     0.176 HD
ENDBRANCH  14  16
ENDBRANCH  11  12
ENDBRANCH   9  10
BRANCH   1  19
HETATM   19  N1  UNL     1      -2.546 -16.665   2.280  1.00  0.00    -0.234 N 
ATOM     20  H12 UNL     1      -2.819 -15.957   1.598  1.00  0.00     0.174 HD
ATOM     21  H11 UNL     1      -3.252 -17.264   2.708  1.00  0.00     0.174 HD
ENDBRANCH   1  19
TORSDOF 4
ENDMDL
