MODEL 1
REMARK VINA RESULT: -8.055521725      0.000      0.000
REMARK  10 active torsions:
REMARK  status: ('A' for Active; 'I' for Inactive)
REMARK    1  A    between atoms: C2_2  and  N1_3 
REMARK    2  A    between atoms: C3_4  and  N2_5 
REMARK    3  A    between atoms: N2_5  and  C4_7 
REMARK    4  A    between atoms: C4_7  and  O1_9 
REMARK    5  A    between atoms: C6_13  and  C7_14 
REMARK    6  A    between atoms: C7_14  and  N4_15 
REMARK    7  A    between atoms: C7_14  and  N8_28 
REMARK    8  A    between atoms: N4_15  and  N5_17 
REMARK    9  A    between atoms: C8_19  and  C9_20 
REMARK   10  A    between atoms: C13_35  and  O4_36 
ROOT
HETATM    1  C7  UNL     1     -15.712  58.465   9.340  1.00  0.00     0.276 C 
ENDROOT
BRANCH   1   2
HETATM    2  C6  UNL     1     -14.856  59.592   9.667  1.00  0.00     0.083 A 
HETATM    3  N3  UNL     1     -15.327  60.665  10.373  1.00  0.00    -0.191 N 
HETATM    4  C3  UNL     1     -14.565  61.711  10.698  1.00  0.00     0.685 A 
ATOM      5  H3  UNL     1     -16.304  60.665  10.665  1.00  0.00     0.184 HD
HETATM    6  N1  UNL     1     -13.284  61.770  10.347  1.00  0.00    -0.147 N 
HETATM    7  C16 UNL     1     -12.741  60.770   9.657  1.00  0.00     0.269 A 
HETATM    8  C14 UNL     1     -13.536  59.667   9.312  1.00  0.00     0.034 A 
HETATM    9  O5  UNL     1     -11.529  60.776   9.298  1.00  0.00    -0.267 OA
HETATM   10  C15 UNL     1     -12.920  58.561   8.531  1.00  0.00     0.056 C 
BRANCH   4  11
HETATM   11  N2  UNL     1     -15.089  62.674  11.362  1.00  0.00    -0.200 N 
ATOM     12  H2  UNL     1     -15.158  63.573  10.884  1.00  0.00     0.180 HD
BRANCH  11  13
HETATM   13  C4  UNL     1     -15.589  62.622  12.700  1.00  0.00     0.230 C 
HETATM   14  C5  UNL     1     -14.811  63.503  13.653  1.00  0.00     0.063 C 
BRANCH  13  15
HETATM   15  O1  UNL     1     -16.895  63.163  12.664  1.00  0.00    -0.377 OA
ATOM     16  H1  UNL     1     -17.494  62.426  12.694  1.00  0.00     0.212 HD
ENDBRANCH  13  15
ENDBRANCH  11  13
ENDBRANCH   4  11
BRANCH   6  17
HETATM   17  C2  UNL     1     -12.488  62.922  10.718  1.00  0.00     0.146 C 
HETATM   18  C1  UNL     1     -11.634  62.672  11.920  1.00  0.00     0.027 C 
ENDBRANCH   6  17
ENDBRANCH   1   2
BRANCH   1  19
HETATM   19  N4  UNL     1     -16.487  57.954  10.477  1.00  0.00    -0.306 N 
ATOM     20  H4  UNL     1     -17.221  58.543  10.869  1.00  0.00     0.183 HD
BRANCH  19  21
HETATM   21  N5  UNL     1     -16.271  56.728  11.037  1.00  0.00    -0.312 N 
HETATM   22  C8  UNL     1     -15.265  56.254  11.635  1.00  0.00     0.144 C 
ATOM     23  H5  UNL     1     -17.057  56.083  10.957  1.00  0.00     0.185 HD
BRANCH  22  24
HETATM   24  C9  UNL     1     -13.999  56.897  11.912  1.00  0.00     0.143 A 
HETATM   25  N6  UNL     1     -12.769  56.450  11.623  1.00  0.00    -0.235 N 
HETATM   26  O2  UNL     1     -11.866  57.316  12.032  1.00  0.00    -0.153 OA
ATOM     27  H6  UNL     1     -12.563  55.568  11.155  1.00  0.00     0.197 HD
HETATM   28  N7  UNL     1     -12.456  58.335  12.591  1.00  0.00    -0.204 N 
HETATM   29  C10 UNL     1     -13.787  58.107  12.532  1.00  0.00     0.296 A 
ATOM     30  H7  UNL     1     -11.998  59.153  12.995  1.00  0.00     0.200 HD
HETATM   31  O3  UNL     1     -14.706  58.848  12.961  1.00  0.00    -0.264 OA
ENDBRANCH  22  24
ENDBRANCH  19  21
ENDBRANCH   1  19
BRANCH   1  32
HETATM   32  N8  UNL     1     -16.531  58.619   8.165  1.00  0.00    -0.224 N 
HETATM   33  N9  UNL     1     -17.190  59.730   7.882  1.00  0.00    -0.282 N 
HETATM   34  C11 UNL     1     -17.863  59.553   6.716  1.00  0.00     0.095 A 
ATOM     35  H9  UNL     1     -17.192  60.580   8.445  1.00  0.00     0.188 HD
HETATM   36  C12 UNL     1     -18.713  60.606   6.099  1.00  0.00     0.091 C 
HETATM   37  N10 UNL     1     -17.610  58.322   6.289  1.00  0.00    -0.310 N 
HETATM   38  C13 UNL     1     -16.798  57.753   7.172  1.00  0.00     0.242 A 
ATOM     39  H10 UNL     1     -17.973  57.891   5.439  1.00  0.00     0.170 HD
BRANCH  38  40
HETATM   40  O4  UNL     1     -16.296  56.465   7.094  1.00  0.00    -0.331 OA
ATOM     41  H4  UNL     1     -15.389  56.250   6.911  1.00  0.00     0.221 HD
ENDBRANCH  38  40
ENDBRANCH   1  32
TORSDOF 10
ENDMDL
MODEL 2
REMARK VINA RESULT: -7.891733614      2.732      4.030
REMARK  10 active torsions:
REMARK  status: ('A' for Active; 'I' for Inactive)
REMARK    1  A    between atoms: C2_2  and  N1_3 
REMARK    2  A    between atoms: C3_4  and  N2_5 
REMARK    3  A    between atoms: N2_5  and  C4_7 
REMARK    4  A    between atoms: C4_7  and  O1_9 
REMARK    5  A    between atoms: C6_13  and  C7_14 
REMARK    6  A    between atoms: C7_14  and  N4_15 
REMARK    7  A    between atoms: C7_14  and  N8_28 
REMARK    8  A    between atoms: N4_15  and  N5_17 
REMARK    9  A    between atoms: C8_19  and  C9_20 
REMARK   10  A    between atoms: C13_35  and  O4_36 
ROOT
HETATM    1  C7  UNL     1     -12.314  58.898  11.047  1.00  0.00     0.276 C 
ENDROOT
BRANCH   1   2
HETATM    2  C6  UNL     1     -12.244  60.268  11.521  1.00  0.00     0.083 A 
HETATM    3  N3  UNL     1     -13.158  60.763  12.412  1.00  0.00    -0.191 N 
HETATM    4  C3  UNL     1     -13.117  62.014  12.876  1.00  0.00     0.685 A 
ATOM      5  H3  UNL     1     -13.904  60.148  12.736  1.00  0.00     0.184 HD
HETATM    6  N1  UNL     1     -12.169  62.863  12.490  1.00  0.00    -0.147 N 
HETATM    7  C16 UNL     1     -11.239  62.468  11.625  1.00  0.00     0.269 A 
HETATM    8  C14 UNL     1     -11.276  61.154  11.134  1.00  0.00     0.034 A 
HETATM    9  O5  UNL     1     -10.317  63.235  11.227  1.00  0.00    -0.267 OA
HETATM   10  C15 UNL     1     -10.236  60.728  10.160  1.00  0.00     0.056 C 
BRANCH   4  11
HETATM   11  N2  UNL     1     -14.014  62.394  13.708  1.00  0.00    -0.200 N 
ATOM     12  H2  UNL     1     -14.730  63.026  13.350  1.00  0.00     0.180 HD
BRANCH  11  13
HETATM   13  C4  UNL     1     -14.119  62.024  15.084  1.00  0.00     0.230 C 
HETATM   14  C5  UNL     1     -15.436  62.435  15.706  1.00  0.00     0.063 C 
BRANCH  13  15
HETATM   15  O1  UNL     1     -14.106  60.610  15.124  1.00  0.00    -0.377 OA
ATOM     16  H1  UNL     1     -13.856  60.366  16.007  1.00  0.00     0.212 HD
ENDBRANCH  13  15
ENDBRANCH  11  13
ENDBRANCH   4  11
BRANCH   6  17
HETATM   17  C2  UNL     1     -12.156  64.213  13.016  1.00  0.00     0.146 C 
HETATM   18  C1  UNL     1     -12.887  65.182  12.142  1.00  0.00     0.027 C 
ENDBRANCH   6  17
ENDBRANCH   1   2
BRANCH   1  19
HETATM   19  N4  UNL     1     -12.016  57.893  12.075  1.00  0.00    -0.306 N 
ATOM     20  H4  UNL     1     -12.787  57.344  12.456  1.00  0.00     0.183 HD
BRANCH  19  21
HETATM   21  N5  UNL     1     -10.756  57.659  12.546  1.00  0.00    -0.312 N 
HETATM   22  C8  UNL     1     -10.174  58.060  13.592  1.00  0.00     0.144 C 
ATOM     23  H5  UNL     1     -10.188  57.057  11.951  1.00  0.00     0.185 HD
BRANCH  22  24
HETATM   24  C9  UNL     1     -10.691  58.918  14.636  1.00  0.00     0.143 A 
HETATM   25  N6  UNL     1     -11.661  58.646  15.519  1.00  0.00    -0.235 N 
HETATM   26  O2  UNL     1     -11.851  59.678  16.314  1.00  0.00    -0.153 OA
ATOM     27  H6  UNL     1     -12.178  57.768  15.567  1.00  0.00     0.197 HD
HETATM   28  N7  UNL     1     -11.033  60.639  15.990  1.00  0.00    -0.204 N 
HETATM   29  C10 UNL     1     -10.294  60.198  14.946  1.00  0.00     0.296 A 
ATOM     30  H7  UNL     1     -10.963  61.552  16.439  1.00  0.00     0.200 HD
HETATM   31  O3  UNL     1      -9.390  60.822  14.337  1.00  0.00    -0.264 OA
ENDBRANCH  22  24
ENDBRANCH  19  21
ENDBRANCH   1  19
BRANCH   1  32
HETATM   32  N8  UNL     1     -13.493  58.554  10.294  1.00  0.00    -0.224 N 
HETATM   33  N9  UNL     1     -14.664  58.305  10.855  1.00  0.00    -0.282 N 
HETATM   34  C11 UNL     1     -15.563  58.012   9.880  1.00  0.00     0.095 A 
ATOM     35  H9  UNL     1     -14.860  58.329  11.856  1.00  0.00     0.188 HD
HETATM   36  C12 UNL     1     -16.984  57.679  10.157  1.00  0.00     0.091 C 
HETATM   37  N10 UNL     1     -14.928  58.084   8.716  1.00  0.00    -0.310 N 
HETATM   38  C13 UNL     1     -13.668  58.414   8.968  1.00  0.00     0.242 A 
ATOM     39  H10 UNL     1     -15.335  57.916   7.796  1.00  0.00     0.170 HD
BRANCH  38  40
HETATM   40  O4  UNL     1     -12.675  58.591   8.020  1.00  0.00    -0.331 OA
ATOM     41  H4  UNL     1     -12.416  57.938   7.381  1.00  0.00     0.221 HD
ENDBRANCH  38  40
ENDBRANCH   1  32
TORSDOF 10
ENDMDL
MODEL 3
REMARK VINA RESULT: -7.821386609      2.681      4.047
REMARK  10 active torsions:
REMARK  status: ('A' for Active; 'I' for Inactive)
REMARK    1  A    between atoms: C2_2  and  N1_3 
REMARK    2  A    between atoms: C3_4  and  N2_5 
REMARK    3  A    between atoms: N2_5  and  C4_7 
REMARK    4  A    between atoms: C4_7  and  O1_9 
REMARK    5  A    between atoms: C6_13  and  C7_14 
REMARK    6  A    between atoms: C7_14  and  N4_15 
REMARK    7  A    between atoms: C7_14  and  N8_28 
REMARK    8  A    between atoms: N4_15  and  N5_17 
REMARK    9  A    between atoms: C8_19  and  C9_20 
REMARK   10  A    between atoms: C13_35  and  O4_36 
ROOT
HETATM    1  C7  UNL     1     -12.429  58.870  11.045  1.00  0.00     0.276 C 
ENDROOT
BRANCH   1   2
HETATM    2  C6  UNL     1     -12.344  60.248  11.497  1.00  0.00     0.083 A 
HETATM    3  N3  UNL     1     -13.225  60.754  12.413  1.00  0.00    -0.191 N 
HETATM    4  C3  UNL     1     -13.170  62.011  12.857  1.00  0.00     0.685 A 
ATOM      5  H3  UNL     1     -13.957  60.142  12.774  1.00  0.00     0.184 HD
HETATM    6  N1  UNL     1     -12.239  62.857  12.424  1.00  0.00    -0.147 N 
HETATM    7  C16 UNL     1     -11.341  62.450  11.531  1.00  0.00     0.269 A 
HETATM    8  C14 UNL     1     -11.393  61.130  11.060  1.00  0.00     0.034 A 
HETATM    9  O5  UNL     1     -10.436  63.213  11.087  1.00  0.00    -0.267 OA
HETATM   10  C15 UNL     1     -10.390  60.691  10.055  1.00  0.00     0.056 C 
BRANCH   4  11
HETATM   11  N2  UNL     1     -14.037  62.402  13.716  1.00  0.00    -0.200 N 
ATOM     12  H2  UNL     1     -14.740  63.063  13.386  1.00  0.00     0.180 HD
BRANCH  11  13
HETATM   13  C4  UNL     1     -14.122  62.009  15.087  1.00  0.00     0.230 C 
HETATM   14  C5  UNL     1     -15.434  62.403  15.732  1.00  0.00     0.063 C 
BRANCH  13  15
HETATM   15  O1  UNL     1     -14.101  60.594  15.103  1.00  0.00    -0.377 OA
ATOM     16  H1  UNL     1     -14.796  60.320  15.689  1.00  0.00     0.212 HD
ENDBRANCH  13  15
ENDBRANCH  11  13
ENDBRANCH   4  11
BRANCH   6  17
HETATM   17  C2  UNL     1     -12.209  64.214  12.929  1.00  0.00     0.146 C 
HETATM   18  C1  UNL     1     -12.953  65.173  12.055  1.00  0.00     0.027 C 
ENDBRANCH   6  17
ENDBRANCH   1   2
BRANCH   1  19
HETATM   19  N4  UNL     1     -11.965  57.888  12.032  1.00  0.00    -0.306 N 
ATOM     20  H4  UNL     1     -12.646  57.244  12.434  1.00  0.00     0.183 HD
BRANCH  19  21
HETATM   21  N5  UNL     1     -10.665  57.795  12.438  1.00  0.00    -0.312 N 
HETATM   22  C8  UNL     1     -10.083  58.239  13.467  1.00  0.00     0.144 C 
ATOM     23  H5  UNL     1     -10.059  57.279  11.800  1.00  0.00     0.185 HD
BRANCH  22  24
HETATM   24  C9  UNL     1     -10.645  59.004  14.557  1.00  0.00     0.143 A 
HETATM   25  N6  UNL     1     -11.573  58.616  15.442  1.00  0.00    -0.235 N 
HETATM   26  O2  UNL     1     -11.829  59.593  16.288  1.00  0.00    -0.153 OA
ATOM     27  H6  UNL     1     -12.018  57.698  15.459  1.00  0.00     0.197 HD
HETATM   28  N7  UNL     1     -11.096  60.630  15.995  1.00  0.00    -0.204 N 
HETATM   29  C10 UNL     1     -10.346  60.297  14.920  1.00  0.00     0.296 A 
ATOM     30  H7  UNL     1     -11.090  61.525  16.485  1.00  0.00     0.200 HD
HETATM   31  O3  UNL     1      -9.507  61.018  14.326  1.00  0.00    -0.264 OA
ENDBRANCH  22  24
ENDBRANCH  19  21
ENDBRANCH   1  19
BRANCH   1  32
HETATM   32  N8  UNL     1     -13.683  58.479  10.455  1.00  0.00    -0.224 N 
HETATM   33  N9  UNL     1     -13.866  58.363   9.150  1.00  0.00    -0.282 N 
HETATM   34  C11 UNL     1     -15.149  57.984   8.921  1.00  0.00     0.095 A 
ATOM     35  H9  UNL     1     -13.159  58.530   8.435  1.00  0.00     0.188 HD
HETATM   36  C12 UNL     1     -15.700  57.760   7.558  1.00  0.00     0.091 C 
HETATM   37  N10 UNL     1     -15.751  57.869  10.099  1.00  0.00    -0.310 N 
HETATM   38  C13 UNL     1     -14.858  58.171  11.033  1.00  0.00     0.242 A 
ATOM     39  H10 UNL     1     -16.721  57.599  10.257  1.00  0.00     0.170 HD
BRANCH  38  40
HETATM   40  O4  UNL     1     -15.088  58.172  12.399  1.00  0.00    -0.331 OA
ATOM     41  H4  UNL     1     -15.893  57.884  12.811  1.00  0.00     0.221 HD
ENDBRANCH  38  40
ENDBRANCH   1  32
TORSDOF 10
ENDMDL
MODEL 4
REMARK VINA RESULT: -7.788489003      2.565      6.061
REMARK  10 active torsions:
REMARK  status: ('A' for Active; 'I' for Inactive)
REMARK    1  A    between atoms: C2_2  and  N1_3 
REMARK    2  A    between atoms: C3_4  and  N2_5 
REMARK    3  A    between atoms: N2_5  and  C4_7 
REMARK    4  A    between atoms: C4_7  and  O1_9 
REMARK    5  A    between atoms: C6_13  and  C7_14 
REMARK    6  A    between atoms: C7_14  and  N4_15 
REMARK    7  A    between atoms: C7_14  and  N8_28 
REMARK    8  A    between atoms: N4_15  and  N5_17 
REMARK    9  A    between atoms: C8_19  and  C9_20 
REMARK   10  A    between atoms: C13_35  and  O4_36 
ROOT
HETATM    1  C7  UNL     1     -12.291  60.001  11.432  1.00  0.00     0.276 C 
ENDROOT
BRANCH   1   2
HETATM    2  C6  UNL     1     -13.329  59.028  11.141  1.00  0.00     0.083 A 
HETATM    3  N3  UNL     1     -14.097  59.120  10.013  1.00  0.00    -0.191 N 
HETATM    4  C3  UNL     1     -15.053  58.238   9.710  1.00  0.00     0.685 A 
ATOM      5  H3  UNL     1     -13.932  59.897   9.374  1.00  0.00     0.184 HD
HETATM    6  N1  UNL     1     -15.315  57.204  10.503  1.00  0.00    -0.147 N 
HETATM    7  C16 UNL     1     -14.617  57.036  11.624  1.00  0.00     0.269 A 
HETATM    8  C14 UNL     1     -13.611  57.959  11.948  1.00  0.00     0.034 A 
HETATM    9  O5  UNL     1     -14.826  56.070  12.412  1.00  0.00    -0.267 OA
HETATM   10  C15 UNL     1     -12.846  57.765  13.207  1.00  0.00     0.056 C 
BRANCH   4  11
HETATM   11  N2  UNL     1     -15.725  58.402   8.632  1.00  0.00    -0.200 N 
ATOM     12  H2  UNL     1     -15.689  57.643   7.952  1.00  0.00     0.180 HD
BRANCH  11  13
HETATM   13  C4  UNL     1     -16.521  59.537   8.282  1.00  0.00     0.230 C 
HETATM   14  C5  UNL     1     -17.728  59.173   7.443  1.00  0.00     0.063 C 
BRANCH  13  15
HETATM   15  O1  UNL     1     -17.043  60.051   9.492  1.00  0.00    -0.377 OA
ATOM     16  H1  UNL     1     -16.608  60.882   9.642  1.00  0.00     0.212 HD
ENDBRANCH  13  15
ENDBRANCH  11  13
ENDBRANCH   4  11
BRANCH   6  17
HETATM   17  C2  UNL     1     -16.359  56.266  10.142  1.00  0.00     0.146 C 
HETATM   18  C1  UNL     1     -17.723  56.744  10.524  1.00  0.00     0.027 C 
ENDBRANCH   6  17
ENDBRANCH   1   2
BRANCH   1  19
HETATM   19  N4  UNL     1     -11.219  60.049  10.430  1.00  0.00    -0.306 N 
ATOM     20  H4  UNL     1     -11.392  59.634   9.515  1.00  0.00     0.183 HD
BRANCH  19  21
HETATM   21  N5  UNL     1     -10.003  60.621  10.666  1.00  0.00    -0.312 N 
HETATM   22  C8  UNL     1      -9.212  60.517  11.645  1.00  0.00     0.144 C 
ATOM     23  H5  UNL     1      -9.676  61.239   9.923  1.00  0.00     0.185 HD
BRANCH  22  24
HETATM   24  C9  UNL     1      -9.372  59.732  12.849  1.00  0.00     0.143 A 
HETATM   25  N6  UNL     1      -9.219  58.408  12.994  1.00  0.00    -0.235 N 
HETATM   26  O2  UNL     1      -9.448  58.061  14.243  1.00  0.00    -0.153 OA
ATOM     27  H6  UNL     1      -8.963  57.764  12.246  1.00  0.00     0.197 HD
HETATM   28  N7  UNL     1      -9.752  59.117  14.944  1.00  0.00    -0.204 N 
HETATM   29  C10 UNL     1      -9.714  60.177  14.105  1.00  0.00     0.296 A 
ATOM     30  H7  UNL     1      -9.977  59.139  15.939  1.00  0.00     0.200 HD
HETATM   31  O3  UNL     1      -9.944  61.379  14.387  1.00  0.00    -0.264 OA
ENDBRANCH  22  24
ENDBRANCH  19  21
ENDBRANCH   1  19
BRANCH   1  32
HETATM   32  N8  UNL     1     -12.748  61.320  11.785  1.00  0.00    -0.224 N 
HETATM   33  N9  UNL     1     -12.729  61.787  13.023  1.00  0.00    -0.282 N 
HETATM   34  C11 UNL     1     -13.225  63.050  13.021  1.00  0.00     0.095 A 
ATOM     35  H9  UNL     1     -12.396  61.281  13.843  1.00  0.00     0.188 HD
HETATM   36  C12 UNL     1     -13.349  63.878  14.250  1.00  0.00     0.091 C 
HETATM   37  N10 UNL     1     -13.549  63.352  11.769  1.00  0.00    -0.310 N 
HETATM   38  C13 UNL     1     -13.259  62.298  11.017  1.00  0.00     0.242 A 
ATOM     39  H10 UNL     1     -13.948  64.233  11.445  1.00  0.00     0.170 HD
BRANCH  38  40
HETATM   40  O4  UNL     1     -13.447  62.207   9.648  1.00  0.00    -0.331 OA
ATOM     41  H4  UNL     1     -13.602  62.947   9.074  1.00  0.00     0.221 HD
ENDBRANCH  38  40
ENDBRANCH   1  32
TORSDOF 10
ENDMDL
MODEL 5
REMARK VINA RESULT: -7.715786860      2.843      5.273
REMARK  10 active torsions:
REMARK  status: ('A' for Active; 'I' for Inactive)
REMARK    1  A    between atoms: C2_2  and  N1_3 
REMARK    2  A    between atoms: C3_4  and  N2_5 
REMARK    3  A    between atoms: N2_5  and  C4_7 
REMARK    4  A    between atoms: C4_7  and  O1_9 
REMARK    5  A    between atoms: C6_13  and  C7_14 
REMARK    6  A    between atoms: C7_14  and  N4_15 
REMARK    7  A    between atoms: C7_14  and  N8_28 
REMARK    8  A    between atoms: N4_15  and  N5_17 
REMARK    9  A    between atoms: C8_19  and  C9_20 
REMARK   10  A    between atoms: C13_35  and  O4_36 
ROOT
HETATM    1  C7  UNL     1     -14.028  58.737  10.715  1.00  0.00     0.276 C 
ENDROOT
BRANCH   1   2
HETATM    2  C6  UNL     1     -13.517  59.089  12.028  1.00  0.00     0.083 A 
HETATM    3  N3  UNL     1     -12.659  58.266  12.704  1.00  0.00    -0.191 N 
HETATM    4  C3  UNL     1     -12.163  58.563  13.907  1.00  0.00     0.685 A 
ATOM      5  H3  UNL     1     -12.384  57.385  12.269  1.00  0.00     0.184 HD
HETATM    6  N1  UNL     1     -12.483  59.696  14.526  1.00  0.00    -0.147 N 
HETATM    7  C16 UNL     1     -13.313  60.556  13.943  1.00  0.00     0.269 A 
HETATM    8  C14 UNL     1     -13.838  60.250  12.678  1.00  0.00     0.034 A 
HETATM    9  O5  UNL     1     -13.649  61.646  14.487  1.00  0.00    -0.267 OA
HETATM   10  C15 UNL     1     -14.772  61.215  12.041  1.00  0.00     0.056 C 
BRANCH   4  11
HETATM   11  N2  UNL     1     -11.365  57.733  14.469  1.00  0.00    -0.200 N 
ATOM     12  H2  UNL     1     -11.557  57.504  15.444  1.00  0.00     0.180 HD
BRANCH  11  13
HETATM   13  C4  UNL     1     -10.234  57.093  13.873  1.00  0.00     0.230 C 
HETATM   14  C5  UNL     1      -8.991  57.956  13.896  1.00  0.00     0.063 C 
BRANCH  13  15
HETATM   15  O1  UNL     1      -9.933  55.972  14.681  1.00  0.00    -0.377 OA
ATOM     16  H1  UNL     1     -10.523  55.278  14.413  1.00  0.00     0.212 HD
ENDBRANCH  13  15
ENDBRANCH  11  13
ENDBRANCH   4  11
BRANCH   6  17
HETATM   17  C2  UNL     1     -11.925  59.985  15.831  1.00  0.00     0.146 C 
HETATM   18  C1  UNL     1     -10.610  60.693  15.754  1.00  0.00     0.027 C 
ENDBRANCH   6  17
ENDBRANCH   1   2
BRANCH   1  19
HETATM   19  N4  UNL     1     -12.986  58.562   9.696  1.00  0.00    -0.306 N 
ATOM     20  H4  UNL     1     -12.554  57.644   9.596  1.00  0.00     0.183 HD
BRANCH  19  21
HETATM   21  N5  UNL     1     -12.568  59.570   8.876  1.00  0.00    -0.312 N 
HETATM   22  C8  UNL     1     -11.804  60.552   9.091  1.00  0.00     0.144 C 
ATOM     23  H5  UNL     1     -12.936  59.522   7.926  1.00  0.00     0.185 HD
BRANCH  22  24
HETATM   24  C9  UNL     1     -11.123  60.909  10.316  1.00  0.00     0.143 A 
HETATM   25  N6  UNL     1     -10.245  60.176  11.013  1.00  0.00    -0.235 N 
HETATM   26  O2  UNL     1      -9.840  60.842  12.074  1.00  0.00    -0.153 OA
ATOM     27  H6  UNL     1      -9.934  59.238  10.759  1.00  0.00     0.197 HD
HETATM   28  N7  UNL     1     -10.425  62.007  12.110  1.00  0.00    -0.204 N 
HETATM   29  C10 UNL     1     -11.232  62.082  11.028  1.00  0.00     0.296 A 
ATOM     30  H7  UNL     1     -10.297  62.727  12.822  1.00  0.00     0.200 HD
HETATM   31  O3  UNL     1     -11.971  63.041  10.695  1.00  0.00    -0.264 OA
ENDBRANCH  22  24
ENDBRANCH  19  21
ENDBRANCH   1  19
BRANCH   1  32
HETATM   32  N8  UNL     1     -14.989  57.665  10.682  1.00  0.00    -0.224 N 
HETATM   33  N9  UNL     1     -16.266  57.845  10.391  1.00  0.00    -0.282 N 
HETATM   34  C11 UNL     1     -16.901  56.647  10.447  1.00  0.00     0.095 A 
ATOM     35  H9  UNL     1     -16.703  58.738  10.161  1.00  0.00     0.188 HD
HETATM   36  C12 UNL     1     -18.353  56.481  10.174  1.00  0.00     0.091 C 
HETATM   37  N10 UNL     1     -15.999  55.730  10.777  1.00  0.00    -0.310 N 
HETATM   38  C13 UNL     1     -14.834  56.350  10.920  1.00  0.00     0.242 A 
ATOM     39  H10 UNL     1     -16.169  54.732  10.898  1.00  0.00     0.170 HD
BRANCH  38  40
HETATM   40  O4  UNL     1     -13.635  55.748  11.262  1.00  0.00    -0.331 OA
ATOM     41  H4  UNL     1     -12.798  55.947  10.860  1.00  0.00     0.221 HD
ENDBRANCH  38  40
ENDBRANCH   1  32
TORSDOF 10
ENDMDL
