MODEL 1
REMARK VINA RESULT: -7.756707975      0.000      0.000
REMARK  10 active torsions:
REMARK  status: ('A' for Active; 'I' for Inactive)
REMARK    1  A    between atoms: C2_2  and  S1_3 
REMARK    2  A    between atoms: C2_2  and  C14_33 
REMARK    3  A    between atoms: S1_3  and  C3_4 
REMARK    4  A    between atoms: C3_4  and  C4_5 
REMARK    5  A    between atoms: C4_5  and  N1_6 
REMARK    6  A    between atoms: C4_5  and  C5_10 
REMARK       I    between atoms: C5_10  and  N2_12 
REMARK    7  A    between atoms: C9_19  and  N3_20 
REMARK       I    between atoms: N3_20  and  C10_22 
REMARK    8  A    between atoms: C10_22  and  C11_24 
REMARK    9  A    between atoms: C13_27  and  N4_28 
REMARK   10  A    between atoms: N7_35  and  O5_37 
ROOT
HETATM    1  C5  UNL     1     -10.387  60.846  10.688  1.00  0.00     0.253 C 
HETATM    2  O1  UNL     1     -10.400  61.033   9.456  1.00  0.00    -0.271 OA
HETATM    3  N2  UNL     1     -11.261  59.981  11.354  1.00  0.00    -0.328 N 
ATOM      4  H2  UNL     1     -10.980  59.007  11.464  1.00  0.00     0.168 HD
HETATM    5  C6  UNL     1     -12.381  60.336  11.831  1.00  0.00     0.046 C 
HETATM    6  C7  UNL     1     -13.008  61.689  11.800  1.00  0.00     0.234 C 
HETATM    7  O2  UNL     1     -13.854  61.707  12.961  1.00  0.00    -0.314 OA
HETATM    8  C8  UNL     1     -13.874  60.457  13.563  1.00  0.00     0.287 C 
HETATM    9  O3  UNL     1     -14.255  60.284  14.749  1.00  0.00    -0.262 OA
HETATM   10  C9  UNL     1     -13.388  59.501  12.559  1.00  0.00     0.232 C 
ENDROOT
BRANCH  10  11
HETATM   11  N3  UNL     1     -14.392  58.957  11.709  1.00  0.00    -0.337 N 
HETATM   12  C10 UNL     1     -14.167  57.921  10.762  1.00  0.00     0.269 C 
HETATM   13  O4  UNL     1     -12.994  57.483  10.702  1.00  0.00    -0.266 OA
ATOM     14  H3  UNL     1     -15.336  59.336  11.785  1.00  0.00     0.164 HD
BRANCH  12  15
HETATM   15  C11 UNL     1     -15.256  57.391   9.898  1.00  0.00     0.109 A 
HETATM   16  C12 UNL     1     -15.441  57.930   8.646  1.00  0.00     0.088 A 
HETATM   17  S2  UNL     1     -16.766  57.024   8.057  1.00  0.00    -0.064 SA
HETATM   18  C13 UNL     1     -17.003  56.029   9.414  1.00  0.00     0.142 A 
HETATM   19  N5  UNL     1     -16.060  56.431  10.259  1.00  0.00    -0.332 N 
ATOM     20  H5  UNL     1     -15.966  55.995  11.176  1.00  0.00     0.168 HD
BRANCH  18  21
HETATM   21  N4  UNL     1     -17.901  55.093   9.580  1.00  0.00    -0.380 N 
ATOM     22  H42 UNL     1     -18.917  55.184   9.616  1.00  0.00     0.158 HD
ATOM     23  H41 UNL     1     -17.750  54.092   9.705  1.00  0.00     0.158 HD
ENDBRANCH  18  21
ENDBRANCH  12  15
ENDBRANCH  10  11
BRANCH   1  24
HETATM   24  C4  UNL     1      -9.359  61.608  11.481  1.00  0.00     0.284 C 
BRANCH  24  25
HETATM   25  C3  UNL     1      -8.115  60.768  11.609  1.00  0.00     0.122 C 
BRANCH  25  26
HETATM   26  S1  UNL     1      -7.802  60.125  13.235  1.00  0.00    -0.125 SA
BRANCH  26  27
HETATM   27  C2  UNL     1      -9.058  59.049  13.873  1.00  0.00     0.034 C 
HETATM   28  C1  UNL     1      -9.092  57.782  13.512  1.00  0.00     0.034 C 
BRANCH  27  29
HETATM   29  C14 UNL     1     -10.129  59.584  14.750  1.00  0.00     0.151 C 
HETATM   30  N6  UNL     1     -10.216  60.982  14.944  1.00  0.00    -0.080 NA
HETATM   31  N7  UNL     1     -10.922  58.751  15.287  1.00  0.00    -0.254 N 
ATOM     32  H7  UNL     1     -10.770  57.764  15.079  1.00  0.00     0.195 HD
BRANCH  31  33
HETATM   33  O5  UNL     1     -11.951  59.058  16.112  1.00  0.00    -0.288 OA
ATOM     34  H5  UNL     1     -12.547  59.790  16.005  1.00  0.00     0.244 HD
ENDBRANCH  31  33
ENDBRANCH  27  29
ENDBRANCH  26  27
ENDBRANCH  25  26
ENDBRANCH  24  25
BRANCH  24  35
HETATM   35  N1  UNL     1      -9.071  62.874  10.913  1.00  0.00    -0.066 N 
ATOM     36  H13 UNL     1      -8.181  63.241  11.250  1.00  0.00     0.275 HD
ATOM     37  H12 UNL     1      -8.845  62.796   9.922  1.00  0.00     0.275 HD
ATOM     38  H11 UNL     1      -9.832  63.534  11.072  1.00  0.00     0.275 HD
ENDBRANCH  24  35
ENDBRANCH   1  24
TORSDOF 10
ENDMDL
MODEL 2
REMARK VINA RESULT: -7.753057067      1.616      1.839
REMARK  10 active torsions:
REMARK  status: ('A' for Active; 'I' for Inactive)
REMARK    1  A    between atoms: C2_2  and  S1_3 
REMARK    2  A    between atoms: C2_2  and  C14_33 
REMARK    3  A    between atoms: S1_3  and  C3_4 
REMARK    4  A    between atoms: C3_4  and  C4_5 
REMARK    5  A    between atoms: C4_5  and  N1_6 
REMARK    6  A    between atoms: C4_5  and  C5_10 
REMARK       I    between atoms: C5_10  and  N2_12 
REMARK    7  A    between atoms: C9_19  and  N3_20 
REMARK       I    between atoms: N3_20  and  C10_22 
REMARK    8  A    between atoms: C10_22  and  C11_24 
REMARK    9  A    between atoms: C13_27  and  N4_28 
REMARK   10  A    between atoms: N7_35  and  O5_37 
ROOT
HETATM    1  C5  UNL     1     -11.288  61.822  10.896  1.00  0.00     0.253 C 
HETATM    2  O1  UNL     1     -11.973  62.672  10.297  1.00  0.00    -0.271 OA
HETATM    3  N2  UNL     1     -11.540  60.447  10.854  1.00  0.00    -0.328 N 
ATOM      4  H2  UNL     1     -11.101  59.901  10.112  1.00  0.00     0.168 HD
HETATM    5  C6  UNL     1     -12.282  59.837  11.683  1.00  0.00     0.046 C 
HETATM    6  C7  UNL     1     -13.026  60.406  12.843  1.00  0.00     0.234 C 
HETATM    7  O2  UNL     1     -13.128  59.308  13.764  1.00  0.00    -0.314 OA
HETATM    8  C8  UNL     1     -12.642  58.146  13.183  1.00  0.00     0.287 C 
HETATM    9  O3  UNL     1     -12.312  57.139  13.860  1.00  0.00    -0.262 OA
HETATM   10  C9  UNL     1     -12.618  58.380  11.733  1.00  0.00     0.232 C 
ENDROOT
BRANCH  10  11
HETATM   11  N3  UNL     1     -13.824  58.054  11.050  1.00  0.00    -0.337 N 
HETATM   12  C10 UNL     1     -13.960  58.016   9.636  1.00  0.00     0.269 C 
HETATM   13  O4  UNL     1     -12.928  58.293   8.982  1.00  0.00    -0.266 OA
ATOM     14  H3  UNL     1     -14.645  57.833  11.614  1.00  0.00     0.164 HD
BRANCH  12  15
HETATM   15  C11 UNL     1     -15.247  57.669   8.975  1.00  0.00     0.109 A 
HETATM   16  C12 UNL     1     -16.276  57.163   9.735  1.00  0.00     0.088 A 
HETATM   17  S2  UNL     1     -17.503  56.925   8.568  1.00  0.00    -0.064 SA
HETATM   18  C13 UNL     1     -16.648  57.473   7.204  1.00  0.00     0.142 A 
HETATM   19  N5  UNL     1     -15.464  57.814   7.699  1.00  0.00    -0.332 N 
ATOM     20  H5  UNL     1     -14.736  58.185   7.089  1.00  0.00     0.168 HD
BRANCH  18  21
HETATM   21  N4  UNL     1     -17.066  57.539   5.966  1.00  0.00    -0.380 N 
ATOM     22  H42 UNL     1     -17.795  58.133   5.571  1.00  0.00     0.158 HD
ATOM     23  H41 UNL     1     -16.736  57.004   5.163  1.00  0.00     0.158 HD
ENDBRANCH  18  21
ENDBRANCH  12  15
ENDBRANCH  10  11
BRANCH   1  24
HETATM   24  C4  UNL     1     -10.124  62.332  11.704  1.00  0.00     0.284 C 
BRANCH  24  25
HETATM   25  C3  UNL     1      -8.957  61.394  11.532  1.00  0.00     0.122 C 
BRANCH  25  26
HETATM   26  S1  UNL     1      -8.139  60.923  13.036  1.00  0.00    -0.125 SA
BRANCH  26  27
HETATM   27  C2  UNL     1      -8.937  59.634  13.955  1.00  0.00     0.034 C 
HETATM   28  C1  UNL     1      -8.616  58.373  13.747  1.00  0.00     0.034 C 
BRANCH  27  29
HETATM   29  C14 UNL     1     -10.031  59.959  14.905  1.00  0.00     0.151 C 
HETATM   30  N6  UNL     1     -10.384  61.313  15.101  1.00  0.00    -0.080 NA
HETATM   31  N7  UNL     1     -10.601  58.992  15.498  1.00  0.00    -0.254 N 
ATOM     32  H7  UNL     1     -10.268  58.052  15.282  1.00  0.00     0.195 HD
BRANCH  31  33
HETATM   33  O5  UNL     1     -11.612  59.100  16.393  1.00  0.00    -0.288 OA
ATOM     34  H5  UNL     1     -11.908  58.413  16.979  1.00  0.00     0.244 HD
ENDBRANCH  31  33
ENDBRANCH  27  29
ENDBRANCH  26  27
ENDBRANCH  25  26
ENDBRANCH  24  25
BRANCH  24  35
HETATM   35  N1  UNL     1      -9.774  63.661  11.363  1.00  0.00    -0.066 N 
ATOM     36  H13 UNL     1      -9.260  63.698  10.483  1.00  0.00     0.275 HD
ATOM     37  H12 UNL     1     -10.592  64.205  11.090  1.00  0.00     0.275 HD
ATOM     38  H11 UNL     1      -9.258  64.115  12.117  1.00  0.00     0.275 HD
ENDBRANCH  24  35
ENDBRANCH   1  24
TORSDOF 10
ENDMDL
MODEL 3
REMARK VINA RESULT: -7.671036755      1.098      1.356
REMARK  10 active torsions:
REMARK  status: ('A' for Active; 'I' for Inactive)
REMARK    1  A    between atoms: C2_2  and  S1_3 
REMARK    2  A    between atoms: C2_2  and  C14_33 
REMARK    3  A    between atoms: S1_3  and  C3_4 
REMARK    4  A    between atoms: C3_4  and  C4_5 
REMARK    5  A    between atoms: C4_5  and  N1_6 
REMARK    6  A    between atoms: C4_5  and  C5_10 
REMARK       I    between atoms: C5_10  and  N2_12 
REMARK    7  A    between atoms: C9_19  and  N3_20 
REMARK       I    between atoms: N3_20  and  C10_22 
REMARK    8  A    between atoms: C10_22  and  C11_24 
REMARK    9  A    between atoms: C13_27  and  N4_28 
REMARK   10  A    between atoms: N7_35  and  O5_37 
ROOT
HETATM    1  C5  UNL     1     -11.153  61.500  10.863  1.00  0.00     0.253 C 
HETATM    2  O1  UNL     1     -11.839  62.287  10.184  1.00  0.00    -0.271 OA
HETATM    3  N2  UNL     1     -11.419  60.131  10.974  1.00  0.00    -0.328 N 
ATOM      4  H2  UNL     1     -10.995  59.503  10.291  1.00  0.00     0.168 HD
HETATM    5  C6  UNL     1     -12.155  59.624  11.873  1.00  0.00     0.046 C 
HETATM    6  C7  UNL     1     -12.878  60.323  12.974  1.00  0.00     0.234 C 
HETATM    7  O2  UNL     1     -12.978  59.333  14.010  1.00  0.00    -0.314 OA
HETATM    8  C8  UNL     1     -12.510  58.109  13.553  1.00  0.00     0.287 C 
HETATM    9  O3  UNL     1     -12.181  57.178  14.332  1.00  0.00    -0.262 OA
HETATM   10  C9  UNL     1     -12.503  58.184  12.086  1.00  0.00     0.232 C 
ENDROOT
BRANCH  10  11
HETATM   11  N3  UNL     1     -13.722  57.798  11.458  1.00  0.00    -0.337 N 
HETATM   12  C10 UNL     1     -13.927  57.778  10.052  1.00  0.00     0.269 C 
HETATM   13  O4  UNL     1     -12.948  58.127   9.353  1.00  0.00    -0.266 OA
ATOM     14  H3  UNL     1     -14.499  57.519  12.057  1.00  0.00     0.164 HD
BRANCH  12  15
HETATM   15  C11 UNL     1     -15.224  57.365   9.449  1.00  0.00     0.109 A 
HETATM   16  C12 UNL     1     -15.566  57.841   8.204  1.00  0.00     0.088 A 
HETATM   17  S2  UNL     1     -17.093  57.115   7.948  1.00  0.00    -0.064 SA
HETATM   18  C13 UNL     1     -17.205  56.263   9.416  1.00  0.00     0.142 A 
HETATM   19  N5  UNL     1     -16.072  56.570  10.037  1.00  0.00    -0.332 N 
ATOM     20  H5  UNL     1     -15.869  56.188  10.960  1.00  0.00     0.168 HD
BRANCH  18  21
HETATM   21  N4  UNL     1     -18.178  55.492   9.827  1.00  0.00    -0.380 N 
ATOM     22  H42 UNL     1     -18.211  54.473   9.864  1.00  0.00     0.158 HD
ATOM     23  H41 UNL     1     -19.091  55.771  10.187  1.00  0.00     0.158 HD
ENDBRANCH  18  21
ENDBRANCH  12  15
ENDBRANCH  10  11
BRANCH   1  24
HETATM   24  C4  UNL     1      -9.974  62.082  11.597  1.00  0.00     0.284 C 
BRANCH  24  25
HETATM   25  C3  UNL     1      -8.815  61.124  11.504  1.00  0.00     0.122 C 
BRANCH  25  26
HETATM   26  S1  UNL     1      -8.038  60.727  13.051  1.00  0.00    -0.125 SA
BRANCH  26  27
HETATM   27  C2  UNL     1      -8.906  59.545  14.047  1.00  0.00     0.034 C 
HETATM   28  C1  UNL     1      -8.681  58.256  13.895  1.00  0.00     0.034 C 
BRANCH  27  29
HETATM   29  C14 UNL     1      -9.952  59.993  15.000  1.00  0.00     0.151 C 
HETATM   30  N6  UNL     1     -10.333  61.354  15.004  1.00  0.00    -0.080 NA
HETATM   31  N7  UNL     1     -10.458  59.121  15.771  1.00  0.00    -0.254 N 
ATOM     32  H7  UNL     1     -10.110  58.166  15.684  1.00  0.00     0.195 HD
BRANCH  31  33
HETATM   33  O5  UNL     1     -11.417  59.348  16.699  1.00  0.00    -0.288 OA
ATOM     34  H5  UNL     1     -11.271  59.673  17.580  1.00  0.00     0.244 HD
ENDBRANCH  31  33
ENDBRANCH  27  29
ENDBRANCH  26  27
ENDBRANCH  25  26
ENDBRANCH  24  25
BRANCH  24  35
HETATM   35  N1  UNL     1      -9.622  63.367  11.115  1.00  0.00    -0.066 N 
ATOM     36  H13 UNL     1      -8.618  63.443  10.953  1.00  0.00     0.275 HD
ATOM     37  H12 UNL     1      -9.947  63.510  10.160  1.00  0.00     0.275 HD
ATOM     38  H11 UNL     1      -9.958  64.102  11.737  1.00  0.00     0.275 HD
ENDBRANCH  24  35
ENDBRANCH   1  24
TORSDOF 10
ENDMDL
MODEL 4
REMARK VINA RESULT: -7.412149580      2.806      8.490
REMARK  10 active torsions:
REMARK  status: ('A' for Active; 'I' for Inactive)
REMARK    1  A    between atoms: C2_2  and  S1_3 
REMARK    2  A    between atoms: C2_2  and  C14_33 
REMARK    3  A    between atoms: S1_3  and  C3_4 
REMARK    4  A    between atoms: C3_4  and  C4_5 
REMARK    5  A    between atoms: C4_5  and  N1_6 
REMARK    6  A    between atoms: C4_5  and  C5_10 
REMARK       I    between atoms: C5_10  and  N2_12 
REMARK    7  A    between atoms: C9_19  and  N3_20 
REMARK       I    between atoms: N3_20  and  C10_22 
REMARK    8  A    between atoms: C10_22  and  C11_24 
REMARK    9  A    between atoms: C13_27  and  N4_28 
REMARK   10  A    between atoms: N7_35  and  O5_37 
ROOT
HETATM    1  C5  UNL     1     -13.826  57.927  10.878  1.00  0.00     0.253 C 
HETATM    2  O1  UNL     1     -13.300  57.580   9.803  1.00  0.00    -0.271 OA
HETATM    3  N2  UNL     1     -13.285  58.890  11.735  1.00  0.00    -0.328 N 
ATOM      4  H2  UNL     1     -13.549  59.865  11.590  1.00  0.00     0.168 HD
HETATM    5  C6  UNL     1     -12.485  58.625  12.683  1.00  0.00     0.046 C 
HETATM    6  C7  UNL     1     -11.955  57.293  13.094  1.00  0.00     0.234 C 
HETATM    7  O2  UNL     1     -11.681  57.445  14.496  1.00  0.00    -0.314 OA
HETATM    8  C8  UNL     1     -11.870  58.763  14.884  1.00  0.00     0.287 C 
HETATM    9  O3  UNL     1     -12.021  59.099  16.087  1.00  0.00    -0.262 OA
HETATM   10  C9  UNL     1     -11.851  59.569  13.656  1.00  0.00     0.232 C 
ENDROOT
BRANCH  10  11
HETATM   11  N3  UNL     1     -10.561  60.017  13.250  1.00  0.00    -0.337 N 
HETATM   12  C10 UNL     1     -10.031  61.303  13.541  1.00  0.00     0.269 C 
HETATM   13  O4  UNL     1     -10.776  62.063  14.202  1.00  0.00    -0.266 OA
ATOM     14  H3  UNL     1      -9.980  59.372  12.714  1.00  0.00     0.164 HD
BRANCH  12  15
HETATM   15  C11 UNL     1      -8.675  61.719  13.090  1.00  0.00     0.109 A 
HETATM   16  C12 UNL     1      -8.504  62.970  12.547  1.00  0.00     0.088 A 
HETATM   17  S2  UNL     1      -6.831  62.983  12.191  1.00  0.00    -0.064 SA
HETATM   18  C13 UNL     1      -6.454  61.421  12.745  1.00  0.00     0.142 A 
HETATM   19  N5  UNL     1      -7.621  60.957  13.178  1.00  0.00    -0.332 N 
ATOM     20  H5  UNL     1      -7.691  60.020  13.573  1.00  0.00     0.168 HD
BRANCH  18  21
HETATM   21  N4  UNL     1      -5.290  60.825  12.742  1.00  0.00    -0.380 N 
ATOM     22  H42 UNL     1      -4.543  60.882  13.435  1.00  0.00     0.158 HD
ATOM     23  H41 UNL     1      -4.912  60.188  12.040  1.00  0.00     0.158 HD
ENDBRANCH  18  21
ENDBRANCH  12  15
ENDBRANCH  10  11
BRANCH   1  24
HETATM   24  C4  UNL     1     -15.121  57.255  11.251  1.00  0.00     0.284 C 
BRANCH  24  25
HETATM   25  C3  UNL     1     -15.734  56.648  10.015  1.00  0.00     0.122 C 
BRANCH  25  26
HETATM   26  S1  UNL     1     -17.233  57.420   9.458  1.00  0.00    -0.125 SA
BRANCH  26  27
HETATM   27  C2  UNL     1     -17.042  58.537   8.096  1.00  0.00     0.034 C 
HETATM   28  C1  UNL     1     -17.201  59.834   8.272  1.00  0.00     0.034 C 
BRANCH  27  29
HETATM   29  C14 UNL     1     -16.785  58.016   6.730  1.00  0.00     0.151 C 
HETATM   30  N6  UNL     1     -15.667  57.176   6.520  1.00  0.00    -0.080 NA
HETATM   31  N7  UNL     1     -17.591  58.354   5.809  1.00  0.00    -0.254 N 
ATOM     32  H7  UNL     1     -18.366  58.964   6.070  1.00  0.00     0.195 HD
BRANCH  31  33
HETATM   33  O5  UNL     1     -17.512  57.975   4.512  1.00  0.00    -0.288 OA
ATOM     34  H5  UNL     1     -17.465  58.562   3.765  1.00  0.00     0.244 HD
ENDBRANCH  31  33
ENDBRANCH  27  29
ENDBRANCH  26  27
ENDBRANCH  25  26
ENDBRANCH  24  25
BRANCH  24  35
HETATM   35  N1  UNL     1     -14.950  56.288  12.271  1.00  0.00    -0.066 N 
ATOM     36  H13 UNL     1     -15.631  56.411  13.021  1.00  0.00     0.275 HD
ATOM     37  H12 UNL     1     -15.230  55.359  11.957  1.00  0.00     0.275 HD
ATOM     38  H11 UNL     1     -13.995  56.288  12.629  1.00  0.00     0.275 HD
ENDBRANCH  24  35
ENDBRANCH   1  24
TORSDOF 10
ENDMDL
MODEL 5
REMARK VINA RESULT: -7.395731378      2.621      3.297
REMARK  10 active torsions:
REMARK  status: ('A' for Active; 'I' for Inactive)
REMARK    1  A    between atoms: C2_2  and  S1_3 
REMARK    2  A    between atoms: C2_2  and  C14_33 
REMARK    3  A    between atoms: S1_3  and  C3_4 
REMARK    4  A    between atoms: C3_4  and  C4_5 
REMARK    5  A    between atoms: C4_5  and  N1_6 
REMARK    6  A    between atoms: C4_5  and  C5_10 
REMARK       I    between atoms: C5_10  and  N2_12 
REMARK    7  A    between atoms: C9_19  and  N3_20 
REMARK       I    between atoms: N3_20  and  C10_22 
REMARK    8  A    between atoms: C10_22  and  C11_24 
REMARK    9  A    between atoms: C13_27  and  N4_28 
REMARK   10  A    between atoms: N7_35  and  O5_37 
ROOT
HETATM    1  C5  UNL     1     -11.440  62.332  10.926  1.00  0.00     0.253 C 
HETATM    2  O1  UNL     1     -12.314  63.131  10.542  1.00  0.00    -0.271 OA
HETATM    3  N2  UNL     1     -11.503  60.949  10.723  1.00  0.00    -0.328 N 
ATOM      4  H2  UNL     1     -11.104  60.572   9.864  1.00  0.00     0.168 HD
HETATM    5  C6  UNL     1     -12.028  60.137  11.544  1.00  0.00     0.046 C 
HETATM    6  C7  UNL     1     -12.669  60.440  12.856  1.00  0.00     0.234 C 
HETATM    7  O2  UNL     1     -12.486  59.236  13.619  1.00  0.00    -0.314 OA
HETATM    8  C8  UNL     1     -11.932  58.242  12.825  1.00  0.00     0.287 C 
HETATM    9  O3  UNL     1     -11.373  57.224  13.309  1.00  0.00    -0.262 OA
HETATM   10  C9  UNL     1     -12.149  58.650  11.431  1.00  0.00     0.232 C 
ENDROOT
BRANCH  10  11
HETATM   11  N3  UNL     1     -13.384  58.224  10.864  1.00  0.00    -0.337 N 
HETATM   12  C10 UNL     1     -13.694  58.289   9.479  1.00  0.00     0.269 C 
HETATM   13  O4  UNL     1     -12.796  58.755   8.739  1.00  0.00    -0.266 OA
ATOM     14  H3  UNL     1     -14.093  57.849  11.494  1.00  0.00     0.164 HD
BRANCH  12  15
HETATM   15  C11 UNL     1     -15.004  57.830   8.940  1.00  0.00     0.109 A 
HETATM   16  C12 UNL     1     -15.948  57.331   9.808  1.00  0.00     0.088 A 
HETATM   17  S2  UNL     1     -17.238  56.946   8.754  1.00  0.00    -0.064 SA
HETATM   18  C13 UNL     1     -16.513  57.435   7.296  1.00  0.00     0.142 A 
HETATM   19  N5  UNL     1     -15.318  57.870   7.677  1.00  0.00    -0.332 N 
ATOM     20  H5  UNL     1     -14.656  58.232   6.990  1.00  0.00     0.168 HD
BRANCH  18  21
HETATM   21  N4  UNL     1     -17.019  57.389   6.090  1.00  0.00    -0.380 N 
ATOM     22  H42 UNL     1     -17.603  58.080   5.618  1.00  0.00     0.158 HD
ATOM     23  H41 UNL     1     -16.922  56.648   5.396  1.00  0.00     0.158 HD
ENDBRANCH  18  21
ENDBRANCH  12  15
ENDBRANCH  10  11
BRANCH   1  24
HETATM   24  C4  UNL     1     -10.254  62.915  11.648  1.00  0.00     0.284 C 
BRANCH  24  25
HETATM   25  C3  UNL     1      -9.085  61.973  11.516  1.00  0.00     0.122 C 
BRANCH  25  26
HETATM   26  S1  UNL     1      -8.675  61.069  12.988  1.00  0.00    -0.125 SA
BRANCH  26  27
HETATM   27  C2  UNL     1      -7.190  60.105  12.890  1.00  0.00     0.034 C 
HETATM   28  C1  UNL     1      -7.247  58.790  12.950  1.00  0.00     0.034 C 
BRANCH  27  29
HETATM   29  C14 UNL     1      -5.866  60.773  12.822  1.00  0.00     0.151 C 
HETATM   30  N6  UNL     1      -4.707  59.977  12.680  1.00  0.00    -0.080 NA
HETATM   31  N7  UNL     1      -5.842  62.040  12.895  1.00  0.00    -0.254 N 
ATOM     32  H7  UNL     1      -6.739  62.517  12.995  1.00  0.00     0.195 HD
BRANCH  31  33
HETATM   33  O5  UNL     1      -4.732  62.813  12.851  1.00  0.00    -0.288 OA
ATOM     34  H5  UNL     1      -3.919  62.642  13.313  1.00  0.00     0.244 HD
ENDBRANCH  31  33
ENDBRANCH  27  29
ENDBRANCH  26  27
ENDBRANCH  25  26
ENDBRANCH  24  25
BRANCH  24  35
HETATM   35  N1  UNL     1      -9.926  64.212  11.182  1.00  0.00    -0.066 N 
ATOM     36  H13 UNL     1     -10.448  64.932  11.683  1.00  0.00     0.275 HD
ATOM     37  H12 UNL     1      -8.982  64.481  11.459  1.00  0.00     0.275 HD
ATOM     38  H11 UNL     1     -10.056  64.290  10.174  1.00  0.00     0.275 HD
ENDBRANCH  24  35
ENDBRANCH   1  24
TORSDOF 10
ENDMDL
