MODEL 1
REMARK VINA RESULT: -8.482788374      0.000      0.000
REMARK  9 active torsions:
REMARK  status: ('A' for Active; 'I' for Inactive)
REMARK    1  A    between atoms: C2_2  and  N1_4 
REMARK    2  A    between atoms: N1_4  and  C4_6 
REMARK    3  A    between atoms: C7_12  and  N3_13 
REMARK    4  A    between atoms: N3_13  and  C8_15 
REMARK    5  A    between atoms: C8_15  and  C9_16 
REMARK    6  A    between atoms: C8_15  and  C10_25 
REMARK    7  A    between atoms: C10_25  and  N8_26 
REMARK    8  A    between atoms: C10_25  and  O2_30 
REMARK    9  A    between atoms: C12_33  and  C13_34 
ROOT
HETATM    1  C4  UNL     1     -16.595  58.907   8.625  1.00  0.00     0.682 A 
HETATM    2  N2  UNL     1     -15.391  58.335   8.553  1.00  0.00    -0.155 N 
ATOM      3  H2  UNL     1     -15.274  57.534   7.934  1.00  0.00     0.187 HD
HETATM    4  C5  UNL     1     -14.303  58.767   9.268  1.00  0.00     0.276 A 
HETATM    5  O1  UNL     1     -13.239  58.126   9.086  1.00  0.00    -0.267 OA
HETATM    6  C6  UNL     1     -14.409  59.843  10.120  1.00  0.00     0.104 A 
HETATM    7  C7  UNL     1     -13.346  60.345  10.858  1.00  0.00     0.054 A 
HETATM    8  C11 UNL     1     -13.620  61.446  11.639  1.00  0.00     0.061 A 
HETATM    9  C12 UNL     1     -14.867  62.061  11.726  1.00  0.00     0.049 A 
HETATM   10  N11 UNL     1     -15.841  61.511  10.982  1.00  0.00    -0.340 N 
ATOM     11  H11 UNL     1     -16.768  61.936  11.021  1.00  0.00     0.167 HD
HETATM   12  C17 UNL     1     -15.675  60.440  10.189  1.00  0.00     0.139 A 
HETATM   13  N12 UNL     1     -16.700  59.960   9.456  1.00  0.00    -0.175 N 
ATOM     14  H12 UNL     1     -17.605  60.422   9.536  1.00  0.00     0.186 HD
ENDROOT
BRANCH   7  15
HETATM   15  N3  UNL     1     -12.103  59.702  10.870  1.00  0.00    -0.352 N 
ATOM     16  H3  UNL     1     -11.933  59.122  10.048  1.00  0.00     0.166 HD
BRANCH  15  17
HETATM   17  C8  UNL     1     -11.037  59.701  11.803  1.00  0.00     0.113 C 
BRANCH  17  18
HETATM   18  C9  UNL     1     -10.985  58.607  12.788  1.00  0.00     0.164 A 
HETATM   19  N4  UNL     1     -10.254  57.491  12.865  1.00  0.00    -0.267 N 
HETATM   20  N5  UNL     1     -10.562  56.830  13.954  1.00  0.00    -0.227 N 
ATOM     21  H4  UNL     1      -9.559  57.197  12.178  1.00  0.00     0.190 HD
HETATM   22  N6  UNL     1     -11.480  57.473  14.610  1.00  0.00    -0.227 N 
ATOM     23  H5  UNL     1     -10.144  55.945  14.242  1.00  0.00     0.210 HD
HETATM   24  N7  UNL     1     -11.761  58.563  13.925  1.00  0.00    -0.267 N 
ATOM     25  H6  UNL     1     -11.905  57.187  15.492  1.00  0.00     0.210 HD
ATOM     26  H7  UNL     1     -12.447  59.268  14.196  1.00  0.00     0.190 HD
ENDBRANCH  17  18
BRANCH  17  27
HETATM   27  C10 UNL     1      -9.711  60.211  11.387  1.00  0.00     0.371 C 
BRANCH  27  28
HETATM   28  N8  UNL     1      -9.074  61.201  12.175  1.00  0.00    -0.047 N 
ATOM     29  H83 UNL     1      -9.405  62.119  11.879  1.00  0.00     0.277 HD
ATOM     30  H82 UNL     1      -9.445  61.152  13.124  1.00  0.00     0.277 HD
ATOM     31  H81 UNL     1      -8.055  61.220  12.222  1.00  0.00     0.277 HD
ENDBRANCH  27  28
BRANCH  27  32
HETATM   32  O2  UNL     1      -9.823  60.614  10.038  1.00  0.00    -0.365 OA
ATOM     33  H2  UNL     1      -9.073  60.258   9.576  1.00  0.00     0.212 HD
ENDBRANCH  27  32
ENDBRANCH  17  27
ENDBRANCH  15  17
ENDBRANCH   7  15
BRANCH   9  34
HETATM   34  C13 UNL     1     -15.111  63.220  12.561  1.00  0.00     0.021 A 
HETATM   35  C14 UNL     1     -14.059  63.999  12.972  1.00  0.00     0.104 A 
HETATM   36  N9  UNL     1     -14.285  65.067  13.742  1.00  0.00    -0.361 N 
HETATM   37  C15 UNL     1     -15.515  65.423  14.141  1.00  0.00     0.180 A 
ATOM     38  H9  UNL     1     -13.490  65.635  14.039  1.00  0.00     0.166 HD
HETATM   39  N10 UNL     1     -16.564  64.682  13.757  1.00  0.00    -0.361 N 
HETATM   40  C16 UNL     1     -16.358  63.579  12.966  1.00  0.00     0.104 A 
ATOM     41  H10 UNL     1     -17.508  64.936  14.050  1.00  0.00     0.166 HD
ENDBRANCH   9  34
BRANCH   1  42
HETATM   42  N1  UNL     1     -17.604  58.489   7.947  1.00  0.00    -0.222 N 
ATOM     43  H1  UNL     1     -18.182  57.787   8.411  1.00  0.00     0.178 HD
BRANCH  42  44
HETATM   44  C2  UNL     1     -18.028  58.863   6.651  1.00  0.00     0.091 C 
HETATM   45  C1  UNL     1     -18.055  60.362   6.425  1.00  0.00     0.032 C 
HETATM   46  C3  UNL     1     -17.321  58.146   5.525  1.00  0.00     0.032 C 
ENDBRANCH  42  44
ENDBRANCH   1  42
TORSDOF 9
ENDMDL
MODEL 2
REMARK VINA RESULT: -8.411408063      2.223      2.858
REMARK  9 active torsions:
REMARK  status: ('A' for Active; 'I' for Inactive)
REMARK    1  A    between atoms: C2_2  and  N1_4 
REMARK    2  A    between atoms: N1_4  and  C4_6 
REMARK    3  A    between atoms: C7_12  and  N3_13 
REMARK    4  A    between atoms: N3_13  and  C8_15 
REMARK    5  A    between atoms: C8_15  and  C9_16 
REMARK    6  A    between atoms: C8_15  and  C10_25 
REMARK    7  A    between atoms: C10_25  and  N8_26 
REMARK    8  A    between atoms: C10_25  and  O2_30 
REMARK    9  A    between atoms: C12_33  and  C13_34 
ROOT
HETATM    1  C4  UNL     1     -15.265  60.432   9.842  1.00  0.00     0.682 A 
HETATM    2  N2  UNL     1     -14.294  59.533  10.016  1.00  0.00    -0.155 N 
ATOM      3  H2  UNL     1     -14.491  58.559   9.786  1.00  0.00     0.187 HD
HETATM    4  C5  UNL     1     -13.045  59.848  10.487  1.00  0.00     0.276 A 
HETATM    5  O1  UNL     1     -12.240  58.889  10.590  1.00  0.00    -0.267 OA
HETATM    6  C6  UNL     1     -12.729  61.147  10.814  1.00  0.00     0.104 A 
HETATM    7  C7  UNL     1     -11.481  61.540  11.277  1.00  0.00     0.054 A 
HETATM    8  C11 UNL     1     -11.326  62.885  11.529  1.00  0.00     0.061 A 
HETATM    9  C12 UNL     1     -12.324  63.841  11.351  1.00  0.00     0.049 A 
HETATM   10  N11 UNL     1     -13.502  63.377  10.902  1.00  0.00    -0.340 N 
ATOM     11  H11 UNL     1     -14.256  64.049  10.761  1.00  0.00     0.167 HD
HETATM   12  C17 UNL     1     -13.752  62.086  10.628  1.00  0.00     0.139 A 
HETATM   13  N12 UNL     1     -14.957  61.702  10.159  1.00  0.00    -0.175 N 
ATOM     14  H12 UNL     1     -15.675  62.416  10.039  1.00  0.00     0.186 HD
ENDROOT
BRANCH   7  15
HETATM   15  N3  UNL     1     -10.482  60.600  11.557  1.00  0.00    -0.352 N 
ATOM     16  H3  UNL     1     -10.150  60.096  10.735  1.00  0.00     0.166 HD
BRANCH  15  17
HETATM   17  C8  UNL     1      -9.844  60.214  12.761  1.00  0.00     0.113 C 
BRANCH  17  18
HETATM   18  C9  UNL     1     -10.197  58.907  13.340  1.00  0.00     0.164 A 
HETATM   19  N4  UNL     1     -10.270  58.463  14.599  1.00  0.00    -0.267 N 
HETATM   20  N5  UNL     1     -10.647  57.208  14.609  1.00  0.00    -0.227 N 
ATOM     21  H4  UNL     1     -10.063  59.020  15.429  1.00  0.00     0.190 HD
HETATM   22  N6  UNL     1     -10.829  56.797  13.390  1.00  0.00    -0.227 N 
ATOM     23  H5  UNL     1     -10.778  56.640  15.446  1.00  0.00     0.210 HD
HETATM   24  N7  UNL     1     -10.562  57.811  12.591  1.00  0.00    -0.267 N 
ATOM     25  H6  UNL     1     -11.123  55.864  13.105  1.00  0.00     0.210 HD
ATOM     26  H7  UNL     1     -10.619  57.787  11.572  1.00  0.00     0.190 HD
ENDBRANCH  17  18
BRANCH  17  27
HETATM   27  C10 UNL     1      -8.444  60.631  13.004  1.00  0.00     0.371 C 
BRANCH  27  28
HETATM   28  N8  UNL     1      -7.877  61.650  12.198  1.00  0.00    -0.047 N 
ATOM     29  H83 UNL     1      -7.558  61.236  11.322  1.00  0.00     0.277 HD
ATOM     30  H82 UNL     1      -8.625  62.260  11.869  1.00  0.00     0.277 HD
ATOM     31  H81 UNL     1      -7.127  62.226  12.580  1.00  0.00     0.277 HD
ENDBRANCH  27  28
BRANCH  27  32
HETATM   32  O2  UNL     1      -7.652  59.462  12.994  1.00  0.00    -0.365 OA
ATOM     33  H2  UNL     1      -8.234  58.728  13.156  1.00  0.00     0.212 HD
ENDBRANCH  27  32
ENDBRANCH  17  27
ENDBRANCH  15  17
ENDBRANCH   7  15
BRANCH   9  34
HETATM   34  C13 UNL     1     -12.118  65.249  11.628  1.00  0.00     0.021 A 
HETATM   35  C14 UNL     1     -10.926  65.671  12.162  1.00  0.00     0.104 A 
HETATM   36  N9  UNL     1     -10.737  66.969  12.418  1.00  0.00    -0.361 N 
HETATM   37  C15 UNL     1     -11.674  67.898  12.172  1.00  0.00     0.180 A 
ATOM     38  H9  UNL     1      -9.846  67.266  12.816  1.00  0.00     0.166 HD
HETATM   39  N10 UNL     1     -12.848  67.517  11.650  1.00  0.00    -0.361 N 
HETATM   40  C16 UNL     1     -13.067  66.189  11.379  1.00  0.00     0.104 A 
ATOM     41  H10 UNL     1     -13.573  68.208  11.455  1.00  0.00     0.166 HD
ENDBRANCH   9  34
BRANCH   1  42
HETATM   42  N1  UNL     1     -16.431  60.118   9.399  1.00  0.00    -0.222 N 
ATOM     43  H1  UNL     1     -17.210  60.625   9.820  1.00  0.00     0.178 HD
BRANCH  42  44
HETATM   44  C2  UNL     1     -16.787  59.171   8.411  1.00  0.00     0.091 C 
HETATM   45  C1  UNL     1     -17.302  57.862   8.976  1.00  0.00     0.032 C 
HETATM   46  C3  UNL     1     -17.696  59.702   7.328  1.00  0.00     0.032 C 
ENDBRANCH  42  44
ENDBRANCH   1  42
TORSDOF 9
ENDMDL
MODEL 3
REMARK VINA RESULT: -8.391891049      2.462      5.792
REMARK  9 active torsions:
REMARK  status: ('A' for Active; 'I' for Inactive)
REMARK    1  A    between atoms: C2_2  and  N1_4 
REMARK    2  A    between atoms: N1_4  and  C4_6 
REMARK    3  A    between atoms: C7_12  and  N3_13 
REMARK    4  A    between atoms: N3_13  and  C8_15 
REMARK    5  A    between atoms: C8_15  and  C9_16 
REMARK    6  A    between atoms: C8_15  and  C10_25 
REMARK    7  A    between atoms: C10_25  and  N8_26 
REMARK    8  A    between atoms: C10_25  and  O2_30 
REMARK    9  A    between atoms: C12_33  and  C13_34 
ROOT
HETATM    1  C4  UNL     1     -14.851  58.602   9.019  1.00  0.00     0.682 A 
HETATM    2  N2  UNL     1     -15.639  59.491   9.628  1.00  0.00    -0.155 N 
ATOM      3  H2  UNL     1     -16.605  59.577   9.311  1.00  0.00     0.187 HD
HETATM    4  C5  UNL     1     -15.221  60.294  10.658  1.00  0.00     0.276 A 
HETATM    5  O1  UNL     1     -16.085  61.076  11.128  1.00  0.00    -0.267 OA
HETATM    6  C6  UNL     1     -13.928  60.218  11.122  1.00  0.00     0.104 A 
HETATM    7  C7  UNL     1     -13.443  60.986  12.172  1.00  0.00     0.054 A 
HETATM    8  C11 UNL     1     -12.132  60.762  12.529  1.00  0.00     0.061 A 
HETATM    9  C12 UNL     1     -11.293  59.838  11.911  1.00  0.00     0.049 A 
HETATM   10  N11 UNL     1     -11.839  59.138  10.903  1.00  0.00    -0.340 N 
ATOM     11  H11 UNL     1     -11.254  58.452  10.426  1.00  0.00     0.167 HD
HETATM   12  C17 UNL     1     -13.106  59.282  10.481  1.00  0.00     0.139 A 
HETATM   13  N12 UNL     1     -13.587  58.525   9.474  1.00  0.00    -0.175 N 
ATOM     14  H12 UNL     1     -12.957  57.856   9.032  1.00  0.00     0.186 HD
ENDROOT
BRANCH   7  15
HETATM   15  N3  UNL     1     -14.223  61.989  12.758  1.00  0.00    -0.352 N 
ATOM     16  H3  UNL     1     -15.012  61.634  13.299  1.00  0.00     0.166 HD
BRANCH  15  17
HETATM   17  C8  UNL     1     -14.130  63.403  12.745  1.00  0.00     0.113 C 
BRANCH  17  18
HETATM   18  C9  UNL     1     -13.029  64.013  11.979  1.00  0.00     0.164 A 
HETATM   19  N4  UNL     1     -12.786  64.118  10.669  1.00  0.00    -0.267 N 
HETATM   20  N5  UNL     1     -11.666  64.770  10.473  1.00  0.00    -0.227 N 
ATOM     21  H4  UNL     1     -13.384  63.745   9.930  1.00  0.00     0.190 HD
HETATM   22  N6  UNL     1     -11.152  65.107  11.617  1.00  0.00    -0.227 N 
ATOM     23  H5  UNL     1     -11.261  64.982   9.561  1.00  0.00     0.210 HD
HETATM   24  N7  UNL     1     -11.960  64.659  12.558  1.00  0.00    -0.267 N 
ATOM     25  H6  UNL     1     -10.283  65.621  11.761  1.00  0.00     0.210 HD
ATOM     26  H7  UNL     1     -11.815  64.774  13.561  1.00  0.00     0.190 HD
ENDBRANCH  17  18
BRANCH  17  27
HETATM   27  C10 UNL     1     -15.370  64.211  12.780  1.00  0.00     0.371 C 
BRANCH  27  28
HETATM   28  N8  UNL     1     -16.571  63.655  12.274  1.00  0.00    -0.047 N 
ATOM     29  H83 UNL     1     -16.584  63.772  11.260  1.00  0.00     0.277 HD
ATOM     30  H82 UNL     1     -16.522  62.640  12.357  1.00  0.00     0.277 HD
ATOM     31  H81 UNL     1     -17.464  63.973  12.652  1.00  0.00     0.277 HD
ENDBRANCH  27  28
BRANCH  27  32
HETATM   32  O2  UNL     1     -15.077  65.452  12.175  1.00  0.00    -0.365 OA
ATOM     33  H2  UNL     1     -15.233  66.126  12.826  1.00  0.00     0.212 HD
ENDBRANCH  27  32
ENDBRANCH  17  27
ENDBRANCH  15  17
ENDBRANCH   7  15
BRANCH   9  34
HETATM   34  C13 UNL     1      -9.917  59.633  12.319  1.00  0.00     0.021 A 
HETATM   35  C14 UNL     1      -8.956  60.543  11.956  1.00  0.00     0.104 A 
HETATM   36  N9  UNL     1      -7.688  60.353  12.332  1.00  0.00    -0.361 N 
HETATM   37  C15 UNL     1      -7.300  59.296  13.062  1.00  0.00     0.180 A 
ATOM     38  H9  UNL     1      -6.986  61.040  12.053  1.00  0.00     0.166 HD
HETATM   39  N10 UNL     1      -8.216  58.390  13.432  1.00  0.00    -0.361 N 
HETATM   40  C16 UNL     1      -9.526  58.561  13.058  1.00  0.00     0.104 A 
ATOM     41  H10 UNL     1      -7.942  57.579  13.987  1.00  0.00     0.166 HD
ENDBRANCH   9  34
BRANCH   1  42
HETATM   42  N1  UNL     1     -15.261  57.856   8.055  1.00  0.00    -0.222 N 
ATOM     43  H1  UNL     1     -14.534  57.519   7.424  1.00  0.00     0.178 HD
BRANCH  42  44
HETATM   44  C2  UNL     1     -16.576  57.436   7.745  1.00  0.00     0.091 C 
HETATM   45  C1  UNL     1     -17.004  57.766   6.329  1.00  0.00     0.032 C 
HETATM   46  C3  UNL     1     -16.876  55.998   8.093  1.00  0.00     0.032 C 
ENDBRANCH  42  44
ENDBRANCH   1  42
TORSDOF 9
ENDMDL
MODEL 4
REMARK VINA RESULT: -8.368298683      2.777      5.950
REMARK  9 active torsions:
REMARK  status: ('A' for Active; 'I' for Inactive)
REMARK    1  A    between atoms: C2_2  and  N1_4 
REMARK    2  A    between atoms: N1_4  and  C4_6 
REMARK    3  A    between atoms: C7_12  and  N3_13 
REMARK    4  A    between atoms: N3_13  and  C8_15 
REMARK    5  A    between atoms: C8_15  and  C9_16 
REMARK    6  A    between atoms: C8_15  and  C10_25 
REMARK    7  A    between atoms: C10_25  and  N8_26 
REMARK    8  A    between atoms: C10_25  and  O2_30 
REMARK    9  A    between atoms: C12_33  and  C13_34 
ROOT
HETATM    1  C4  UNL     1     -16.392  57.401  10.486  1.00  0.00     0.682 A 
HETATM    2  N2  UNL     1     -16.687  58.681  10.251  1.00  0.00    -0.155 N 
ATOM      3  H2  UNL     1     -17.588  58.899   9.826  1.00  0.00     0.187 HD
HETATM    4  C5  UNL     1     -15.843  59.720  10.550  1.00  0.00     0.276 A 
HETATM    5  O1  UNL     1     -16.269  60.869  10.271  1.00  0.00    -0.267 OA
HETATM    6  C6  UNL     1     -14.615  59.481  11.122  1.00  0.00     0.104 A 
HETATM    7  C7  UNL     1     -13.720  60.484  11.468  1.00  0.00     0.054 A 
HETATM    8  C11 UNL     1     -12.547  60.070  12.058  1.00  0.00     0.061 A 
HETATM    9  C12 UNL     1     -12.220  58.741  12.317  1.00  0.00     0.049 A 
HETATM   10  N11 UNL     1     -13.140  57.832  11.949  1.00  0.00    -0.340 N 
ATOM     11  H11 UNL     1     -12.934  56.849  12.123  1.00  0.00     0.167 HD
HETATM   12  C17 UNL     1     -14.312  58.135  11.368  1.00  0.00     0.139 A 
HETATM   13  N12 UNL     1     -15.192  57.165  11.048  1.00  0.00    -0.175 N 
ATOM     14  H12 UNL     1     -14.934  56.198  11.242  1.00  0.00     0.186 HD
ENDROOT
BRANCH   7  15
HETATM   15  N3  UNL     1     -13.970  61.822  11.142  1.00  0.00    -0.352 N 
ATOM     16  H3  UNL     1     -14.300  61.958  10.187  1.00  0.00     0.166 HD
BRANCH  15  17
HETATM   17  C8  UNL     1     -13.851  63.024  11.883  1.00  0.00     0.113 C 
BRANCH  17  18
HETATM   18  C9  UNL     1     -12.813  63.986  11.474  1.00  0.00     0.164 A 
HETATM   19  N4  UNL     1     -12.545  64.590  10.313  1.00  0.00    -0.267 N 
HETATM   20  N5  UNL     1     -11.511  65.383  10.451  1.00  0.00    -0.227 N 
ATOM     21  H4  UNL     1     -13.067  64.454   9.447  1.00  0.00     0.190 HD
HETATM   22  N6  UNL     1     -11.078  65.328  11.674  1.00  0.00    -0.227 N 
ATOM     23  H5  UNL     1     -11.107  65.958   9.710  1.00  0.00     0.210 HD
HETATM   24  N7  UNL     1     -11.852  64.483  12.326  1.00  0.00    -0.267 N 
ATOM     25  H6  UNL     1     -10.287  65.843  12.060  1.00  0.00     0.210 HD
ATOM     26  H7  UNL     1     -11.755  64.236  13.311  1.00  0.00     0.190 HD
ENDBRANCH  17  18
BRANCH  17  27
HETATM   27  C10 UNL     1     -15.068  63.645  12.454  1.00  0.00     0.371 C 
BRANCH  27  28
HETATM   28  N8  UNL     1     -16.339  63.143  12.081  1.00  0.00    -0.047 N 
ATOM     29  H83 UNL     1     -16.313  62.885  11.094  1.00  0.00     0.277 HD
ATOM     30  H82 UNL     1     -16.474  62.233  12.521  1.00  0.00     0.277 HD
ATOM     31  H81 UNL     1     -17.168  63.715  12.248  1.00  0.00     0.277 HD
ENDBRANCH  27  28
BRANCH  27  32
HETATM   32  O2  UNL     1     -14.972  65.035  12.229  1.00  0.00    -0.365 OA
ATOM     33  H2  UNL     1     -14.207  65.344  12.701  1.00  0.00     0.212 HD
ENDBRANCH  27  32
ENDBRANCH  17  27
ENDBRANCH  15  17
ENDBRANCH   7  15
BRANCH   9  34
HETATM   34  C13 UNL     1     -10.973  58.348  12.943  1.00  0.00     0.021 A 
HETATM   35  C14 UNL     1     -10.921  57.205  13.701  1.00  0.00     0.104 A 
HETATM   36  N9  UNL     1      -9.771  56.844  14.278  1.00  0.00    -0.361 N 
HETATM   37  C15 UNL     1      -8.642  57.558  14.149  1.00  0.00     0.180 A 
ATOM     38  H9  UNL     1      -9.750  55.992  14.838  1.00  0.00     0.166 HD
HETATM   39  N10 UNL     1      -8.661  58.680  13.415  1.00  0.00    -0.361 N 
HETATM   40  C16 UNL     1      -9.830  59.073  12.812  1.00  0.00     0.104 A 
ATOM     41  H10 UNL     1      -7.813  59.237  13.304  1.00  0.00     0.166 HD
ENDBRANCH   9  34
BRANCH   1  42
HETATM   42  N1  UNL     1     -17.196  56.439  10.200  1.00  0.00    -0.222 N 
ATOM     43  H1  UNL     1     -17.897  56.229  10.910  1.00  0.00     0.178 HD
BRANCH  42  44
HETATM   44  C2  UNL     1     -17.246  55.631   9.040  1.00  0.00     0.091 C 
HETATM   45  C1  UNL     1     -16.780  56.338   7.782  1.00  0.00     0.032 C 
HETATM   46  C3  UNL     1     -16.597  54.276   9.187  1.00  0.00     0.032 C 
ENDBRANCH  42  44
ENDBRANCH   1  42
TORSDOF 9
ENDMDL
MODEL 5
REMARK VINA RESULT: -8.312656601      1.492      1.925
REMARK  9 active torsions:
REMARK  status: ('A' for Active; 'I' for Inactive)
REMARK    1  A    between atoms: C2_2  and  N1_4 
REMARK    2  A    between atoms: N1_4  and  C4_6 
REMARK    3  A    between atoms: C7_12  and  N3_13 
REMARK    4  A    between atoms: N3_13  and  C8_15 
REMARK    5  A    between atoms: C8_15  and  C9_16 
REMARK    6  A    between atoms: C8_15  and  C10_25 
REMARK    7  A    between atoms: C10_25  and  N8_26 
REMARK    8  A    between atoms: C10_25  and  O2_30 
REMARK    9  A    between atoms: C12_33  and  C13_34 
ROOT
HETATM    1  C4  UNL     1     -16.057  59.452   9.388  1.00  0.00     0.682 A 
HETATM    2  N2  UNL     1     -14.815  58.996   9.566  1.00  0.00    -0.155 N 
ATOM      3  H2  UNL     1     -14.544  58.136   9.090  1.00  0.00     0.187 HD
HETATM    4  C5  UNL     1     -13.884  59.623  10.354  1.00  0.00     0.276 A 
HETATM    5  O1  UNL     1     -12.757  59.071  10.414  1.00  0.00    -0.267 OA
HETATM    6  C6  UNL     1     -14.200  60.786  11.018  1.00  0.00     0.104 A 
HETATM    7  C7  UNL     1     -13.302  61.483  11.815  1.00  0.00     0.054 A 
HETATM    8  C11 UNL     1     -13.774  62.644  12.384  1.00  0.00     0.061 A 
HETATM    9  C12 UNL     1     -15.064  63.141  12.209  1.00  0.00     0.049 A 
HETATM   10  N11 UNL     1     -15.870  62.405  11.425  1.00  0.00    -0.340 N 
ATOM     11  H11 UNL     1     -16.823  62.738  11.274  1.00  0.00     0.167 HD
HETATM   12  C17 UNL     1     -15.504  61.260  10.826  1.00  0.00     0.139 A 
HETATM   13  N12 UNL     1     -16.367  60.590  10.035  1.00  0.00    -0.175 N 
ATOM     14  H12 UNL     1     -17.308  60.967   9.922  1.00  0.00     0.186 HD
ENDROOT
BRANCH   7  15
HETATM   15  N3  UNL     1     -12.029  60.971  12.091  1.00  0.00    -0.352 N 
ATOM     16  H3  UNL     1     -11.449  60.843  11.262  1.00  0.00     0.166 HD
BRANCH  15  17
HETATM   17  C8  UNL     1     -11.390  60.598  13.299  1.00  0.00     0.113 C 
BRANCH  17  18
HETATM   18  C9  UNL     1     -11.203  59.161  13.564  1.00  0.00     0.164 A 
HETATM   19  N4  UNL     1     -11.384  58.410  14.655  1.00  0.00    -0.267 N 
HETATM   20  N5  UNL     1     -11.090  57.160  14.389  1.00  0.00    -0.227 N 
ATOM     21  H4  UNL     1     -11.703  58.758  15.560  1.00  0.00     0.190 HD
HETATM   22  N6  UNL     1     -10.718  57.053  13.150  1.00  0.00    -0.227 N 
ATOM     23  H5  UNL     1     -11.146  56.389  15.056  1.00  0.00     0.210 HD
HETATM   24  N7  UNL     1     -10.775  58.257  12.617  1.00  0.00    -0.267 N 
ATOM     25  H6  UNL     1     -10.433  56.195  12.677  1.00  0.00     0.210 HD
ATOM     26  H7  UNL     1     -10.540  58.485  11.651  1.00  0.00     0.190 HD
ENDBRANCH  17  18
BRANCH  17  27
HETATM   27  C10 UNL     1     -10.325  61.464  13.853  1.00  0.00     0.371 C 
BRANCH  27  28
HETATM   28  N8  UNL     1      -9.867  62.567  13.091  1.00  0.00    -0.047 N 
ATOM     29  H83 UNL     1      -9.144  62.244  12.447  1.00  0.00     0.277 HD
ATOM     30  H82 UNL     1     -10.603  62.845  12.441  1.00  0.00     0.277 HD
ATOM     31  H81 UNL     1      -9.526  63.399  13.574  1.00  0.00     0.277 HD
ENDBRANCH  27  28
BRANCH  27  32
HETATM   32  O2  UNL     1      -9.259  60.621  14.237  1.00  0.00    -0.365 OA
ATOM     33  H2  UNL     1      -9.636  59.780  14.468  1.00  0.00     0.212 HD
ENDBRANCH  27  32
ENDBRANCH  17  27
ENDBRANCH  15  17
ENDBRANCH   7  15
BRANCH   9  34
HETATM   34  C13 UNL     1     -15.521  64.370  12.826  1.00  0.00     0.021 A 
HETATM   35  C14 UNL     1     -16.661  64.367  13.591  1.00  0.00     0.104 A 
HETATM   36  N9  UNL     1     -17.082  65.501  14.159  1.00  0.00    -0.361 N 
HETATM   37  C15 UNL     1     -16.432  66.665  14.016  1.00  0.00     0.180 A 
ATOM     38  H9  UNL     1     -17.931  65.480  14.724  1.00  0.00     0.166 HD
HETATM   39  N10 UNL     1     -15.315  66.702  13.274  1.00  0.00    -0.361 N 
HETATM   40  C16 UNL     1     -14.862  65.550  12.679  1.00  0.00     0.104 A 
ATOM     41  H10 UNL     1     -14.806  67.577  13.153  1.00  0.00     0.166 HD
ENDBRANCH   9  34
BRANCH   1  42
HETATM   42  N1  UNL     1     -16.918  58.851   8.645  1.00  0.00    -0.222 N 
ATOM     43  H1  UNL     1     -17.687  58.402   9.142  1.00  0.00     0.178 HD
BRANCH  42  44
HETATM   44  C2  UNL     1     -16.950  58.724   7.236  1.00  0.00     0.091 C 
HETATM   45  C1  UNL     1     -16.798  57.297   6.748  1.00  0.00     0.032 C 
HETATM   46  C3  UNL     1     -18.113  59.417   6.568  1.00  0.00     0.032 C 
ENDBRANCH  42  44
ENDBRANCH   1  42
TORSDOF 9
ENDMDL
