MODEL 1
REMARK VINA RESULT: -7.812430376      0.000      0.000
REMARK  9 active torsions:
REMARK  status: ('A' for Active; 'I' for Inactive)
REMARK    1  A    between atoms: C3_6  and  C4_7 
REMARK    2  A    between atoms: C6_11  and  N4_12 
REMARK    3  A    between atoms: C7_15  and  C8_16 
REMARK    4  A    between atoms: C8_16  and  C9_17 
REMARK    5  A    between atoms: C8_16  and  C14_28 
REMARK       I    between atoms: C9_17  and  N5_19 
REMARK    6  A    between atoms: N5_19  and  N6_21 
REMARK    7  A    between atoms: C14_28  and  O3_33 
REMARK    8  A    between atoms: N8_29  and  O2_31 
REMARK    9  A    between atoms: O3_33  and  N9_34 
ROOT
HETATM    1  C1  UNL     1     -12.062  57.893  13.742  1.00  0.00     0.231 C 
HETATM    2  N1  UNL     1     -12.671  58.876  13.647  1.00  0.00    -0.410 NA
HETATM    3  C2  UNL     1     -13.399  60.069  13.558  1.00  0.00     0.189 A 
HETATM    4  N2  UNL     1     -13.562  60.861  14.618  1.00  0.00    -0.320 N 
ATOM      5  H2  UNL     1     -13.147  60.589  15.509  1.00  0.00     0.169 HD
HETATM    6  C3  UNL     1     -14.262  62.013  14.546  1.00  0.00     0.084 A 
HETATM    7  N3  UNL     1     -14.817  62.392  13.385  1.00  0.00    -0.332 N 
ATOM      8  H3  UNL     1     -15.343  63.266  13.346  1.00  0.00     0.168 HD
HETATM    9  C6  UNL     1     -14.696  61.635  12.248  1.00  0.00     0.112 A 
HETATM   10  C7  UNL     1     -13.985  60.474  12.350  1.00  0.00     0.065 A 
ENDROOT
BRANCH  10  11
HETATM   11  C8  UNL     1     -13.759  59.601  11.172  1.00  0.00     0.199 C 
BRANCH  11  12
HETATM   12  C9  UNL     1     -14.966  59.060  10.557  1.00  0.00     0.253 C 
HETATM   13  O1  UNL     1     -15.864  58.543  11.266  1.00  0.00    -0.271 OA
HETATM   14  N5  UNL     1     -15.195  59.079   9.168  1.00  0.00    -0.262 N 
ATOM     15  H5  UNL     1     -14.481  59.490   8.567  1.00  0.00     0.190 HD
BRANCH  14  16
HETATM   16  N6  UNL     1     -16.336  58.571   8.576  1.00  0.00    -0.265 N 
HETATM   17  C10 UNL     1     -17.335  59.482   8.230  1.00  0.00     0.092 C 
HETATM   18  C11 UNL     1     -17.856  59.446   6.834  1.00  0.00     0.066 C 
HETATM   19  C12 UNL     1     -17.347  58.317   5.993  1.00  0.00     0.125 C 
HETATM   20  N7  UNL     1     -16.993  57.154   6.729  1.00  0.00    -0.384 N 
HETATM   21  C13 UNL     1     -16.231  57.355   7.910  1.00  0.00     0.201 C 
ATOM     22  H7  UNL     1     -17.273  56.222   6.425  1.00  0.00     0.160 HD
ENDBRANCH  14  16
ENDBRANCH  11  12
BRANCH  11  23
HETATM   23  C14 UNL     1     -12.836  60.306  10.205  1.00  0.00     0.177 C 
HETATM   24  N8  UNL     1     -12.434  59.688   9.134  1.00  0.00    -0.248 N 
ATOM     25  H8  UNL     1     -12.740  58.733   8.948  1.00  0.00     0.196 HD
BRANCH  24  26
HETATM   26  O2  UNL     1     -11.600  60.326   8.261  1.00  0.00    -0.288 OA
ATOM     27  H2  UNL     1     -11.454  59.957   7.398  1.00  0.00     0.244 HD
ENDBRANCH  24  26
BRANCH  23  28
HETATM   28  O3  UNL     1     -12.381  61.595  10.387  1.00  0.00    -0.245 OA
BRANCH  28  29
HETATM   29  N9  UNL     1     -11.092  61.868  10.784  1.00  0.00    -0.185 NA
HETATM   30  C15 UNL     1     -11.002  63.142  11.466  1.00  0.00     0.147 C 
HETATM   31  C16 UNL     1     -11.235  63.071  12.939  1.00  0.00     0.184 C 
HETATM   32  O4  UNL     1     -10.585  62.042  13.574  1.00  0.00    -0.389 OA
HETATM   33  C17 UNL     1      -9.730  61.330  12.726  1.00  0.00     0.184 C 
HETATM   34  C18 UNL     1     -10.501  60.793  11.528  1.00  0.00     0.147 C 
ENDBRANCH  28  29
ENDBRANCH  23  28
ENDBRANCH  11  23
ENDBRANCH  10  11
BRANCH   6  35
HETATM   35  C4  UNL     1     -14.423  62.866  15.751  1.00  0.00     0.072 C 
HETATM   36  C5  UNL     1     -15.859  62.845  16.208  1.00  0.00     0.013 C 
ENDBRANCH   6  35
BRANCH   9  37
HETATM   37  N4  UNL     1     -15.216  62.060  11.145  1.00  0.00    -0.385 N 
ATOM     38  H42 UNL     1     -16.169  62.415  11.070  1.00  0.00     0.157 HD
ATOM     39  H41 UNL     1     -14.669  62.019  10.286  1.00  0.00     0.157 HD
ENDBRANCH   9  37
TORSDOF 9
ENDMDL
MODEL 2
REMARK VINA RESULT: -7.781283695      2.458      6.407
REMARK  9 active torsions:
REMARK  status: ('A' for Active; 'I' for Inactive)
REMARK    1  A    between atoms: C3_6  and  C4_7 
REMARK    2  A    between atoms: C6_11  and  N4_12 
REMARK    3  A    between atoms: C7_15  and  C8_16 
REMARK    4  A    between atoms: C8_16  and  C9_17 
REMARK    5  A    between atoms: C8_16  and  C14_28 
REMARK       I    between atoms: C9_17  and  N5_19 
REMARK    6  A    between atoms: N5_19  and  N6_21 
REMARK    7  A    between atoms: C14_28  and  O3_33 
REMARK    8  A    between atoms: N8_29  and  O2_31 
REMARK    9  A    between atoms: O3_33  and  N9_34 
ROOT
HETATM    1  C1  UNL     1     -10.487  57.613  13.230  1.00  0.00     0.231 C 
HETATM    2  N1  UNL     1     -10.012  58.635  12.954  1.00  0.00    -0.410 NA
HETATM    3  C2  UNL     1      -9.414  59.859  12.630  1.00  0.00     0.189 A 
HETATM    4  N2  UNL     1      -8.119  60.079  12.860  1.00  0.00    -0.320 N 
ATOM      5  H2  UNL     1      -7.557  59.340  13.281  1.00  0.00     0.169 HD
HETATM    6  C3  UNL     1      -7.531  61.255  12.552  1.00  0.00     0.084 A 
HETATM    7  N3  UNL     1      -8.249  62.243  11.997  1.00  0.00    -0.332 N 
ATOM      8  H3  UNL     1      -7.790  63.125  11.769  1.00  0.00     0.168 HD
HETATM    9  C6  UNL     1      -9.586  62.097  11.727  1.00  0.00     0.112 A 
HETATM   10  C7  UNL     1     -10.156  60.899  12.050  1.00  0.00     0.065 A 
ENDROOT
BRANCH  10  11
HETATM   11  C8  UNL     1     -11.585  60.622  11.764  1.00  0.00     0.199 C 
BRANCH  11  12
HETATM   12  C9  UNL     1     -12.500  61.724  12.042  1.00  0.00     0.253 C 
HETATM   13  O1  UNL     1     -13.034  62.360  11.102  1.00  0.00    -0.271 OA
HETATM   14  N5  UNL     1     -12.833  62.134  13.347  1.00  0.00    -0.262 N 
ATOM     15  H5  UNL     1     -12.411  61.637  14.132  1.00  0.00     0.190 HD
BRANCH  14  16
HETATM   16  N6  UNL     1     -13.700  63.175  13.622  1.00  0.00    -0.265 N 
HETATM   17  C10 UNL     1     -15.002  62.838  13.996  1.00  0.00     0.092 C 
HETATM   18  C11 UNL     1     -15.543  63.440  15.249  1.00  0.00     0.066 C 
HETATM   19  C12 UNL     1     -14.668  64.473  15.888  1.00  0.00     0.125 C 
HETATM   20  N7  UNL     1     -13.829  65.173  14.980  1.00  0.00    -0.384 N 
HETATM   21  C13 UNL     1     -13.148  64.390  14.010  1.00  0.00     0.201 C 
ATOM     22  H7  UNL     1     -13.722  66.186  15.022  1.00  0.00     0.160 HD
ENDBRANCH  14  16
ENDBRANCH  11  12
BRANCH  11  23
HETATM   23  C14 UNL     1     -11.707  60.053  10.370  1.00  0.00     0.177 C 
HETATM   24  N8  UNL     1     -11.496  60.821   9.342  1.00  0.00    -0.248 N 
ATOM     25  H8  UNL     1     -11.249  61.802   9.476  1.00  0.00     0.196 HD
BRANCH  24  26
HETATM   26  O2  UNL     1     -11.607  60.306   8.082  1.00  0.00    -0.288 OA
ATOM     27  H2  UNL     1     -11.057  59.576   7.824  1.00  0.00     0.244 HD
ENDBRANCH  24  26
BRANCH  23  28
HETATM   28  O3  UNL     1     -12.036  58.740  10.108  1.00  0.00    -0.245 OA
BRANCH  28  29
HETATM   29  N9  UNL     1     -13.341  58.311  10.036  1.00  0.00    -0.185 NA
HETATM   30  C15 UNL     1     -13.675  57.430  11.134  1.00  0.00     0.147 C 
HETATM   31  C16 UNL     1     -14.177  58.129  12.355  1.00  0.00     0.184 C 
HETATM   32  O4  UNL     1     -15.106  59.110  12.113  1.00  0.00    -0.389 OA
HETATM   33  C17 UNL     1     -15.491  59.179  10.769  1.00  0.00     0.184 C 
HETATM   34  C18 UNL     1     -14.273  59.391   9.881  1.00  0.00     0.147 C 
ENDBRANCH  28  29
ENDBRANCH  23  28
ENDBRANCH  11  23
ENDBRANCH  10  11
BRANCH   6  35
HETATM   35  C4  UNL     1      -6.086  61.461  12.827  1.00  0.00     0.072 C 
HETATM   36  C5  UNL     1      -5.628  62.762  12.218  1.00  0.00     0.013 C 
ENDBRANCH   6  35
BRANCH   9  37
HETATM   37  N4  UNL     1     -10.226  63.063  11.157  1.00  0.00    -0.385 N 
ATOM     38  H42 UNL     1      -9.986  64.047  11.275  1.00  0.00     0.157 HD
ATOM     39  H41 UNL     1     -11.038  62.851  10.578  1.00  0.00     0.157 HD
ENDBRANCH   9  37
TORSDOF 9
ENDMDL
MODEL 3
REMARK VINA RESULT: -7.775904425      2.596      6.540
REMARK  9 active torsions:
REMARK  status: ('A' for Active; 'I' for Inactive)
REMARK    1  A    between atoms: C3_6  and  C4_7 
REMARK    2  A    between atoms: C6_11  and  N4_12 
REMARK    3  A    between atoms: C7_15  and  C8_16 
REMARK    4  A    between atoms: C8_16  and  C9_17 
REMARK    5  A    between atoms: C8_16  and  C14_28 
REMARK       I    between atoms: C9_17  and  N5_19 
REMARK    6  A    between atoms: N5_19  and  N6_21 
REMARK    7  A    between atoms: C14_28  and  O3_33 
REMARK    8  A    between atoms: N8_29  and  O2_31 
REMARK    9  A    between atoms: O3_33  and  N9_34 
ROOT
HETATM    1  C1  UNL     1     -10.626  58.068  13.299  1.00  0.00     0.231 C 
HETATM    2  N1  UNL     1     -10.041  59.027  13.009  1.00  0.00    -0.410 NA
HETATM    3  C2  UNL     1      -9.310  60.172  12.667  1.00  0.00     0.189 A 
HETATM    4  N2  UNL     1      -7.993  60.237  12.865  1.00  0.00    -0.320 N 
ATOM      5  H2  UNL     1      -7.512  59.436  13.274  1.00  0.00     0.169 HD
HETATM    6  C3  UNL     1      -7.277  61.335  12.540  1.00  0.00     0.084 A 
HETATM    7  N3  UNL     1      -7.887  62.401  11.999  1.00  0.00    -0.332 N 
ATOM      8  H3  UNL     1      -7.332  63.222  11.758  1.00  0.00     0.168 HD
HETATM    9  C6  UNL     1      -9.238  62.415  11.763  1.00  0.00     0.112 A 
HETATM   10  C7  UNL     1      -9.937  61.292  12.103  1.00  0.00     0.065 A 
ENDROOT
BRANCH  10  11
HETATM   11  C8  UNL     1     -11.396  61.186  11.852  1.00  0.00     0.199 C 
BRANCH  11  12
HETATM   12  C9  UNL     1     -12.149  62.423  12.031  1.00  0.00     0.253 C 
HETATM   13  O1  UNL     1     -12.543  63.077  11.036  1.00  0.00    -0.271 OA
HETATM   14  N5  UNL     1     -12.472  62.948  13.297  1.00  0.00    -0.262 N 
ATOM     15  H5  UNL     1     -12.162  62.439  14.124  1.00  0.00     0.190 HD
BRANCH  14  16
HETATM   16  N6  UNL     1     -13.187  64.117  13.478  1.00  0.00    -0.265 N 
HETATM   17  C10 UNL     1     -12.455  65.288  13.682  1.00  0.00     0.092 C 
HETATM   18  C11 UNL     1     -12.766  66.462  12.818  1.00  0.00     0.066 C 
HETATM   19  C12 UNL     1     -13.953  66.296  11.921  1.00  0.00     0.125 C 
HETATM   20  N7  UNL     1     -14.940  65.403  12.417  1.00  0.00    -0.384 N 
HETATM   21  C13 UNL     1     -14.474  64.174  12.956  1.00  0.00     0.201 C 
ATOM     22  H7  UNL     1     -15.933  65.633  12.388  1.00  0.00     0.160 HD
ENDBRANCH  14  16
ENDBRANCH  11  12
BRANCH  11  23
HETATM   23  C14 UNL     1     -11.619  60.513  10.519  1.00  0.00     0.177 C 
HETATM   24  N8  UNL     1     -11.175  61.076   9.433  1.00  0.00    -0.248 N 
ATOM     25  H8  UNL     1     -10.679  61.965   9.482  1.00  0.00     0.196 HD
BRANCH  24  26
HETATM   26  O2  UNL     1     -11.378  60.467   8.228  1.00  0.00    -0.288 OA
ATOM     27  H2  UNL     1     -12.209  60.577   7.780  1.00  0.00     0.244 HD
ENDBRANCH  24  26
BRANCH  23  28
HETATM   28  O3  UNL     1     -12.278  59.312  10.371  1.00  0.00    -0.245 OA
BRANCH  28  29
HETATM   29  N9  UNL     1     -13.497  59.216   9.738  1.00  0.00    -0.185 NA
HETATM   30  C15 UNL     1     -14.062  57.890   9.865  1.00  0.00     0.147 C 
HETATM   31  C16 UNL     1     -14.899  57.690  11.085  1.00  0.00     0.184 C 
HETATM   32  O4  UNL     1     -15.780  58.709  11.350  1.00  0.00    -0.389 OA
HETATM   33  C17 UNL     1     -15.804  59.685  10.347  1.00  0.00     0.184 C 
HETATM   34  C18 UNL     1     -14.408  60.253  10.130  1.00  0.00     0.147 C 
ENDBRANCH  28  29
ENDBRANCH  23  28
ENDBRANCH  11  23
ENDBRANCH  10  11
BRANCH   6  35
HETATM   35  C4  UNL     1      -5.812  61.369  12.778  1.00  0.00     0.072 C 
HETATM   36  C5  UNL     1      -5.256  62.709  12.371  1.00  0.00     0.013 C 
ENDBRANCH   6  35
BRANCH   9  37
HETATM   37  N4  UNL     1      -9.773  63.449  11.206  1.00  0.00    -0.385 N 
ATOM     38  H42 UNL     1      -9.235  64.192  10.759  1.00  0.00     0.157 HD
ATOM     39  H41 UNL     1     -10.786  63.563  11.230  1.00  0.00     0.157 HD
ENDBRANCH   9  37
TORSDOF 9
ENDMDL
MODEL 4
REMARK VINA RESULT: -7.753165827      1.554      1.652
REMARK  9 active torsions:
REMARK  status: ('A' for Active; 'I' for Inactive)
REMARK    1  A    between atoms: C3_6  and  C4_7 
REMARK    2  A    between atoms: C6_11  and  N4_12 
REMARK    3  A    between atoms: C7_15  and  C8_16 
REMARK    4  A    between atoms: C8_16  and  C9_17 
REMARK    5  A    between atoms: C8_16  and  C14_28 
REMARK       I    between atoms: C9_17  and  N5_19 
REMARK    6  A    between atoms: N5_19  and  N6_21 
REMARK    7  A    between atoms: C14_28  and  O3_33 
REMARK    8  A    between atoms: N8_29  and  O2_31 
REMARK    9  A    between atoms: O3_33  and  N9_34 
ROOT
HETATM    1  C1  UNL     1     -12.717  58.994  14.473  1.00  0.00     0.231 C 
HETATM    2  N1  UNL     1     -13.254  59.839  13.886  1.00  0.00    -0.410 NA
HETATM    3  C2  UNL     1     -13.903  60.874  13.201  1.00  0.00     0.189 A 
HETATM    4  N2  UNL     1     -14.348  61.955  13.842  1.00  0.00    -0.320 N 
ATOM      5  H2  UNL     1     -14.211  62.026  14.851  1.00  0.00     0.169 HD
HETATM    6  C3  UNL     1     -14.975  62.959  13.194  1.00  0.00     0.084 A 
HETATM    7  N3  UNL     1     -15.167  62.889  11.868  1.00  0.00    -0.332 N 
ATOM      8  H3  UNL     1     -15.642  63.657  11.393  1.00  0.00     0.168 HD
HETATM    9  C6  UNL     1     -14.740  61.812  11.135  1.00  0.00     0.112 A 
HETATM   10  C7  UNL     1     -14.110  60.810  11.816  1.00  0.00     0.065 A 
ENDROOT
BRANCH  10  11
HETATM   11  C8  UNL     1     -13.573  59.619  11.114  1.00  0.00     0.199 C 
BRANCH  11  12
HETATM   12  C9  UNL     1     -14.487  58.990  10.166  1.00  0.00     0.253 C 
HETATM   13  O1  UNL     1     -14.121  58.755   8.989  1.00  0.00    -0.271 OA
HETATM   14  N5  UNL     1     -15.803  58.619  10.500  1.00  0.00    -0.262 N 
ATOM     15  H5  UNL     1     -16.130  58.801  11.450  1.00  0.00     0.190 HD
BRANCH  14  16
HETATM   16  N6  UNL     1     -16.677  58.022   9.612  1.00  0.00    -0.265 N 
HETATM   17  C10 UNL     1     -17.278  58.844   8.657  1.00  0.00     0.092 C 
HETATM   18  C11 UNL     1     -17.188  58.431   7.228  1.00  0.00     0.066 C 
HETATM   19  C12 UNL     1     -16.587  57.080   6.992  1.00  0.00     0.125 C 
HETATM   20  N7  UNL     1     -16.767  56.165   8.064  1.00  0.00    -0.384 N 
HETATM   21  C13 UNL     1     -16.524  56.661   9.372  1.00  0.00     0.201 C 
ATOM     22  H7  UNL     1     -17.057  55.201   7.902  1.00  0.00     0.160 HD
ENDBRANCH  14  16
ENDBRANCH  11  12
BRANCH  11  23
HETATM   23  C14 UNL     1     -12.219  59.956  10.536  1.00  0.00     0.177 C 
HETATM   24  N8  UNL     1     -12.129  60.363   9.304  1.00  0.00    -0.248 N 
ATOM     25  H8  UNL     1     -12.968  60.455   8.731  1.00  0.00     0.196 HD
BRANCH  24  26
HETATM   26  O2  UNL     1     -10.905  60.667   8.782  1.00  0.00    -0.288 OA
ATOM     27  H2  UNL     1     -10.835  60.928   7.871  1.00  0.00     0.244 HD
ENDBRANCH  24  26
BRANCH  23  28
HETATM   28  O3  UNL     1     -11.040  59.859  11.245  1.00  0.00    -0.245 OA
BRANCH  28  29
HETATM   29  N9  UNL     1     -10.158  60.911  11.348  1.00  0.00    -0.185 NA
HETATM   30  C15 UNL     1     -10.672  61.957  12.206  1.00  0.00     0.147 C 
HETATM   31  C16 UNL     1     -10.339  61.790  13.651  1.00  0.00     0.184 C 
HETATM   32  O4  UNL     1      -9.035  61.440  13.903  1.00  0.00    -0.389 OA
HETATM   33  C17 UNL     1      -8.241  61.429  12.751  1.00  0.00     0.184 C 
HETATM   34  C18 UNL     1      -8.835  60.491  11.709  1.00  0.00     0.147 C 
ENDBRANCH  28  29
ENDBRANCH  23  28
ENDBRANCH  11  23
ENDBRANCH  10  11
BRANCH   6  35
HETATM   35  C4  UNL     1     -15.458  64.147  13.945  1.00  0.00     0.072 C 
HETATM   36  C5  UNL     1     -15.815  65.252  12.984  1.00  0.00     0.013 C 
ENDBRANCH   6  35
BRANCH   9  37
HETATM   37  N4  UNL     1     -14.913  61.808   9.856  1.00  0.00    -0.385 N 
ATOM     38  H42 UNL     1     -15.250  60.998   9.333  1.00  0.00     0.157 HD
ATOM     39  H41 UNL     1     -14.676  62.640   9.316  1.00  0.00     0.157 HD
ENDBRANCH   9  37
TORSDOF 9
ENDMDL
MODEL 5
REMARK VINA RESULT: -7.747387306      1.768      3.794
REMARK  9 active torsions:
REMARK  status: ('A' for Active; 'I' for Inactive)
REMARK    1  A    between atoms: C3_6  and  C4_7 
REMARK    2  A    between atoms: C6_11  and  N4_12 
REMARK    3  A    between atoms: C7_15  and  C8_16 
REMARK    4  A    between atoms: C8_16  and  C9_17 
REMARK    5  A    between atoms: C8_16  and  C14_28 
REMARK       I    between atoms: C9_17  and  N5_19 
REMARK    6  A    between atoms: N5_19  and  N6_21 
REMARK    7  A    between atoms: C14_28  and  O3_33 
REMARK    8  A    between atoms: N8_29  and  O2_31 
REMARK    9  A    between atoms: O3_33  and  N9_34 
ROOT
HETATM    1  C1  UNL     1     -10.622  61.210   9.865  1.00  0.00     0.231 C 
HETATM    2  N1  UNL     1     -11.066  60.402  10.570  1.00  0.00    -0.410 NA
HETATM    3  C2  UNL     1     -11.577  59.423  11.432  1.00  0.00     0.189 A 
HETATM    4  N2  UNL     1     -10.777  58.726  12.239  1.00  0.00    -0.320 N 
ATOM      5  H2  UNL     1      -9.774  58.912  12.225  1.00  0.00     0.169 HD
HETATM    6  C3  UNL     1     -11.257  57.780  13.074  1.00  0.00     0.084 A 
HETATM    7  N3  UNL     1     -12.573  57.518  13.110  1.00  0.00    -0.332 N 
ATOM      8  H3  UNL     1     -12.920  56.800  13.747  1.00  0.00     0.168 HD
HETATM    9  C6  UNL     1     -13.463  58.190  12.312  1.00  0.00     0.112 A 
HETATM   10  C7  UNL     1     -12.950  59.140  11.477  1.00  0.00     0.065 A 
ENDROOT
BRANCH  10  11
HETATM   11  C8  UNL     1     -13.829  59.954  10.602  1.00  0.00     0.199 C 
BRANCH  11  12
HETATM   12  C9  UNL     1     -14.706  59.192   9.719  1.00  0.00     0.253 C 
HETATM   13  O1  UNL     1     -14.228  58.511   8.780  1.00  0.00    -0.271 OA
HETATM   14  N5  UNL     1     -16.107  59.174   9.858  1.00  0.00    -0.262 N 
ATOM     15  H5  UNL     1     -16.525  59.721  10.611  1.00  0.00     0.190 HD
BRANCH  14  16
HETATM   16  N6  UNL     1     -16.947  58.455   9.029  1.00  0.00    -0.265 N 
HETATM   17  C10 UNL     1     -17.503  59.132   7.942  1.00  0.00     0.092 C 
HETATM   18  C11 UNL     1     -17.358  58.517   6.592  1.00  0.00     0.066 C 
HETATM   19  C12 UNL     1     -16.756  57.146   6.578  1.00  0.00     0.125 C 
HETATM   20  N7  UNL     1     -16.985  56.395   7.762  1.00  0.00    -0.384 N 
HETATM   21  C13 UNL     1     -16.793  57.074   8.994  1.00  0.00     0.201 C 
ATOM     22  H7  UNL     1     -17.273  55.417   7.728  1.00  0.00     0.160 HD
ENDBRANCH  14  16
ENDBRANCH  11  12
BRANCH  11  23
HETATM   23  C14 UNL     1     -14.543  60.986  11.442  1.00  0.00     0.177 C 
HETATM   24  N8  UNL     1     -15.193  61.951  10.860  1.00  0.00    -0.248 N 
ATOM     25  H8  UNL     1     -15.219  62.011   9.842  1.00  0.00     0.196 HD
BRANCH  24  26
HETATM   26  O2  UNL     1     -15.838  62.884  11.621  1.00  0.00    -0.288 OA
ATOM     27  H2  UNL     1     -16.094  62.668  12.510  1.00  0.00     0.244 HD
ENDBRANCH  24  26
BRANCH  23  28
HETATM   28  O3  UNL     1     -14.555  60.973  12.821  1.00  0.00    -0.245 OA
BRANCH  28  29
HETATM   29  N9  UNL     1     -13.867  61.901  13.569  1.00  0.00    -0.185 NA
HETATM   30  C15 UNL     1     -13.567  61.402  14.894  1.00  0.00     0.147 C 
HETATM   31  C16 UNL     1     -12.279  60.654  14.995  1.00  0.00     0.184 C 
HETATM   32  O4  UNL     1     -11.218  61.250  14.360  1.00  0.00    -0.389 OA
HETATM   33  C17 UNL     1     -11.529  62.512  13.843  1.00  0.00     0.184 C 
HETATM   34  C18 UNL     1     -12.712  62.415  12.890  1.00  0.00     0.147 C 
ENDBRANCH  28  29
ENDBRANCH  23  28
ENDBRANCH  11  23
ENDBRANCH  10  11
BRANCH   6  35
HETATM   35  C4  UNL     1     -10.333  57.023  13.956  1.00  0.00     0.072 C 
HETATM   36  C5  UNL     1      -8.986  57.699  13.990  1.00  0.00     0.013 C 
ENDBRANCH   6  35
BRANCH   9  37
HETATM   37  N4  UNL     1     -14.724  57.930  12.411  1.00  0.00    -0.385 N 
ATOM     38  H42 UNL     1     -15.119  57.309  13.117  1.00  0.00     0.157 HD
ATOM     39  H41 UNL     1     -15.372  58.333  11.735  1.00  0.00     0.157 HD
ENDBRANCH   9  37
TORSDOF 9
ENDMDL
