MODEL 1
REMARK VINA RESULT: -7.269712401      0.000      0.000
REMARK  7 active torsions:
REMARK  status: ('A' for Active; 'I' for Inactive)
REMARK       I    between atoms: C1_4  and  N2_5 
REMARK       I    between atoms: C1_4  and  N7_22 
REMARK    1  A    between atoms: N2_5  and  C2_7 
REMARK    2  A    between atoms: C2_7  and  C3_8 
REMARK    3  A    between atoms: C3_8  and  C4_9 
REMARK    4  A    between atoms: C4_9  and  N3_10 
REMARK    5  A    between atoms: N3_10  and  N4_12 
REMARK    6  A    between atoms: N4_12  and  C5_14 
REMARK    7  A    between atoms: N7_22  and  N8_24 
ROOT
HETATM    1  C3  UNL     1      -2.581  -0.615  19.628  1.00  0.00     0.041 C 
ENDROOT
BRANCH   1   2
HETATM    2  C2  UNL     1      -1.329  -1.113  18.951  1.00  0.00     0.139 C 
BRANCH   2   3
HETATM    3  N2  UNL     1      -1.402  -2.492  18.555  1.00  0.00    -0.225 N 
HETATM    4  C1  UNL     1      -0.261  -3.034  17.858  1.00  0.00     0.691 C 
HETATM    5  N1  UNL     1       0.041  -4.255  18.115  1.00  0.00    -0.233 N 
HETATM    6  N7  UNL     1       0.467  -2.217  16.931  1.00  0.00    -0.072 N 
ATOM      7  H12 UNL     1      -0.477  -4.836  18.773  1.00  0.00     0.174 HD
ATOM      8  H11 UNL     1       0.848  -4.638  17.622  1.00  0.00     0.174 HD
ATOM      9  H7  UNL     1       1.404  -1.894  17.174  1.00  0.00     0.212 HD
ATOM     10  H2  UNL     1      -2.223  -3.062  18.757  1.00  0.00     0.177 HD
BRANCH   6  11
HETATM   11  N8  UNL     1      -0.089  -1.853  15.695  1.00  0.00    -0.024 N 
HETATM   12  O1  UNL     1      -0.948  -2.599  15.190  1.00  0.00    -0.516 OA
HETATM   13  O2  UNL     1       0.282  -0.711  15.035  1.00  0.00    -0.516 OA
ENDBRANCH   6  11
ENDBRANCH   2   3
ENDBRANCH   1   2
BRANCH   1  14
HETATM   14  C4  UNL     1      -3.756  -1.391  19.000  1.00  0.00     0.141 C 
BRANCH  14  15
HETATM   15  N3  UNL     1      -4.426  -1.988  20.109  1.00  0.00    -0.322 N 
ATOM     16  H3  UNL     1      -5.437  -1.909  20.220  1.00  0.00     0.180 HD
BRANCH  15  17
HETATM   17  N4  UNL     1      -3.665  -2.669  21.019  1.00  0.00    -0.137 N 
ATOM     18  H4  UNL     1      -2.823  -2.257  21.421  1.00  0.00     0.205 HD
BRANCH  17  19
HETATM   19  C5  UNL     1      -4.097  -3.980  21.383  1.00  0.00     0.688 C 
HETATM   20  N5  UNL     1      -4.752  -4.171  22.506  1.00  0.00    -0.225 N 
HETATM   21  C6  UNL     1      -5.204  -5.463  22.906  1.00  0.00     0.139 C 
ATOM     22  H5  UNL     1      -4.942  -3.371  23.109  1.00  0.00     0.177 HD
HETATM   23  C7  UNL     1      -5.708  -6.240  21.717  1.00  0.00     0.040 C 
HETATM   24  C8  UNL     1      -4.752  -6.282  20.573  1.00  0.00     0.139 C 
HETATM   25  N6  UNL     1      -3.856  -5.130  20.583  1.00  0.00    -0.225 N 
ATOM     26  H6  UNL     1      -3.024  -5.151  19.992  1.00  0.00     0.177 HD
ENDBRANCH  17  19
ENDBRANCH  15  17
ENDBRANCH  14  15
ENDBRANCH   1  14
TORSDOF 7
ENDMDL
MODEL 2
REMARK VINA RESULT: -7.240292890      1.159      1.455
REMARK  7 active torsions:
REMARK  status: ('A' for Active; 'I' for Inactive)
REMARK       I    between atoms: C1_4  and  N2_5 
REMARK       I    between atoms: C1_4  and  N7_22 
REMARK    1  A    between atoms: N2_5  and  C2_7 
REMARK    2  A    between atoms: C2_7  and  C3_8 
REMARK    3  A    between atoms: C3_8  and  C4_9 
REMARK    4  A    between atoms: C4_9  and  N3_10 
REMARK    5  A    between atoms: N3_10  and  N4_12 
REMARK    6  A    between atoms: N4_12  and  C5_14 
REMARK    7  A    between atoms: N7_22  and  N8_24 
ROOT
HETATM    1  C3  UNL     1      -2.383  -0.567  19.741  1.00  0.00     0.041 C 
ENDROOT
BRANCH   1   2
HETATM    2  C2  UNL     1      -1.144  -0.240  18.944  1.00  0.00     0.139 C 
BRANCH   2   3
HETATM    3  N2  UNL     1      -0.070  -1.173  19.148  1.00  0.00    -0.225 N 
HETATM    4  C1  UNL     1       0.778  -1.452  18.015  1.00  0.00     0.691 C 
HETATM    5  N1  UNL     1       2.024  -1.636  18.263  1.00  0.00    -0.233 N 
HETATM    6  N7  UNL     1       0.215  -1.516  16.697  1.00  0.00    -0.072 N 
ATOM      7  H12 UNL     1       2.424  -1.591  19.200  1.00  0.00     0.174 HD
ATOM      8  H11 UNL     1       2.624  -1.833  17.461  1.00  0.00     0.174 HD
ATOM      9  H7  UNL     1       0.419  -0.774  16.028  1.00  0.00     0.212 HD
ATOM     10  H2  UNL     1       0.086  -1.618  20.053  1.00  0.00     0.177 HD
BRANCH   6  11
HETATM   11  N8  UNL     1      -0.613  -2.583  16.315  1.00  0.00    -0.024 N 
HETATM   12  O1  UNL     1      -0.981  -2.651  15.128  1.00  0.00    -0.516 OA
HETATM   13  O2  UNL     1      -1.021  -3.544  17.202  1.00  0.00    -0.516 OA
ENDBRANCH   6  11
ENDBRANCH   2   3
ENDBRANCH   1   2
BRANCH   1  14
HETATM   14  C4  UNL     1      -3.292  -1.400  18.816  1.00  0.00     0.141 C 
BRANCH  14  15
HETATM   15  N3  UNL     1      -3.306  -2.700  19.402  1.00  0.00    -0.322 N 
ATOM     16  H3  UNL     1      -3.120  -3.533  18.843  1.00  0.00     0.180 HD
BRANCH  15  17
HETATM   17  N4  UNL     1      -3.578  -2.791  20.739  1.00  0.00    -0.137 N 
ATOM     18  H4  UNL     1      -3.453  -1.993  21.362  1.00  0.00     0.205 HD
BRANCH  17  19
HETATM   19  C5  UNL     1      -4.046  -4.048  21.228  1.00  0.00     0.688 C 
HETATM   20  N5  UNL     1      -4.674  -4.117  22.380  1.00  0.00    -0.225 N 
HETATM   21  C6  UNL     1      -5.160  -5.351  22.903  1.00  0.00     0.139 C 
ATOM     22  H5  UNL     1      -4.818  -3.261  22.916  1.00  0.00     0.177 HD
HETATM   23  C7  UNL     1      -5.725  -6.208  21.800  1.00  0.00     0.040 C 
HETATM   24  C8  UNL     1      -4.806  -6.385  20.640  1.00  0.00     0.139 C 
HETATM   25  N6  UNL     1      -3.869  -5.272  20.525  1.00  0.00    -0.225 N 
ATOM     26  H6  UNL     1      -3.056  -5.374  19.917  1.00  0.00     0.177 HD
ENDBRANCH  17  19
ENDBRANCH  15  17
ENDBRANCH  14  15
ENDBRANCH   1  14
TORSDOF 7
ENDMDL
MODEL 3
REMARK VINA RESULT: -7.053838286      1.224      1.400
REMARK  7 active torsions:
REMARK  status: ('A' for Active; 'I' for Inactive)
REMARK       I    between atoms: C1_4  and  N2_5 
REMARK       I    between atoms: C1_4  and  N7_22 
REMARK    1  A    between atoms: N2_5  and  C2_7 
REMARK    2  A    between atoms: C2_7  and  C3_8 
REMARK    3  A    between atoms: C3_8  and  C4_9 
REMARK    4  A    between atoms: C4_9  and  N3_10 
REMARK    5  A    between atoms: N3_10  and  N4_12 
REMARK    6  A    between atoms: N4_12  and  C5_14 
REMARK    7  A    between atoms: N7_22  and  N8_24 
ROOT
HETATM    1  C3  UNL     1      -2.439  -0.582  19.623  1.00  0.00     0.041 C 
ENDROOT
BRANCH   1   2
HETATM    2  C2  UNL     1      -1.302  -0.856  18.670  1.00  0.00     0.139 C 
BRANCH   2   3
HETATM    3  N2  UNL     1      -1.466  -2.070  17.918  1.00  0.00    -0.225 N 
HETATM    4  C1  UNL     1      -0.520  -3.129  18.172  1.00  0.00     0.691 C 
HETATM    5  N1  UNL     1      -0.978  -4.328  18.131  1.00  0.00    -0.233 N 
HETATM    6  N7  UNL     1       0.851  -2.815  18.448  1.00  0.00    -0.072 N 
ATOM      7  H12 UNL     1      -1.954  -4.552  17.934  1.00  0.00     0.174 HD
ATOM      8  H11 UNL     1      -0.309  -5.078  18.310  1.00  0.00     0.174 HD
ATOM      9  H7  UNL     1       1.217  -2.946  19.391  1.00  0.00     0.212 HD
ATOM     10  H2  UNL     1      -2.217  -2.177  17.236  1.00  0.00     0.177 HD
BRANCH   6  11
HETATM   11  N8  UNL     1       1.699  -2.328  17.440  1.00  0.00    -0.024 N 
HETATM   12  O1  UNL     1       2.910  -2.605  17.501  1.00  0.00    -0.516 OA
HETATM   13  O2  UNL     1       1.233  -1.565  16.401  1.00  0.00    -0.516 OA
ENDBRANCH   6  11
ENDBRANCH   2   3
ENDBRANCH   1   2
BRANCH   1  14
HETATM   14  C4  UNL     1      -3.710  -1.152  18.963  1.00  0.00     0.141 C 
BRANCH  14  15
HETATM   15  N3  UNL     1      -4.331  -1.926  19.988  1.00  0.00    -0.322 N 
ATOM     16  H3  UNL     1      -5.346  -1.941  20.097  1.00  0.00     0.180 HD
BRANCH  15  17
HETATM   17  N4  UNL     1      -3.519  -2.646  20.820  1.00  0.00    -0.137 N 
ATOM     18  H4  UNL     1      -2.621  -2.278  21.135  1.00  0.00     0.205 HD
BRANCH  17  19
HETATM   19  C5  UNL     1      -3.980  -3.934  21.232  1.00  0.00     0.688 C 
HETATM   20  N5  UNL     1      -4.616  -4.074  22.372  1.00  0.00    -0.225 N 
HETATM   21  C6  UNL     1      -5.095  -5.340  22.819  1.00  0.00     0.139 C 
ATOM     22  H5  UNL     1      -4.771  -3.252  22.956  1.00  0.00     0.177 HD
HETATM   23  C7  UNL     1      -5.645  -6.137  21.664  1.00  0.00     0.040 C 
HETATM   24  C8  UNL     1      -4.715  -6.238  20.503  1.00  0.00     0.139 C 
HETATM   25  N6  UNL     1      -3.787  -5.112  20.461  1.00  0.00    -0.225 N 
ATOM     26  H6  UNL     1      -2.969  -5.173  19.854  1.00  0.00     0.177 HD
ENDBRANCH  17  19
ENDBRANCH  15  17
ENDBRANCH  14  15
ENDBRANCH   1  14
TORSDOF 7
ENDMDL
MODEL 4
REMARK VINA RESULT: -7.029602484      1.103      1.485
REMARK  7 active torsions:
REMARK  status: ('A' for Active; 'I' for Inactive)
REMARK       I    between atoms: C1_4  and  N2_5 
REMARK       I    between atoms: C1_4  and  N7_22 
REMARK    1  A    between atoms: N2_5  and  C2_7 
REMARK    2  A    between atoms: C2_7  and  C3_8 
REMARK    3  A    between atoms: C3_8  and  C4_9 
REMARK    4  A    between atoms: C4_9  and  N3_10 
REMARK    5  A    between atoms: N3_10  and  N4_12 
REMARK    6  A    between atoms: N4_12  and  C5_14 
REMARK    7  A    between atoms: N7_22  and  N8_24 
ROOT
HETATM    1  C3  UNL     1      -2.339  -1.970  18.551  1.00  0.00     0.041 C 
ENDROOT
BRANCH   1   2
HETATM    2  C2  UNL     1      -1.093  -1.178  18.859  1.00  0.00     0.139 C 
BRANCH   2   3
HETATM    3  N2  UNL     1       0.122  -1.904  18.612  1.00  0.00    -0.225 N 
HETATM    4  C1  UNL     1       1.146  -1.229  17.852  1.00  0.00     0.691 C 
HETATM    5  N1  UNL     1       2.361  -1.461  18.195  1.00  0.00    -0.233 N 
HETATM    6  N7  UNL     1       0.780  -0.356  16.775  1.00  0.00    -0.072 N 
ATOM      7  H12 UNL     1       2.622  -2.082  18.961  1.00  0.00     0.174 HD
ATOM      8  H11 UNL     1       3.085  -0.983  17.658  1.00  0.00     0.174 HD
ATOM      9  H7  UNL     1       0.902   0.651  16.881  1.00  0.00     0.212 HD
ATOM     10  H2  UNL     1       0.255  -2.855  18.959  1.00  0.00     0.177 HD
BRANCH   6  11
HETATM   11  N8  UNL     1       0.256  -0.866  15.577  1.00  0.00    -0.024 N 
HETATM   12  O1  UNL     1       0.317  -0.158  14.556  1.00  0.00    -0.516 OA
HETATM   13  O2  UNL     1      -0.315  -2.109  15.501  1.00  0.00    -0.516 OA
ENDBRANCH   6  11
ENDBRANCH   2   3
ENDBRANCH   1   2
BRANCH   1  14
HETATM   14  C4  UNL     1      -3.528  -1.127  19.055  1.00  0.00     0.141 C 
BRANCH  14  15
HETATM   15  N3  UNL     1      -4.273  -2.017  19.884  1.00  0.00    -0.322 N 
ATOM     16  H3  UNL     1      -5.261  -2.202  19.707  1.00  0.00     0.180 HD
BRANCH  15  17
HETATM   17  N4  UNL     1      -3.617  -2.615  20.925  1.00  0.00    -0.137 N 
ATOM     18  H4  UNL     1      -2.851  -2.146  21.409  1.00  0.00     0.205 HD
BRANCH  17  19
HETATM   19  C5  UNL     1      -4.048  -3.922  21.307  1.00  0.00     0.688 C 
HETATM   20  N5  UNL     1      -4.676  -4.103  22.446  1.00  0.00    -0.225 N 
HETATM   21  C6  UNL     1      -5.126  -5.390  22.864  1.00  0.00     0.139 C 
ATOM     22  H5  UNL     1      -4.847  -3.299  23.050  1.00  0.00     0.177 HD
HETATM   23  C7  UNL     1      -5.663  -6.170  21.692  1.00  0.00     0.040 C 
HETATM   24  C8  UNL     1      -4.735  -6.223  20.525  1.00  0.00     0.139 C 
HETATM   25  N6  UNL     1      -3.832  -5.077  20.507  1.00  0.00    -0.225 N 
ATOM     26  H6  UNL     1      -3.016  -5.106  19.896  1.00  0.00     0.177 HD
ENDBRANCH  17  19
ENDBRANCH  15  17
ENDBRANCH  14  15
ENDBRANCH   1  14
TORSDOF 7
ENDMDL
MODEL 5
REMARK VINA RESULT: -6.930040360      2.463      3.648
REMARK  7 active torsions:
REMARK  status: ('A' for Active; 'I' for Inactive)
REMARK       I    between atoms: C1_4  and  N2_5 
REMARK       I    between atoms: C1_4  and  N7_22 
REMARK    1  A    between atoms: N2_5  and  C2_7 
REMARK    2  A    between atoms: C2_7  and  C3_8 
REMARK    3  A    between atoms: C3_8  and  C4_9 
REMARK    4  A    between atoms: C4_9  and  N3_10 
REMARK    5  A    between atoms: N3_10  and  N4_12 
REMARK    6  A    between atoms: N4_12  and  C5_14 
REMARK    7  A    between atoms: N7_22  and  N8_24 
ROOT
HETATM    1  C3  UNL     1      -1.147  -2.485  17.590  1.00  0.00     0.041 C 
ENDROOT
BRANCH   1   2
HETATM    2  C2  UNL     1      -0.808  -1.849  18.915  1.00  0.00     0.139 C 
BRANCH   2   3
HETATM    3  N2  UNL     1      -1.281  -0.498  19.040  1.00  0.00    -0.225 N 
HETATM    4  C1  UNL     1      -2.308  -0.253  20.024  1.00  0.00     0.691 C 
HETATM    5  N1  UNL     1      -2.245   0.866  20.650  1.00  0.00    -0.233 N 
HETATM    6  N7  UNL     1      -3.328  -1.234  20.255  1.00  0.00    -0.072 N 
ATOM      7  H12 UNL     1      -1.520   1.564  20.485  1.00  0.00     0.174 HD
ATOM      8  H11 UNL     1      -2.971   1.040  21.346  1.00  0.00     0.174 HD
ATOM      9  H7  UNL     1      -3.326  -1.765  21.126  1.00  0.00     0.212 HD
ATOM     10  H2  UNL     1      -0.909   0.253  18.459  1.00  0.00     0.177 HD
BRANCH   6  11
HETATM   11  N8  UNL     1      -4.329  -1.475  19.301  1.00  0.00    -0.024 N 
HETATM   12  O1  UNL     1      -5.132  -2.403  19.508  1.00  0.00    -0.516 OA
HETATM   13  O2  UNL     1      -4.446  -0.726  18.160  1.00  0.00    -0.516 OA
ENDBRANCH   6  11
ENDBRANCH   2   3
ENDBRANCH   1   2
BRANCH   1  14
HETATM   14  C4  UNL     1      -1.403  -3.979  17.874  1.00  0.00     0.141 C 
BRANCH  14  15
HETATM   15  N3  UNL     1      -2.254  -3.986  19.018  1.00  0.00    -0.322 N 
ATOM     16  H3  UNL     1      -2.103  -3.340  19.793  1.00  0.00     0.180 HD
BRANCH  15  17
HETATM   17  N4  UNL     1      -3.280  -4.891  19.041  1.00  0.00    -0.137 N 
ATOM     18  H4  UNL     1      -3.629  -5.319  18.183  1.00  0.00     0.205 HD
BRANCH  17  19
HETATM   19  C5  UNL     1      -3.842  -5.211  20.314  1.00  0.00     0.688 C 
HETATM   20  N5  UNL     1      -3.753  -4.358  21.308  1.00  0.00    -0.225 N 
HETATM   21  C6  UNL     1      -4.302  -4.637  22.594  1.00  0.00     0.139 C 
ATOM     22  H5  UNL     1      -3.277  -3.469  21.156  1.00  0.00     0.177 HD
HETATM   23  C7  UNL     1      -5.624  -5.350  22.463  1.00  0.00     0.040 C 
HETATM   24  C8  UNL     1      -5.580  -6.545  21.573  1.00  0.00     0.139 C 
HETATM   25  N6  UNL     1      -4.512  -6.436  20.583  1.00  0.00    -0.225 N 
ATOM     26  H6  UNL     1      -4.237  -7.270  20.064  1.00  0.00     0.177 HD
ENDBRANCH  17  19
ENDBRANCH  15  17
ENDBRANCH  14  15
ENDBRANCH   1  14
TORSDOF 7
ENDMDL
