MODEL 1
REMARK VINA RESULT: -6.414027090      0.000      0.000
REMARK  9 active torsions:
REMARK  status: ('A' for Active; 'I' for Inactive)
REMARK    1  A    between atoms: C2_7  and  C3_8 
REMARK    2  A    between atoms: C3_8  and  C4_9 
REMARK    3  A    between atoms: C4_9  and  N3_10 
REMARK    4  A    between atoms: C4_9  and  C5_14 
REMARK       I    between atoms: C5_14  and  N4_16 
REMARK    5  A    between atoms: N4_16  and  C6_18 
REMARK    6  A    between atoms: C6_18  and  C7_19 
REMARK    7  A    between atoms: C7_19  and  N5_20 
REMARK    8  A    between atoms: C8_26  and  C9_27 
REMARK    9  A    between atoms: C9_27  and  N7_28 
ROOT
HETATM    1  N1  UNL     1      -3.101  -5.721  18.212  1.00  0.00    -0.234 N 
ATOM      2  H11 UNL     1      -3.174  -6.710  18.448  1.00  0.00     0.174 HD
ATOM      3  H12 UNL     1      -2.771  -5.450  17.287  1.00  0.00     0.174 HD
HETATM    4  C1  UNL     1      -3.435  -4.872  19.110  1.00  0.00     0.678 A 
HETATM    5  N2  UNL     1      -3.338  -3.551  18.795  1.00  0.00    -0.181 N 
ATOM      6  H2  UNL     1      -3.009  -3.263  17.873  1.00  0.00     0.185 HD
HETATM    7  C2  UNL     1      -3.682  -2.625  19.715  1.00  0.00     0.101 A 
HETATM    8  N6  UNL     1      -4.112  -3.014  20.924  1.00  0.00    -0.333 N 
ATOM      9  H6  UNL     1      -4.370  -2.307  21.613  1.00  0.00     0.168 HD
HETATM   10  C8  UNL     1      -4.213  -4.316  21.248  1.00  0.00     0.124 A 
HETATM   11  N8  UNL     1      -3.868  -5.227  20.324  1.00  0.00    -0.179 N 
ATOM     12  H8  UNL     1      -3.939  -6.219  20.555  1.00  0.00     0.185 HD
ENDROOT
BRANCH   7  13
HETATM   13  C3  UNL     1      -3.602  -1.167  19.441  1.00  0.00     0.119 C 
BRANCH  13  14
HETATM   14  C4  UNL     1      -2.349  -0.633  20.125  1.00  0.00     0.281 C 
BRANCH  14  15
HETATM   15  N3  UNL     1      -2.671   0.608  20.753  1.00  0.00    -0.066 N 
ATOM     16  H33 UNL     1      -1.978   1.333  20.566  1.00  0.00     0.275 HD
ATOM     17  H32 UNL     1      -3.473   1.068  20.323  1.00  0.00     0.275 HD
ATOM     18  H31 UNL     1      -2.803   0.440  21.751  1.00  0.00     0.275 HD
ENDBRANCH  14  15
BRANCH  14  19
HETATM   19  C5  UNL     1      -1.307  -0.409  19.098  1.00  0.00     0.248 C 
HETATM   20  O1  UNL     1      -1.277   0.696  18.504  1.00  0.00    -0.271 OA
HETATM   21  N4  UNL     1      -0.342  -1.394  18.759  1.00  0.00    -0.358 N 
ATOM     22  H4  UNL     1      -0.359  -2.296  19.235  1.00  0.00     0.162 HD
BRANCH  21  23
HETATM   23  C6  UNL     1       0.655  -1.145  17.760  1.00  0.00     0.150 C 
BRANCH  23  24
HETATM   24  C7  UNL     1       2.035  -1.560  18.187  1.00  0.00     0.249 C 
BRANCH  24  25
HETATM   25  N5  UNL     1       2.740  -2.288  17.160  1.00  0.00    -0.078 N 
ATOM     26  H53 UNL     1       3.742  -2.097  17.199  1.00  0.00     0.274 HD
ATOM     27  H52 UNL     1       2.755  -3.288  17.364  1.00  0.00     0.274 HD
ATOM     28  H51 UNL     1       2.370  -2.111  16.226  1.00  0.00     0.274 HD
ENDBRANCH  24  25
ENDBRANCH  23  24
ENDBRANCH  21  23
ENDBRANCH  14  19
ENDBRANCH  13  14
ENDBRANCH   7  13
BRANCH  10  29
HETATM   29  C9  UNL     1      -4.684  -4.755  22.568  1.00  0.00     0.306 C 
BRANCH  29  30
HETATM   30  N7  UNL     1      -5.492  -5.945  22.420  1.00  0.00    -0.073 N 
ATOM     31  H73 UNL     1      -6.446  -5.808  22.757  1.00  0.00     0.274 HD
ATOM     32  H72 UNL     1      -5.710  -6.144  21.444  1.00  0.00     0.274 HD
ATOM     33  H71 UNL     1      -5.029  -6.728  22.879  1.00  0.00     0.274 HD
ENDBRANCH  29  30
ENDBRANCH  10  29
TORSDOF 9
ENDMDL
MODEL 2
REMARK VINA RESULT: -6.323308121      2.522      4.070
REMARK  9 active torsions:
REMARK  status: ('A' for Active; 'I' for Inactive)
REMARK    1  A    between atoms: C2_7  and  C3_8 
REMARK    2  A    between atoms: C3_8  and  C4_9 
REMARK    3  A    between atoms: C4_9  and  N3_10 
REMARK    4  A    between atoms: C4_9  and  C5_14 
REMARK       I    between atoms: C5_14  and  N4_16 
REMARK    5  A    between atoms: N4_16  and  C6_18 
REMARK    6  A    between atoms: C6_18  and  C7_19 
REMARK    7  A    between atoms: C7_19  and  N5_20 
REMARK    8  A    between atoms: C8_26  and  C9_27 
REMARK    9  A    between atoms: C9_27  and  N7_28 
ROOT
HETATM    1  N1  UNL     1      -3.399  -0.186  19.901  1.00  0.00    -0.234 N 
ATOM      2  H11 UNL     1      -4.371  -0.108  20.202  1.00  0.00     0.174 HD
ATOM      3  H12 UNL     1      -2.814   0.649  19.879  1.00  0.00     0.174 HD
HETATM    4  C1  UNL     1      -2.974  -1.345  19.565  1.00  0.00     0.678 A 
HETATM    5  N2  UNL     1      -1.677  -1.448  19.163  1.00  0.00    -0.181 N 
ATOM      6  H2  UNL     1      -1.079  -0.623  19.135  1.00  0.00     0.185 HD
HETATM    7  C2  UNL     1      -1.191  -2.654  18.802  1.00  0.00     0.101 A 
HETATM    8  N6  UNL     1      -1.987  -3.733  18.841  1.00  0.00    -0.333 N 
ATOM      9  H6  UNL     1      -1.611  -4.640  18.567  1.00  0.00     0.168 HD
HETATM   10  C8  UNL     1      -3.270  -3.645  19.236  1.00  0.00     0.124 A 
HETATM   11  N8  UNL     1      -3.742  -2.440  19.594  1.00  0.00    -0.179 N 
ATOM     12  H8  UNL     1      -4.712  -2.356  19.896  1.00  0.00     0.185 HD
ENDROOT
BRANCH   7  13
HETATM   13  C3  UNL     1       0.213  -2.842  18.354  1.00  0.00     0.119 C 
BRANCH  13  14
HETATM   14  C4  UNL     1       0.179  -3.402  16.937  1.00  0.00     0.281 C 
BRANCH  14  15
HETATM   15  N3  UNL     1       1.460  -3.956  16.638  1.00  0.00    -0.066 N 
ATOM     16  H33 UNL     1       1.841  -4.500  17.412  1.00  0.00     0.275 HD
ATOM     17  H32 UNL     1       1.410  -4.708  15.951  1.00  0.00     0.275 HD
ATOM     18  H31 UNL     1       2.079  -3.200  16.347  1.00  0.00     0.275 HD
ENDBRANCH  14  15
BRANCH  14  19
HETATM   19  C5  UNL     1      -0.111  -2.297  15.996  1.00  0.00     0.248 C 
HETATM   20  O1  UNL     1      -1.008  -2.461  15.135  1.00  0.00    -0.271 OA
HETATM   21  N4  UNL     1       0.587  -1.060  16.030  1.00  0.00    -0.358 N 
ATOM     22  H4  UNL     1       1.319  -0.918  16.725  1.00  0.00     0.162 HD
BRANCH  21  23
HETATM   23  C6  UNL     1       0.282  -0.009  15.105  1.00  0.00     0.150 C 
BRANCH  23  24
HETATM   24  C7  UNL     1       1.507   0.653  14.539  1.00  0.00     0.249 C 
BRANCH  24  25
HETATM   25  N5  UNL     1       1.401   0.900  13.121  1.00  0.00    -0.078 N 
ATOM     26  H53 UNL     1       2.116   0.386  12.606  1.00  0.00     0.274 HD
ATOM     27  H52 UNL     1       0.568   0.457  12.733  1.00  0.00     0.274 HD
ATOM     28  H51 UNL     1       1.428   1.893  12.891  1.00  0.00     0.274 HD
ENDBRANCH  24  25
ENDBRANCH  23  24
ENDBRANCH  21  23
ENDBRANCH  14  19
ENDBRANCH  13  14
ENDBRANCH   7  13
BRANCH  10  29
HETATM   29  C9  UNL     1      -4.151  -4.819  19.285  1.00  0.00     0.306 C 
BRANCH  29  30
HETATM   30  N7  UNL     1      -3.994  -5.486  20.558  1.00  0.00    -0.073 N 
ATOM     31  H73 UNL     1      -3.105  -5.260  21.005  1.00  0.00     0.274 HD
ATOM     32  H72 UNL     1      -4.616  -5.107  21.272  1.00  0.00     0.274 HD
ATOM     33  H71 UNL     1      -4.118  -6.490  20.432  1.00  0.00     0.274 HD
ENDBRANCH  29  30
ENDBRANCH  10  29
TORSDOF 9
ENDMDL
MODEL 3
REMARK VINA RESULT: -6.214073154      2.793      7.408
REMARK  9 active torsions:
REMARK  status: ('A' for Active; 'I' for Inactive)
REMARK    1  A    between atoms: C2_7  and  C3_8 
REMARK    2  A    between atoms: C3_8  and  C4_9 
REMARK    3  A    between atoms: C4_9  and  N3_10 
REMARK    4  A    between atoms: C4_9  and  C5_14 
REMARK       I    between atoms: C5_14  and  N4_16 
REMARK    5  A    between atoms: N4_16  and  C6_18 
REMARK    6  A    between atoms: C6_18  and  C7_19 
REMARK    7  A    between atoms: C7_19  and  N5_20 
REMARK    8  A    between atoms: C8_26  and  C9_27 
REMARK    9  A    between atoms: C9_27  and  N7_28 
ROOT
HETATM    1  N1  UNL     1       2.916   0.154  17.778  1.00  0.00    -0.234 N 
ATOM      2  H11 UNL     1       3.455   1.004  17.613  1.00  0.00     0.174 HD
ATOM      3  H12 UNL     1       3.141  -0.434  18.579  1.00  0.00     0.174 HD
HETATM    4  C1  UNL     1       1.977  -0.121  16.954  1.00  0.00     0.678 A 
HETATM    5  N2  UNL     1       1.257  -1.256  17.173  1.00  0.00    -0.181 N 
ATOM      6  H2  UNL     1       1.471  -1.855  17.970  1.00  0.00     0.185 HD
HETATM    7  C2  UNL     1       0.258  -1.579  16.326  1.00  0.00     0.101 A 
HETATM    8  N6  UNL     1      -0.014  -0.784  15.281  1.00  0.00    -0.333 N 
ATOM      9  H6  UNL     1      -0.772  -1.036  14.646  1.00  0.00     0.168 HD
HETATM   10  C8  UNL     1       0.689   0.341  15.052  1.00  0.00     0.124 A 
HETATM   11  N8  UNL     1       1.680   0.652  15.902  1.00  0.00    -0.179 N 
ATOM     12  H8  UNL     1       2.223   1.501  15.743  1.00  0.00     0.185 HD
ENDROOT
BRANCH   7  13
HETATM   13  C3  UNL     1      -0.569  -2.800  16.504  1.00  0.00     0.119 C 
BRANCH  13  14
HETATM   14  C4  UNL     1      -0.598  -3.130  17.992  1.00  0.00     0.281 C 
BRANCH  14  15
HETATM   15  N3  UNL     1      -0.142  -4.472  18.166  1.00  0.00    -0.066 N 
ATOM     16  H33 UNL     1       0.544  -4.746  17.464  1.00  0.00     0.275 HD
ATOM     17  H32 UNL     1       0.450  -4.579  18.989  1.00  0.00     0.275 HD
ATOM     18  H31 UNL     1      -0.954  -5.089  18.185  1.00  0.00     0.275 HD
ENDBRANCH  14  15
BRANCH  14  19
HETATM   19  C5  UNL     1      -1.991  -3.017  18.476  1.00  0.00     0.248 C 
HETATM   20  O1  UNL     1      -2.625  -1.961  18.240  1.00  0.00    -0.271 OA
HETATM   21  N4  UNL     1      -2.638  -4.056  19.198  1.00  0.00    -0.358 N 
ATOM     22  H4  UNL     1      -2.131  -4.918  19.396  1.00  0.00     0.162 HD
BRANCH  21  23
HETATM   23  C6  UNL     1      -3.989  -3.915  19.653  1.00  0.00     0.150 C 
BRANCH  23  24
HETATM   24  C7  UNL     1      -4.096  -3.747  21.143  1.00  0.00     0.249 C 
BRANCH  24  25
HETATM   25  N5  UNL     1      -3.697  -4.930  21.866  1.00  0.00    -0.078 N 
ATOM     26  H53 UNL     1      -4.445  -5.624  21.874  1.00  0.00     0.274 HD
ATOM     27  H52 UNL     1      -2.991  -5.455  21.350  1.00  0.00     0.274 HD
ATOM     28  H51 UNL     1      -3.379  -4.725  22.814  1.00  0.00     0.274 HD
ENDBRANCH  24  25
ENDBRANCH  23  24
ENDBRANCH  21  23
ENDBRANCH  14  19
ENDBRANCH  13  14
ENDBRANCH   7  13
BRANCH  10  29
HETATM   29  C9  UNL     1       0.401   1.220  13.911  1.00  0.00     0.306 C 
BRANCH  29  30
HETATM   30  N7  UNL     1       1.426   1.056  12.905  1.00  0.00    -0.073 N 
ATOM     31  H73 UNL     1       2.300   1.514  13.166  1.00  0.00     0.274 HD
ATOM     32  H72 UNL     1       1.772   0.098  12.860  1.00  0.00     0.274 HD
ATOM     33  H71 UNL     1       1.074   1.381  12.006  1.00  0.00     0.274 HD
ENDBRANCH  29  30
ENDBRANCH  10  29
TORSDOF 9
ENDMDL
MODEL 4
REMARK VINA RESULT: -6.166992238      2.286      7.128
REMARK  9 active torsions:
REMARK  status: ('A' for Active; 'I' for Inactive)
REMARK    1  A    between atoms: C2_7  and  C3_8 
REMARK    2  A    between atoms: C3_8  and  C4_9 
REMARK    3  A    between atoms: C4_9  and  N3_10 
REMARK    4  A    between atoms: C4_9  and  C5_14 
REMARK       I    between atoms: C5_14  and  N4_16 
REMARK    5  A    between atoms: N4_16  and  C6_18 
REMARK    6  A    between atoms: C6_18  and  C7_19 
REMARK    7  A    between atoms: C7_19  and  N5_20 
REMARK    8  A    between atoms: C8_26  and  C9_27 
REMARK    9  A    between atoms: C9_27  and  N7_28 
ROOT
HETATM    1  N1  UNL     1       3.592  -2.556  17.279  1.00  0.00    -0.234 N 
ATOM      2  H11 UNL     1       4.486  -2.067  17.236  1.00  0.00     0.174 HD
ATOM      3  H12 UNL     1       3.579  -3.567  17.411  1.00  0.00     0.174 HD
HETATM    4  C1  UNL     1       2.528  -1.855  17.165  1.00  0.00     0.678 A 
HETATM    5  N2  UNL     1       1.334  -2.506  17.223  1.00  0.00    -0.181 N 
ATOM      6  H2  UNL     1       1.305  -3.517  17.354  1.00  0.00     0.185 HD
HETATM    7  C2  UNL     1       0.189  -1.801  17.107  1.00  0.00     0.101 A 
HETATM    8  N6  UNL     1       0.239  -0.472  16.936  1.00  0.00    -0.333 N 
ATOM      9  H6  UNL     1      -0.631   0.053  16.849  1.00  0.00     0.168 HD
HETATM   10  C8  UNL     1       1.413   0.185  16.876  1.00  0.00     0.124 A 
HETATM   11  N8  UNL     1       2.544  -0.528  16.993  1.00  0.00    -0.179 N 
ATOM     12  H8  UNL     1       3.442  -0.045  16.951  1.00  0.00     0.185 HD
ENDROOT
BRANCH   7  13
HETATM   13  C3  UNL     1      -1.148  -2.444  17.163  1.00  0.00     0.119 C 
BRANCH  13  14
HETATM   14  C4  UNL     1      -1.265  -3.163  18.502  1.00  0.00     0.281 C 
BRANCH  14  15
HETATM   15  N3  UNL     1      -0.684  -4.460  18.372  1.00  0.00    -0.066 N 
ATOM     16  H33 UNL     1      -0.478  -4.701  17.403  1.00  0.00     0.275 HD
ATOM     17  H32 UNL     1       0.269  -4.500  18.731  1.00  0.00     0.275 HD
ATOM     18  H31 UNL     1      -1.301  -5.137  18.821  1.00  0.00     0.275 HD
ENDBRANCH  14  15
BRANCH  14  19
HETATM   19  C5  UNL     1      -2.697  -3.297  18.846  1.00  0.00     0.248 C 
HETATM   20  O1  UNL     1      -3.453  -2.312  18.665  1.00  0.00    -0.271 OA
HETATM   21  N4  UNL     1      -3.249  -4.495  19.374  1.00  0.00    -0.358 N 
ATOM     22  H4  UNL     1      -2.643  -5.301  19.525  1.00  0.00     0.162 HD
BRANCH  21  23
HETATM   23  C6  UNL     1      -4.642  -4.592  19.696  1.00  0.00     0.150 C 
BRANCH  23  24
HETATM   24  C7  UNL     1      -4.914  -5.489  20.871  1.00  0.00     0.249 C 
BRANCH  24  25
HETATM   25  N5  UNL     1      -4.380  -6.818  20.693  1.00  0.00    -0.078 N 
ATOM     26  H53 UNL     1      -4.531  -7.148  19.740  1.00  0.00     0.274 HD
ATOM     27  H52 UNL     1      -3.360  -6.807  20.705  1.00  0.00     0.274 HD
ATOM     28  H51 UNL     1      -4.746  -7.485  21.373  1.00  0.00     0.274 HD
ENDBRANCH  24  25
ENDBRANCH  23  24
ENDBRANCH  21  23
ENDBRANCH  14  19
ENDBRANCH  13  14
ENDBRANCH   7  13
BRANCH  10  29
HETATM   29  C9  UNL     1       1.481   1.640  16.689  1.00  0.00     0.306 C 
BRANCH  29  30
HETATM   30  N7  UNL     1       2.815   2.103  16.999  1.00  0.00    -0.073 N 
ATOM     31  H73 UNL     1       3.102   1.850  17.945  1.00  0.00     0.274 HD
ATOM     32  H72 UNL     1       3.531   1.587  16.487  1.00  0.00     0.274 HD
ATOM     33  H71 UNL     1       2.872   3.108  16.835  1.00  0.00     0.274 HD
ENDBRANCH  29  30
ENDBRANCH  10  29
TORSDOF 9
ENDMDL
MODEL 5
REMARK VINA RESULT: -6.123346804      1.888      5.603
REMARK  9 active torsions:
REMARK  status: ('A' for Active; 'I' for Inactive)
REMARK    1  A    between atoms: C2_7  and  C3_8 
REMARK    2  A    between atoms: C3_8  and  C4_9 
REMARK    3  A    between atoms: C4_9  and  N3_10 
REMARK    4  A    between atoms: C4_9  and  C5_14 
REMARK       I    between atoms: C5_14  and  N4_16 
REMARK    5  A    between atoms: N4_16  and  C6_18 
REMARK    6  A    between atoms: C6_18  and  C7_19 
REMARK    7  A    between atoms: C7_19  and  N5_20 
REMARK    8  A    between atoms: C8_26  and  C9_27 
REMARK    9  A    between atoms: C9_27  and  N7_28 
ROOT
HETATM    1  N1  UNL     1       0.806   0.456  15.609  1.00  0.00    -0.234 N 
ATOM      2  H11 UNL     1       1.311   0.085  14.804  1.00  0.00     0.174 HD
ATOM      3  H12 UNL     1       0.612   1.455  15.661  1.00  0.00     0.174 HD
HETATM    4  C1  UNL     1       0.445  -0.373  16.515  1.00  0.00     0.678 A 
HETATM    5  N2  UNL     1      -0.229   0.122  17.589  1.00  0.00    -0.181 N 
ATOM      6  H2  UNL     1      -0.431   1.119  17.656  1.00  0.00     0.185 HD
HETATM    7  C2  UNL     1      -0.628  -0.721  18.565  1.00  0.00     0.101 A 
HETATM    8  N6  UNL     1      -0.357  -2.031  18.467  1.00  0.00    -0.333 N 
ATOM      9  H6  UNL     1      -0.663  -2.660  19.209  1.00  0.00     0.168 HD
HETATM   10  C8  UNL     1       0.308  -2.533  17.410  1.00  0.00     0.124 A 
HETATM   11  N8  UNL     1       0.699  -1.684  16.446  1.00  0.00    -0.179 N 
ATOM     12  H8  UNL     1       1.204  -2.050  15.638  1.00  0.00     0.185 HD
ENDROOT
BRANCH   7  13
HETATM   13  C3  UNL     1      -1.368  -0.252  19.765  1.00  0.00     0.119 C 
BRANCH  13  14
HETATM   14  C4  UNL     1      -2.845  -0.165  19.397  1.00  0.00     0.281 C 
BRANCH  14  15
HETATM   15  N3  UNL     1      -3.516   0.599  20.398  1.00  0.00    -0.066 N 
ATOM     16  H33 UNL     1      -3.005   1.442  20.656  1.00  0.00     0.275 HD
ATOM     17  H32 UNL     1      -4.360   1.049  20.046  1.00  0.00     0.275 HD
ATOM     18  H31 UNL     1      -3.700  -0.008  21.198  1.00  0.00     0.275 HD
ENDBRANCH  14  15
BRANCH  14  19
HETATM   19  C5  UNL     1      -3.407  -1.533  19.361  1.00  0.00     0.248 C 
HETATM   20  O1  UNL     1      -3.484  -2.122  18.256  1.00  0.00    -0.271 OA
HETATM   21  N4  UNL     1      -3.862  -2.204  20.528  1.00  0.00    -0.358 N 
ATOM     22  H4  UNL     1      -3.804  -1.733  21.430  1.00  0.00     0.162 HD
BRANCH  21  23
HETATM   23  C6  UNL     1      -4.401  -3.530  20.459  1.00  0.00     0.150 C 
BRANCH  23  24
HETATM   24  C7  UNL     1      -3.995  -4.393  21.621  1.00  0.00     0.249 C 
BRANCH  24  25
HETATM   25  N5  UNL     1      -4.036  -5.802  21.310  1.00  0.00    -0.078 N 
ATOM     26  H53 UNL     1      -4.261  -5.952  20.326  1.00  0.00     0.274 HD
ATOM     27  H52 UNL     1      -3.101  -6.209  21.330  1.00  0.00     0.274 HD
ATOM     28  H51 UNL     1      -4.674  -6.320  21.914  1.00  0.00     0.274 HD
ENDBRANCH  24  25
ENDBRANCH  23  24
ENDBRANCH  21  23
ENDBRANCH  14  19
ENDBRANCH  13  14
ENDBRANCH   7  13
BRANCH  10  29
HETATM   29  C9  UNL     1       0.610  -3.965  17.290  1.00  0.00     0.306 C 
BRANCH  29  30
HETATM   30  N7  UNL     1      -0.305  -4.720  18.118  1.00  0.00    -0.073 N 
ATOM     31  H73 UNL     1      -0.284  -4.418  19.092  1.00  0.00     0.274 HD
ATOM     32  H72 UNL     1      -1.280  -4.498  17.917  1.00  0.00     0.274 HD
ATOM     33  H71 UNL     1      -0.108  -5.716  18.019  1.00  0.00     0.274 HD
ENDBRANCH  29  30
ENDBRANCH  10  29
TORSDOF 9
ENDMDL
