MODEL 1
REMARK VINA RESULT: -7.915370003      0.000      0.000
REMARK  8 active torsions:
REMARK  status: ('A' for Active; 'I' for Inactive)
REMARK    1  A    between atoms: C1_2  and  C2_4 
REMARK    2  A    between atoms: C2_4  and  N2_5 
REMARK    3  A    between atoms: C2_4  and  C3_9 
REMARK    4  A    between atoms: C3_9  and  C4_10 
REMARK    5  A    between atoms: C3_9  and  N3_15 
REMARK    6  A    between atoms: C5_11  and  C6_12 
REMARK    7  A    between atoms: C6_12  and  O2_13 
REMARK       I    between atoms: N3_15  and  C7_17 
REMARK    8  A    between atoms: C7_17  and  C8_19 
ROOT
HETATM    1  C3  UNL     1      -2.411  -2.849  18.610  1.00  0.00     0.147 C 
ENDROOT
BRANCH   1   2
HETATM    2  C2  UNL     1      -1.006  -3.386  18.364  1.00  0.00     0.297 C 
BRANCH   2   3
HETATM    3  C1  UNL     1      -0.315  -2.692  17.285  1.00  0.00     0.264 C 
HETATM    4  N1  UNL     1      -0.753  -2.729  15.939  1.00  0.00    -0.060 NA
HETATM    5  O1  UNL     1       0.718  -2.025  17.539  1.00  0.00    -0.274 OA
ENDBRANCH   2   3
BRANCH   2   6
HETATM    6  N2  UNL     1      -1.121  -4.810  18.068  1.00  0.00    -0.065 N 
ATOM      7  H23 UNL     1      -1.513  -4.974  17.140  1.00  0.00     0.275 HD
ATOM      8  H22 UNL     1      -0.208  -5.242  17.925  1.00  0.00     0.275 HD
ATOM      9  H21 UNL     1      -1.656  -5.286  18.794  1.00  0.00     0.275 HD
ENDBRANCH   2   6
ENDBRANCH   1   2
BRANCH   1  10
HETATM   10  C4  UNL     1      -2.324  -1.399  18.907  1.00  0.00    -0.001 C 
HETATM   11  C5  UNL     1      -2.943  -0.858  19.942  1.00  0.00    -0.003 C 
BRANCH  11  12
HETATM   12  C6  UNL     1      -2.849   0.587  20.227  1.00  0.00     0.191 C 
BRANCH  12  13
HETATM   13  O2  UNL     1      -4.035   1.133  20.664  1.00  0.00    -0.397 OA
ATOM     14  H2  UNL     1      -4.273   1.930  20.205  1.00  0.00     0.209 HD
ENDBRANCH  12  13
ENDBRANCH  11  12
ENDBRANCH   1  10
BRANCH   1  15
HETATM   15  N3  UNL     1      -2.995  -3.556  19.723  1.00  0.00    -0.344 N 
HETATM   16  C7  UNL     1      -3.952  -4.591  19.557  1.00  0.00     0.289 C 
HETATM   17  O3  UNL     1      -4.326  -4.927  18.404  1.00  0.00    -0.264 OA
ATOM     18  H3  UNL     1      -2.708  -3.301  20.668  1.00  0.00     0.163 HD
BRANCH  16  19
HETATM   19  C8  UNL     1      -4.501  -5.263  20.726  1.00  0.00     0.206 A 
HETATM   20  N4  UNL     1      -4.624  -4.733  21.963  1.00  0.00    -0.264 N 
HETATM   21  N5  UNL     1      -5.165  -5.622  22.790  1.00  0.00    -0.226 N 
ATOM     22  H4  UNL     1      -4.343  -3.788  22.225  1.00  0.00     0.190 HD
HETATM   23  N6  UNL     1      -5.390  -6.716  22.094  1.00  0.00    -0.226 N 
ATOM     24  H5  UNL     1      -5.369  -5.483  23.779  1.00  0.00     0.210 HD
HETATM   25  N7  UNL     1      -4.990  -6.509  20.838  1.00  0.00    -0.264 N 
ATOM     26  H6  UNL     1      -5.802  -7.576  22.454  1.00  0.00     0.210 HD
ATOM     27  H7  UNL     1      -5.046  -7.190  20.081  1.00  0.00     0.190 HD
ENDBRANCH  16  19
ENDBRANCH   1  15
TORSDOF 8
ENDMDL
MODEL 2
REMARK VINA RESULT: -7.837035760      1.678      2.109
REMARK  8 active torsions:
REMARK  status: ('A' for Active; 'I' for Inactive)
REMARK    1  A    between atoms: C1_2  and  C2_4 
REMARK    2  A    between atoms: C2_4  and  N2_5 
REMARK    3  A    between atoms: C2_4  and  C3_9 
REMARK    4  A    between atoms: C3_9  and  C4_10 
REMARK    5  A    between atoms: C3_9  and  N3_15 
REMARK    6  A    between atoms: C5_11  and  C6_12 
REMARK    7  A    between atoms: C6_12  and  O2_13 
REMARK       I    between atoms: N3_15  and  C7_17 
REMARK    8  A    between atoms: C7_17  and  C8_19 
ROOT
HETATM    1  C3  UNL     1      -2.473  -1.606  18.788  1.00  0.00     0.147 C 
ENDROOT
BRANCH   1   2
HETATM    2  C2  UNL     1      -1.316  -1.756  17.808  1.00  0.00     0.297 C 
BRANCH   2   3
HETATM    3  C1  UNL     1      -0.785  -3.112  17.760  1.00  0.00     0.264 C 
HETATM    4  N1  UNL     1       0.342  -3.527  18.511  1.00  0.00    -0.060 NA
HETATM    5  O1  UNL     1      -1.338  -3.969  17.027  1.00  0.00    -0.274 OA
ENDBRANCH   2   3
BRANCH   2   6
HETATM    6  N2  UNL     1      -0.275  -0.812  18.201  1.00  0.00    -0.065 N 
ATOM      7  H23 UNL     1      -0.353  -0.549  19.184  1.00  0.00     0.275 HD
ATOM      8  H22 UNL     1       0.643  -1.253  18.234  1.00  0.00     0.275 HD
ATOM      9  H21 UNL     1      -0.282   0.005  17.589  1.00  0.00     0.275 HD
ENDBRANCH   2   6
ENDBRANCH   1   2
BRANCH   1  10
HETATM   10  C4  UNL     1      -2.084  -0.635  19.841  1.00  0.00    -0.001 C 
HETATM   11  C5  UNL     1      -2.968   0.154  20.425  1.00  0.00    -0.003 C 
BRANCH  11  12
HETATM   12  C6  UNL     1      -2.570   1.116  21.471  1.00  0.00     0.191 C 
BRANCH  12  13
HETATM   13  O2  UNL     1      -1.557   0.653  22.280  1.00  0.00    -0.397 OA
ATOM     14  H2  UNL     1      -1.781  -0.145  22.744  1.00  0.00     0.209 HD
ENDBRANCH  12  13
ENDBRANCH  11  12
ENDBRANCH   1  10
BRANCH   1  15
HETATM   15  N3  UNL     1      -2.763  -2.891  19.372  1.00  0.00    -0.344 N 
HETATM   16  C7  UNL     1      -4.080  -3.303  19.704  1.00  0.00     0.289 C 
HETATM   17  O3  UNL     1      -5.054  -2.536  19.492  1.00  0.00    -0.264 OA
ATOM     18  H3  UNL     1      -1.990  -3.531  19.555  1.00  0.00     0.163 HD
BRANCH  16  19
HETATM   19  C8  UNL     1      -4.302  -4.617  20.292  1.00  0.00     0.206 A 
HETATM   20  N4  UNL     1      -3.982  -5.803  19.731  1.00  0.00    -0.264 N 
HETATM   21  N5  UNL     1      -4.324  -6.800  20.541  1.00  0.00    -0.226 N 
ATOM     22  H4  UNL     1      -3.542  -5.917  18.817  1.00  0.00     0.190 HD
HETATM   23  N6  UNL     1      -4.859  -6.263  21.616  1.00  0.00    -0.226 N 
ATOM     24  H5  UNL     1      -4.195  -7.796  20.363  1.00  0.00     0.210 HD
HETATM   25  N7  UNL     1      -4.851  -4.935  21.475  1.00  0.00    -0.264 N 
ATOM     26  H6  UNL     1      -5.219  -6.775  22.421  1.00  0.00     0.210 HD
ATOM     27  H7  UNL     1      -5.207  -4.268  22.159  1.00  0.00     0.190 HD
ENDBRANCH  16  19
ENDBRANCH   1  15
TORSDOF 8
ENDMDL
MODEL 3
REMARK VINA RESULT: -7.832444306      1.661      1.909
REMARK  8 active torsions:
REMARK  status: ('A' for Active; 'I' for Inactive)
REMARK    1  A    between atoms: C1_2  and  C2_4 
REMARK    2  A    between atoms: C2_4  and  N2_5 
REMARK    3  A    between atoms: C2_4  and  C3_9 
REMARK    4  A    between atoms: C3_9  and  C4_10 
REMARK    5  A    between atoms: C3_9  and  N3_15 
REMARK    6  A    between atoms: C5_11  and  C6_12 
REMARK    7  A    between atoms: C6_12  and  O2_13 
REMARK       I    between atoms: N3_15  and  C7_17 
REMARK    8  A    between atoms: C7_17  and  C8_19 
ROOT
HETATM    1  C3  UNL     1      -1.813  -1.384  18.553  1.00  0.00     0.147 C 
ENDROOT
BRANCH   1   2
HETATM    2  C2  UNL     1      -0.508  -1.522  17.777  1.00  0.00     0.297 C 
BRANCH   2   3
HETATM    3  C1  UNL     1      -0.495  -2.677  16.889  1.00  0.00     0.264 C 
HETATM    4  N1  UNL     1      -0.830  -2.599  15.516  1.00  0.00    -0.060 NA
HETATM    5  O1  UNL     1      -0.174  -3.803  17.342  1.00  0.00    -0.274 OA
ENDBRANCH   2   3
BRANCH   2   6
HETATM    6  N2  UNL     1       0.578  -1.610  18.748  1.00  0.00    -0.065 N 
ATOM      7  H23 UNL     1       0.497  -2.442  19.334  1.00  0.00     0.275 HD
ATOM      8  H22 UNL     1       1.469  -1.824  18.301  1.00  0.00     0.275 HD
ATOM      9  H21 UNL     1       0.629  -0.758  19.307  1.00  0.00     0.275 HD
ENDBRANCH   2   6
ENDBRANCH   1   2
BRANCH   1  10
HETATM   10  C4  UNL     1      -1.630  -0.370  19.620  1.00  0.00    -0.001 C 
HETATM   11  C5  UNL     1      -2.647   0.096  20.323  1.00  0.00    -0.003 C 
BRANCH  11  12
HETATM   12  C6  UNL     1      -2.454   1.106  21.381  1.00  0.00     0.191 C 
BRANCH  12  13
HETATM   13  O2  UNL     1      -1.545   0.722  22.341  1.00  0.00    -0.397 OA
ATOM     14  H2  UNL     1      -1.902   0.727  23.221  1.00  0.00     0.209 HD
ENDBRANCH  12  13
ENDBRANCH  11  12
ENDBRANCH   1  10
BRANCH   1  15
HETATM   15  N3  UNL     1      -2.154  -2.661  19.127  1.00  0.00    -0.344 N 
HETATM   16  C7  UNL     1      -3.495  -3.061  19.367  1.00  0.00     0.289 C 
HETATM   17  O3  UNL     1      -4.445  -2.289  19.077  1.00  0.00    -0.264 OA
ATOM     18  H3  UNL     1      -1.402  -3.305  19.371  1.00  0.00     0.163 HD
BRANCH  16  19
HETATM   19  C8  UNL     1      -3.769  -4.367  19.950  1.00  0.00     0.206 A 
HETATM   20  N4  UNL     1      -3.824  -4.652  21.270  1.00  0.00    -0.264 N 
HETATM   21  N5  UNL     1      -4.095  -5.941  21.448  1.00  0.00    -0.226 N 
ATOM     22  H4  UNL     1      -3.678  -3.976  22.020  1.00  0.00     0.190 HD
HETATM   23  N6  UNL     1      -4.215  -6.483  20.256  1.00  0.00    -0.226 N 
ATOM     24  H5  UNL     1      -4.193  -6.420  22.343  1.00  0.00     0.210 HD
HETATM   25  N7  UNL     1      -4.018  -5.535  19.338  1.00  0.00    -0.264 N 
ATOM     26  H6  UNL     1      -4.423  -7.463  20.066  1.00  0.00     0.210 HD
ATOM     27  H7  UNL     1      -4.051  -5.677  18.328  1.00  0.00     0.190 HD
ENDBRANCH  16  19
ENDBRANCH   1  15
TORSDOF 8
ENDMDL
MODEL 4
REMARK VINA RESULT: -7.643759577      1.987      3.613
REMARK  8 active torsions:
REMARK  status: ('A' for Active; 'I' for Inactive)
REMARK    1  A    between atoms: C1_2  and  C2_4 
REMARK    2  A    between atoms: C2_4  and  N2_5 
REMARK    3  A    between atoms: C2_4  and  C3_9 
REMARK    4  A    between atoms: C3_9  and  C4_10 
REMARK    5  A    between atoms: C3_9  and  N3_15 
REMARK    6  A    between atoms: C5_11  and  C6_12 
REMARK    7  A    between atoms: C6_12  and  O2_13 
REMARK       I    between atoms: N3_15  and  C7_17 
REMARK    8  A    between atoms: C7_17  and  C8_19 
ROOT
HETATM    1  C3  UNL     1      -2.514  -2.700  19.399  1.00  0.00     0.147 C 
ENDROOT
BRANCH   1   2
HETATM    2  C2  UNL     1      -3.420  -1.536  19.022  1.00  0.00     0.297 C 
BRANCH   2   3
HETATM    3  C1  UNL     1      -2.951  -0.259  19.545  1.00  0.00     0.264 C 
HETATM    4  N1  UNL     1      -1.820  -0.139  20.389  1.00  0.00    -0.060 NA
HETATM    5  O1  UNL     1      -3.562   0.796  19.244  1.00  0.00    -0.274 OA
ENDBRANCH   2   3
BRANCH   2   6
HETATM    6  N2  UNL     1      -4.758  -1.834  19.523  1.00  0.00    -0.065 N 
ATOM      7  H23 UNL     1      -4.791  -1.830  20.543  1.00  0.00     0.275 HD
ATOM      8  H22 UNL     1      -5.408  -1.068  19.348  1.00  0.00     0.275 HD
ATOM      9  H21 UNL     1      -5.097  -2.715  19.137  1.00  0.00     0.275 HD
ENDBRANCH   2   6
ENDBRANCH   1   2
BRANCH   1  10
HETATM   10  C4  UNL     1      -1.713  -3.088  18.212  1.00  0.00    -0.001 C 
HETATM   11  C5  UNL     1      -0.945  -2.223  17.573  1.00  0.00    -0.003 C 
BRANCH  11  12
HETATM   12  C6  UNL     1      -0.154  -2.621  16.393  1.00  0.00     0.191 C 
BRANCH  12  13
HETATM   13  O2  UNL     1      -0.884  -2.629  15.226  1.00  0.00    -0.397 OA
ATOM     14  H2  UNL     1      -1.488  -1.900  15.154  1.00  0.00     0.209 HD
ENDBRANCH  12  13
ENDBRANCH  11  12
ENDBRANCH   1  10
BRANCH   1  15
HETATM   15  N3  UNL     1      -3.328  -3.806  19.839  1.00  0.00    -0.344 N 
HETATM   16  C7  UNL     1      -3.678  -4.007  21.199  1.00  0.00     0.289 C 
HETATM   17  O3  UNL     1      -3.275  -3.205  22.081  1.00  0.00    -0.264 OA
ATOM     18  H3  UNL     1      -3.666  -4.470  19.143  1.00  0.00     0.163 HD
BRANCH  16  19
HETATM   19  C8  UNL     1      -4.505  -5.146  21.573  1.00  0.00     0.206 A 
HETATM   20  N4  UNL     1      -5.271  -5.242  22.682  1.00  0.00    -0.264 N 
HETATM   21  N5  UNL     1      -5.891  -6.417  22.709  1.00  0.00    -0.226 N 
ATOM     22  H4  UNL     1      -5.361  -4.517  23.394  1.00  0.00     0.190 HD
HETATM   23  N6  UNL     1      -5.530  -7.075  21.630  1.00  0.00    -0.226 N 
ATOM     24  H5  UNL     1      -6.530  -6.747  23.433  1.00  0.00     0.210 HD
HETATM   25  N7  UNL     1      -4.686  -6.312  20.931  1.00  0.00    -0.264 N 
ATOM     26  H6  UNL     1      -5.842  -8.010  21.370  1.00  0.00     0.210 HD
ATOM     27  H7  UNL     1      -4.247  -6.573  20.049  1.00  0.00     0.190 HD
ENDBRANCH  16  19
ENDBRANCH   1  15
TORSDOF 8
ENDMDL
MODEL 5
REMARK VINA RESULT: -6.971448139      2.809      5.966
REMARK  8 active torsions:
REMARK  status: ('A' for Active; 'I' for Inactive)
REMARK    1  A    between atoms: C1_2  and  C2_4 
REMARK    2  A    between atoms: C2_4  and  N2_5 
REMARK    3  A    between atoms: C2_4  and  C3_9 
REMARK    4  A    between atoms: C3_9  and  C4_10 
REMARK    5  A    between atoms: C3_9  and  N3_15 
REMARK    6  A    between atoms: C5_11  and  C6_12 
REMARK    7  A    between atoms: C6_12  and  O2_13 
REMARK       I    between atoms: N3_15  and  C7_17 
REMARK    8  A    between atoms: C7_17  and  C8_19 
ROOT
HETATM    1  C3  UNL     1      -2.854  -2.460  18.634  1.00  0.00     0.147 C 
ENDROOT
BRANCH   1   2
HETATM    2  C2  UNL     1      -3.522  -1.174  19.104  1.00  0.00     0.297 C 
BRANCH   2   3
HETATM    3  C1  UNL     1      -2.588  -0.239  19.717  1.00  0.00     0.264 C 
HETATM    4  N1  UNL     1      -2.037   0.867  19.025  1.00  0.00    -0.060 NA
HETATM    5  O1  UNL     1      -2.242  -0.403  20.912  1.00  0.00    -0.274 OA
ENDBRANCH   2   3
BRANCH   2   6
HETATM    6  N2  UNL     1      -4.574  -1.540  20.048  1.00  0.00    -0.065 N 
ATOM      7  H23 UNL     1      -5.324  -0.849  20.067  1.00  0.00     0.275 HD
ATOM      8  H22 UNL     1      -5.113  -2.342  19.722  1.00  0.00     0.275 HD
ATOM      9  H21 UNL     1      -4.182  -1.699  20.976  1.00  0.00     0.275 HD
ENDBRANCH   2   6
ENDBRANCH   1   2
BRANCH   1  10
HETATM   10  C4  UNL     1      -3.212  -3.555  19.569  1.00  0.00    -0.001 C 
HETATM   11  C5  UNL     1      -3.913  -4.606  19.181  1.00  0.00    -0.003 C 
BRANCH  11  12
HETATM   12  C6  UNL     1      -4.263  -5.688  20.120  1.00  0.00     0.191 C 
BRANCH  12  13
HETATM   13  O2  UNL     1      -3.737  -5.508  21.379  1.00  0.00    -0.397 OA
ATOM     14  H2  UNL     1      -3.877  -6.250  21.956  1.00  0.00     0.209 HD
ENDBRANCH  12  13
ENDBRANCH  11  12
ENDBRANCH   1  10
BRANCH   1  15
HETATM   15  N3  UNL     1      -1.426  -2.266  18.612  1.00  0.00    -0.344 N 
HETATM   16  C7  UNL     1      -0.605  -2.730  17.551  1.00  0.00     0.289 C 
HETATM   17  O3  UNL     1      -1.116  -3.340  16.577  1.00  0.00    -0.264 OA
ATOM     18  H3  UNL     1      -0.987  -1.774  19.390  1.00  0.00     0.163 HD
BRANCH  16  19
HETATM   19  C8  UNL     1       0.832  -2.499  17.593  1.00  0.00     0.206 A 
HETATM   20  N4  UNL     1       1.475  -1.635  18.409  1.00  0.00    -0.264 N 
HETATM   21  N5  UNL     1       2.784  -1.678  18.181  1.00  0.00    -0.226 N 
ATOM     22  H4  UNL     1       1.022  -1.037  19.101  1.00  0.00     0.190 HD
HETATM   23  N6  UNL     1       2.985  -2.560  17.227  1.00  0.00    -0.226 N 
ATOM     24  H5  UNL     1       3.499  -1.128  18.658  1.00  0.00     0.210 HD
HETATM   25  N7  UNL     1       1.805  -3.066  16.862  1.00  0.00    -0.264 N 
ATOM     26  H6  UNL     1       3.890  -2.815  16.833  1.00  0.00     0.210 HD
ATOM     27  H7  UNL     1       1.664  -3.772  16.139  1.00  0.00     0.190 HD
ENDBRANCH  16  19
ENDBRANCH   1  15
TORSDOF 8
ENDMDL
