MODEL 1
REMARK VINA RESULT: -7.018475064      0.000      0.000
REMARK  10 active torsions:
REMARK  status: ('A' for Active; 'I' for Inactive)
REMARK    1  A    between atoms: N1_1  and  C1_5 
REMARK    2  A    between atoms: C1_5  and  C2_6 
REMARK    3  A    between atoms: C2_6  and  C3_7 
REMARK    4  A    between atoms: C3_7  and  C4_8 
REMARK    5  A    between atoms: C4_8  and  N2_9 
REMARK    6  A    between atoms: C4_8  and  C5_13 
REMARK    7  A    between atoms: C5_13  and  N5_19 
REMARK    8  A    between atoms: N3_14  and  N4_16 
REMARK    9  A    between atoms: N5_19  and  N6_21 
REMARK       I    between atoms: N6_21  and  C6_23 
REMARK   10  A    between atoms: C6_23  and  C7_25 
ROOT
HETATM    1  C5  UNL     1      -3.242  -3.271  19.554  1.00  0.00     0.141 C 
HETATM    2  N3  UNL     1      -3.224  -2.003  19.395  1.00  0.00    -0.293 N 
ATOM      3  H3  UNL     1      -2.569  -1.623  18.710  1.00  0.00     0.187 HD
ENDROOT
BRANCH   1   4
HETATM    4  C4  UNL     1      -4.163  -3.870  20.523  1.00  0.00     0.253 C 
BRANCH   4   5
HETATM    5  C3  UNL     1      -4.942  -5.019  19.916  1.00  0.00     0.042 C 
BRANCH   5   6
HETATM    6  C2  UNL     1      -4.881  -6.249  20.821  1.00  0.00     0.030 C 
BRANCH   6   7
HETATM    7  C1  UNL     1      -6.008  -6.236  21.819  1.00  0.00     0.230 C 
BRANCH   7   8
HETATM    8  N1  UNL     1      -6.049  -7.448  22.596  1.00  0.00    -0.079 N 
ATOM      9  H13 UNL     1      -5.845  -8.265  22.020  1.00  0.00     0.274 HD
ATOM     10  H12 UNL     1      -5.259  -7.505  23.239  1.00  0.00     0.274 HD
ATOM     11  H11 UNL     1      -6.936  -7.552  23.088  1.00  0.00     0.274 HD
ENDBRANCH   7   8
ENDBRANCH   6   7
ENDBRANCH   5   6
ENDBRANCH   4   5
BRANCH   4  12
HETATM   12  N2  UNL     1      -3.339  -4.463  21.585  1.00  0.00    -0.068 N 
ATOM     13  H23 UNL     1      -3.874  -4.751  22.405  1.00  0.00     0.275 HD
ATOM     14  H22 UNL     1      -2.972  -5.385  21.350  1.00  0.00     0.275 HD
ATOM     15  H21 UNL     1      -2.615  -3.775  21.791  1.00  0.00     0.275 HD
ENDBRANCH   4  12
ENDBRANCH   1   4
BRANCH   1  16
HETATM   16  N5  UNL     1      -2.376  -4.081  18.797  1.00  0.00    -0.283 N 
ATOM     17  H5  UNL     1      -2.768  -4.874  18.287  1.00  0.00     0.188 HD
BRANCH  16  18
HETATM   18  N6  UNL     1      -1.000  -3.845  18.716  1.00  0.00    -0.262 N 
HETATM   19  C6  UNL     1      -0.498  -2.918  17.771  1.00  0.00     0.306 C 
HETATM   20  O1  UNL     1      -1.289  -2.312  17.011  1.00  0.00    -0.262 OA
ATOM     21  H6  UNL     1      -0.360  -4.339  19.337  1.00  0.00     0.190 HD
BRANCH  19  22
HETATM   22  C7  UNL     1       0.930  -2.655  17.669  1.00  0.00     0.205 A 
HETATM   23  N7  UNL     1       1.828  -3.315  16.914  1.00  0.00    -0.262 N 
HETATM   24  N8  UNL     1       3.030  -2.777  17.094  1.00  0.00    -0.005 NA
ATOM     25  H7  UNL     1       1.620  -4.103  16.301  1.00  0.00     0.186 HD
HETATM   26  N9  UNL     1       2.916  -1.779  17.956  1.00  0.00    -0.225 N 
HETATM   27  N10 UNL     1       1.649  -1.706  18.304  1.00  0.00    -0.267 N 
ATOM     28  H9  UNL     1       3.670  -1.179  18.289  1.00  0.00     0.205 HD
ATOM     29  H10 UNL     1       1.265  -1.027  18.961  1.00  0.00     0.190 HD
ENDBRANCH  19  22
ENDBRANCH  16  18
ENDBRANCH   1  16
BRANCH   2  30
HETATM   30  N4  UNL     1      -4.030  -1.102  20.083  1.00  0.00    -0.344 N 
ATOM     31  H42 UNL     1      -4.680  -1.501  20.761  1.00  0.00     0.176 HD
ATOM     32  H41 UNL     1      -4.015  -0.090  19.956  1.00  0.00     0.176 HD
ENDBRANCH   2  30
TORSDOF 10
ENDMDL
MODEL 2
REMARK VINA RESULT: -6.852938696      1.796      7.238
REMARK  10 active torsions:
REMARK  status: ('A' for Active; 'I' for Inactive)
REMARK    1  A    between atoms: N1_1  and  C1_5 
REMARK    2  A    between atoms: C1_5  and  C2_6 
REMARK    3  A    between atoms: C2_6  and  C3_7 
REMARK    4  A    between atoms: C3_7  and  C4_8 
REMARK    5  A    between atoms: C4_8  and  N2_9 
REMARK    6  A    between atoms: C4_8  and  C5_13 
REMARK    7  A    between atoms: C5_13  and  N5_19 
REMARK    8  A    between atoms: N3_14  and  N4_16 
REMARK    9  A    between atoms: N5_19  and  N6_21 
REMARK       I    between atoms: N6_21  and  C6_23 
REMARK   10  A    between atoms: C6_23  and  C7_25 
ROOT
HETATM    1  C5  UNL     1      -1.490  -2.838  18.608  1.00  0.00     0.141 C 
HETATM    2  N3  UNL     1      -1.122  -4.027  18.317  1.00  0.00    -0.293 N 
ATOM      3  H3  UNL     1      -1.823  -4.766  18.375  1.00  0.00     0.187 HD
ENDROOT
BRANCH   1   4
HETATM    4  C4  UNL     1      -0.524  -1.740  18.542  1.00  0.00     0.253 C 
BRANCH   4   5
HETATM    5  C3  UNL     1      -0.293  -1.285  17.115  1.00  0.00     0.042 C 
BRANCH   5   6
HETATM    6  C2  UNL     1       1.098  -0.671  16.963  1.00  0.00     0.030 C 
BRANCH   6   7
HETATM    7  C1  UNL     1       2.092  -1.368  17.854  1.00  0.00     0.230 C 
BRANCH   7   8
HETATM    8  N1  UNL     1       2.899  -2.309  17.121  1.00  0.00    -0.079 N 
ATOM      9  H13 UNL     1       2.678  -2.292  16.125  1.00  0.00     0.274 HD
ATOM     10  H12 UNL     1       3.872  -2.007  17.074  1.00  0.00     0.274 HD
ATOM     11  H11 UNL     1       2.820  -3.252  17.503  1.00  0.00     0.274 HD
ENDBRANCH   7   8
ENDBRANCH   6   7
ENDBRANCH   5   6
ENDBRANCH   4   5
BRANCH   4  12
HETATM   12  N2  UNL     1      -1.133  -0.593  19.231  1.00  0.00    -0.068 N 
ATOM     13  H23 UNL     1      -1.987  -0.255  18.786  1.00  0.00     0.275 HD
ATOM     14  H22 UNL     1      -1.550  -0.832  20.130  1.00  0.00     0.275 HD
ATOM     15  H21 UNL     1      -0.399   0.113  19.294  1.00  0.00     0.275 HD
ENDBRANCH   4  12
ENDBRANCH   1   4
BRANCH   1  16
HETATM   16  N5  UNL     1      -2.822  -2.596  18.991  1.00  0.00    -0.283 N 
ATOM     17  H5  UNL     1      -3.360  -1.897  18.477  1.00  0.00     0.188 HD
BRANCH  16  18
HETATM   18  N6  UNL     1      -3.438  -3.272  20.048  1.00  0.00    -0.262 N 
HETATM   19  C6  UNL     1      -4.086  -4.509  19.813  1.00  0.00     0.306 C 
HETATM   20  O1  UNL     1      -4.103  -4.993  18.657  1.00  0.00    -0.262 OA
ATOM     21  H6  UNL     1      -3.422  -2.875  20.988  1.00  0.00     0.190 HD
BRANCH  19  22
HETATM   22  C7  UNL     1      -4.734  -5.232  20.898  1.00  0.00     0.205 A 
HETATM   23  N7  UNL     1      -5.136  -4.734  22.083  1.00  0.00    -0.262 N 
HETATM   24  N8  UNL     1      -5.682  -5.708  22.803  1.00  0.00    -0.005 NA
ATOM     25  H7  UNL     1      -5.036  -3.763  22.380  1.00  0.00     0.186 HD
HETATM   26  N9  UNL     1      -5.635  -6.827  22.097  1.00  0.00    -0.225 N 
HETATM   27  N10 UNL     1      -5.063  -6.539  20.948  1.00  0.00    -0.267 N 
ATOM     28  H9  UNL     1      -5.979  -7.740  22.390  1.00  0.00     0.205 HD
ATOM     29  H10 UNL     1      -4.891  -7.211  20.199  1.00  0.00     0.190 HD
ENDBRANCH  19  22
ENDBRANCH  16  18
ENDBRANCH   1  16
BRANCH   2  30
HETATM   30  N4  UNL     1       0.163  -4.389  17.927  1.00  0.00    -0.344 N 
ATOM     31  H42 UNL     1       0.737  -3.653  17.514  1.00  0.00     0.176 HD
ATOM     32  H41 UNL     1       0.562  -5.323  18.025  1.00  0.00     0.176 HD
ENDBRANCH   2  30
TORSDOF 10
ENDMDL
MODEL 3
REMARK VINA RESULT: -6.836172848      2.130      7.165
REMARK  10 active torsions:
REMARK  status: ('A' for Active; 'I' for Inactive)
REMARK    1  A    between atoms: N1_1  and  C1_5 
REMARK    2  A    between atoms: C1_5  and  C2_6 
REMARK    3  A    between atoms: C2_6  and  C3_7 
REMARK    4  A    between atoms: C3_7  and  C4_8 
REMARK    5  A    between atoms: C4_8  and  N2_9 
REMARK    6  A    between atoms: C4_8  and  C5_13 
REMARK    7  A    between atoms: C5_13  and  N5_19 
REMARK    8  A    between atoms: N3_14  and  N4_16 
REMARK    9  A    between atoms: N5_19  and  N6_21 
REMARK       I    between atoms: N6_21  and  C6_23 
REMARK   10  A    between atoms: C6_23  and  C7_25 
ROOT
HETATM    1  C5  UNL     1      -1.011  -2.452  18.023  1.00  0.00     0.141 C 
HETATM    2  N3  UNL     1      -1.480  -1.546  18.792  1.00  0.00    -0.293 N 
ATOM      3  H3  UNL     1      -2.200  -1.822  19.461  1.00  0.00     0.187 HD
ENDROOT
BRANCH   1   4
HETATM    4  C4  UNL     1       0.025  -2.112  17.045  1.00  0.00     0.253 C 
BRANCH   4   5
HETATM    5  C3  UNL     1       1.170  -3.104  17.075  1.00  0.00     0.042 C 
BRANCH   5   6
HETATM    6  C2  UNL     1       2.512  -2.379  17.151  1.00  0.00     0.030 C 
BRANCH   6   7
HETATM    7  C1  UNL     1       2.416  -1.166  18.038  1.00  0.00     0.230 C 
BRANCH   7   8
HETATM    8  N1  UNL     1       2.699   0.048  17.317  1.00  0.00    -0.079 N 
ATOM      9  H13 UNL     1       2.940   0.810  17.952  1.00  0.00     0.274 HD
ATOM     10  H12 UNL     1       3.580  -0.019  16.807  1.00  0.00     0.274 HD
ATOM     11  H11 UNL     1       1.931   0.308  16.699  1.00  0.00     0.274 HD
ENDBRANCH   7   8
ENDBRANCH   6   7
ENDBRANCH   5   6
ENDBRANCH   4   5
BRANCH   4  12
HETATM   12  N2  UNL     1      -0.583  -2.246  15.713  1.00  0.00    -0.068 N 
ATOM     13  H23 UNL     1      -0.480  -3.178  15.309  1.00  0.00     0.275 HD
ATOM     14  H22 UNL     1      -1.603  -2.230  15.727  1.00  0.00     0.275 HD
ATOM     15  H21 UNL     1      -0.170  -1.506  15.145  1.00  0.00     0.275 HD
ENDBRANCH   4  12
ENDBRANCH   1   4
BRANCH   1  16
HETATM   16  N5  UNL     1      -1.495  -3.770  18.121  1.00  0.00    -0.283 N 
ATOM     17  H5  UNL     1      -1.180  -4.459  17.437  1.00  0.00     0.188 HD
BRANCH  16  18
HETATM   18  N6  UNL     1      -2.389  -4.172  19.117  1.00  0.00    -0.262 N 
HETATM   19  C6  UNL     1      -3.320  -5.206  18.853  1.00  0.00     0.306 C 
HETATM   20  O1  UNL     1      -3.339  -5.756  17.728  1.00  0.00    -0.262 OA
ATOM     21  H6  UNL     1      -2.371  -3.722  20.032  1.00  0.00     0.190 HD
BRANCH  19  22
HETATM   22  C7  UNL     1      -4.261  -5.642  19.875  1.00  0.00     0.205 A 
HETATM   23  N7  UNL     1      -5.343  -4.978  20.324  1.00  0.00    -0.262 N 
HETATM   24  N8  UNL     1      -5.945  -5.705  21.258  1.00  0.00    -0.005 NA
ATOM     25  H7  UNL     1      -5.652  -4.062  19.997  1.00  0.00     0.186 HD
HETATM   26  N9  UNL     1      -5.264  -6.829  21.418  1.00  0.00    -0.225 N 
HETATM   27  N10 UNL     1      -4.247  -6.790  20.584  1.00  0.00    -0.267 N 
ATOM     28  H9  UNL     1      -5.485  -7.583  22.067  1.00  0.00     0.205 HD
ATOM     29  H10 UNL     1      -3.546  -7.525  20.487  1.00  0.00     0.190 HD
ENDBRANCH  19  22
ENDBRANCH  16  18
ENDBRANCH   1  16
BRANCH   2  30
HETATM   30  N4  UNL     1      -1.082  -0.214  18.788  1.00  0.00    -0.344 N 
ATOM     31  H42 UNL     1      -0.517   0.089  17.994  1.00  0.00     0.176 HD
ATOM     32  H41 UNL     1      -1.314   0.467  19.512  1.00  0.00     0.176 HD
ENDBRANCH   2  30
TORSDOF 10
ENDMDL
MODEL 4
REMARK VINA RESULT: -6.670967799      2.166      6.466
REMARK  10 active torsions:
REMARK  status: ('A' for Active; 'I' for Inactive)
REMARK    1  A    between atoms: N1_1  and  C1_5 
REMARK    2  A    between atoms: C1_5  and  C2_6 
REMARK    3  A    between atoms: C2_6  and  C3_7 
REMARK    4  A    between atoms: C3_7  and  C4_8 
REMARK    5  A    between atoms: C4_8  and  N2_9 
REMARK    6  A    between atoms: C4_8  and  C5_13 
REMARK    7  A    between atoms: C5_13  and  N5_19 
REMARK    8  A    between atoms: N3_14  and  N4_16 
REMARK    9  A    between atoms: N5_19  and  N6_21 
REMARK       I    between atoms: N6_21  and  C6_23 
REMARK   10  A    between atoms: C6_23  and  C7_25 
ROOT
HETATM    1  C5  UNL     1      -1.945  -1.334  18.897  1.00  0.00     0.141 C 
HETATM    2  N3  UNL     1      -2.703  -0.431  19.392  1.00  0.00    -0.293 N 
ATOM      3  H3  UNL     1      -3.679  -0.675  19.560  1.00  0.00     0.187 HD
ENDROOT
BRANCH   1   4
HETATM    4  C4  UNL     1      -0.535  -1.038  18.635  1.00  0.00     0.253 C 
BRANCH   4   5
HETATM    5  C3  UNL     1       0.340  -2.256  18.849  1.00  0.00     0.042 C 
BRANCH   5   6
HETATM    6  C2  UNL     1       1.117  -2.593  17.576  1.00  0.00     0.030 C 
BRANCH   6   7
HETATM    7  C1  UNL     1       0.826  -4.000  17.128  1.00  0.00     0.230 C 
BRANCH   7   8
HETATM    8  N1  UNL     1      -0.116  -4.655  18.000  1.00  0.00    -0.079 N 
ATOM      9  H13 UNL     1       0.087  -5.651  18.086  1.00  0.00     0.274 HD
ATOM     10  H12 UNL     1       0.024  -4.379  18.972  1.00  0.00     0.274 HD
ATOM     11  H11 UNL     1      -1.079  -4.496  17.703  1.00  0.00     0.274 HD
ENDBRANCH   7   8
ENDBRANCH   6   7
ENDBRANCH   5   6
ENDBRANCH   4   5
BRANCH   4  12
HETATM   12  N2  UNL     1      -0.424  -0.714  17.206  1.00  0.00    -0.068 N 
ATOM     13  H23 UNL     1      -1.143  -0.068  16.875  1.00  0.00     0.275 HD
ATOM     14  H22 UNL     1       0.379  -0.127  16.981  1.00  0.00     0.275 HD
ATOM     15  H21 UNL     1      -0.425  -1.610  16.718  1.00  0.00     0.275 HD
ENDBRANCH   4  12
ENDBRANCH   1   4
BRANCH   1  16
HETATM   16  N5  UNL     1      -2.474  -2.605  18.607  1.00  0.00    -0.283 N 
ATOM     17  H5  UNL     1      -2.262  -3.029  17.703  1.00  0.00     0.188 HD
BRANCH  16  18
HETATM   18  N6  UNL     1      -3.277  -3.311  19.507  1.00  0.00    -0.262 N 
HETATM   19  C6  UNL     1      -3.632  -4.654  19.233  1.00  0.00     0.306 C 
HETATM   20  O1  UNL     1      -3.224  -5.205  18.184  1.00  0.00    -0.262 OA
ATOM     21  H6  UNL     1      -3.607  -2.860  20.360  1.00  0.00     0.190 HD
BRANCH  19  22
HETATM   22  C7  UNL     1      -4.467  -5.410  20.156  1.00  0.00     0.205 A 
HETATM   23  N7  UNL     1      -5.628  -5.016  20.713  1.00  0.00    -0.262 N 
HETATM   24  N8  UNL     1      -6.086  -5.984  21.499  1.00  0.00    -0.005 NA
ATOM     25  H7  UNL     1      -6.083  -4.116  20.558  1.00  0.00     0.186 HD
HETATM   26  N9  UNL     1      -5.234  -6.997  21.455  1.00  0.00    -0.225 N 
HETATM   27  N10 UNL     1      -4.257  -6.649  20.645  1.00  0.00    -0.267 N 
ATOM     28  H9  UNL     1      -5.319  -7.880  21.955  1.00  0.00     0.205 HD
ATOM     29  H10 UNL     1      -3.453  -7.235  20.418  1.00  0.00     0.190 HD
ENDBRANCH  19  22
ENDBRANCH  16  18
ENDBRANCH   1  16
BRANCH   2  30
HETATM   30  N4  UNL     1      -2.296   0.858  19.718  1.00  0.00    -0.344 N 
ATOM     31  H42 UNL     1      -1.298   1.053  19.638  1.00  0.00     0.176 HD
ATOM     32  H41 UNL     1      -2.918   1.606  20.025  1.00  0.00     0.176 HD
ENDBRANCH   2  30
TORSDOF 10
ENDMDL
MODEL 5
REMARK VINA RESULT: -6.650361905      1.100      1.834
REMARK  10 active torsions:
REMARK  status: ('A' for Active; 'I' for Inactive)
REMARK    1  A    between atoms: N1_1  and  C1_5 
REMARK    2  A    between atoms: C1_5  and  C2_6 
REMARK    3  A    between atoms: C2_6  and  C3_7 
REMARK    4  A    between atoms: C3_7  and  C4_8 
REMARK    5  A    between atoms: C4_8  and  N2_9 
REMARK    6  A    between atoms: C4_8  and  C5_13 
REMARK    7  A    between atoms: C5_13  and  N5_19 
REMARK    8  A    between atoms: N3_14  and  N4_16 
REMARK    9  A    between atoms: N5_19  and  N6_21 
REMARK       I    between atoms: N6_21  and  C6_23 
REMARK   10  A    between atoms: C6_23  and  C7_25 
ROOT
HETATM    1  C5  UNL     1      -3.244  -3.597  19.117  1.00  0.00     0.141 C 
HETATM    2  N3  UNL     1      -2.870  -4.653  18.502  1.00  0.00    -0.293 N 
ATOM      3  H3  UNL     1      -2.094  -4.565  17.844  1.00  0.00     0.187 HD
ENDROOT
BRANCH   1   4
HETATM    4  C4  UNL     1      -4.352  -3.666  20.072  1.00  0.00     0.253 C 
BRANCH   4   5
HETATM    5  C3  UNL     1      -3.855  -3.865  21.490  1.00  0.00     0.042 C 
BRANCH   5   6
HETATM    6  C2  UNL     1      -4.818  -4.749  22.280  1.00  0.00     0.030 C 
BRANCH   6   7
HETATM    7  C1  UNL     1      -5.409  -5.818  21.399  1.00  0.00     0.230 C 
BRANCH   7   8
HETATM    8  N1  UNL     1      -5.822  -6.970  22.160  1.00  0.00    -0.079 N 
ATOM      9  H13 UNL     1      -5.084  -7.281  22.792  1.00  0.00     0.274 HD
ATOM     10  H12 UNL     1      -6.532  -6.725  22.849  1.00  0.00     0.274 HD
ATOM     11  H11 UNL     1      -6.137  -7.728  21.555  1.00  0.00     0.274 HD
ENDBRANCH   7   8
ENDBRANCH   6   7
ENDBRANCH   5   6
ENDBRANCH   4   5
BRANCH   4  12
HETATM   12  N2  UNL     1      -5.008  -2.351  20.061  1.00  0.00    -0.068 N 
ATOM     13  H23 UNL     1      -5.229  -1.996  20.992  1.00  0.00     0.275 HD
ATOM     14  H22 UNL     1      -4.390  -1.588  19.784  1.00  0.00     0.275 HD
ATOM     15  H21 UNL     1      -5.825  -2.454  19.459  1.00  0.00     0.275 HD
ENDBRANCH   4  12
ENDBRANCH   1   4
BRANCH   1  16
HETATM   16  N5  UNL     1      -2.588  -2.376  18.871  1.00  0.00    -0.283 N 
ATOM     17  H5  UNL     1      -3.153  -1.542  18.706  1.00  0.00     0.188 HD
BRANCH  16  18
HETATM   18  N6  UNL     1      -1.196  -2.261  18.842  1.00  0.00    -0.262 N 
HETATM   19  C6  UNL     1      -0.495  -2.473  17.630  1.00  0.00     0.306 C 
HETATM   20  O1  UNL     1      -1.126  -2.763  16.587  1.00  0.00    -0.262 OA
ATOM     21  H6  UNL     1      -0.685  -2.025  19.692  1.00  0.00     0.190 HD
BRANCH  19  22
HETATM   22  C7  UNL     1       0.956  -2.358  17.576  1.00  0.00     0.205 A 
HETATM   23  N7  UNL     1       1.816  -3.184  16.951  1.00  0.00    -0.262 N 
HETATM   24  N8  UNL     1       3.056  -2.742  17.133  1.00  0.00    -0.005 NA
ATOM     25  H7  UNL     1       1.557  -4.017  16.422  1.00  0.00     0.186 HD
HETATM   26  N9  UNL     1       3.004  -1.643  17.867  1.00  0.00    -0.225 N 
HETATM   27  N10 UNL     1       1.737  -1.411  18.135  1.00  0.00    -0.267 N 
ATOM     28  H9  UNL     1       3.799  -1.080  18.169  1.00  0.00     0.205 HD
ATOM     29  H10 UNL     1       1.393  -0.626  18.688  1.00  0.00     0.190 HD
ENDBRANCH  19  22
ENDBRANCH  16  18
ENDBRANCH   1  16
BRANCH   2  30
HETATM   30  N4  UNL     1      -3.439  -5.911  18.661  1.00  0.00    -0.344 N 
ATOM     31  H42 UNL     1      -3.343  -6.340  19.582  1.00  0.00     0.176 HD
ATOM     32  H41 UNL     1      -3.937  -6.424  17.933  1.00  0.00     0.176 HD
ENDBRANCH   2  30
TORSDOF 10
ENDMDL
