MODEL 1
REMARK VINA RESULT: -7.588687746      0.000      0.000
REMARK  5 active torsions:
REMARK  status: ('A' for Active; 'I' for Inactive)
REMARK    1  A    between atoms: C2_2  and  C3_3 
REMARK    2  A    between atoms: C6_9  and  O2_10 
REMARK    3  A    between atoms: C8_16  and  C9_17 
REMARK    4  A    between atoms: C9_17  and  N3_18 
REMARK       I    between atoms: N3_18  and  C10_20 
REMARK    5  A    between atoms: C10_20  and  C11_22 
ROOT
HETATM    1  C3  UNL     1     -39.463 174.326  73.364  1.00  0.00     0.151 C 
HETATM    2  C4  UNL     1     -39.205 174.223  74.823  1.00  0.00     0.229 C 
HETATM    3  O1  UNL     1     -39.156 175.238  75.559  1.00  0.00    -0.273 OA
HETATM    4  N1  UNL     1     -39.016 172.911  75.335  1.00  0.00    -0.351 N 
ATOM      5  H1  UNL     1     -38.654 172.802  76.282  1.00  0.00     0.163 HD
HETATM    6  C5  UNL     1     -39.317 171.720  74.566  1.00  0.00     0.146 C 
HETATM    7  C6  UNL     1     -39.027 171.851  73.113  1.00  0.00     0.221 C 
HETATM    8  C7  UNL     1     -38.010 170.895  72.604  1.00  0.00     0.262 C 
HETATM    9  O3  UNL     1     -37.103 171.199  71.781  1.00  0.00    -0.270 OA
HETATM   10  N2  UNL     1     -38.072 169.567  73.076  1.00  0.00    -0.351 N 
ATOM     11  H2  UNL     1     -37.751 168.796  72.490  1.00  0.00     0.163 HD
HETATM   12  C8  UNL     1     -38.594 169.312  74.399  1.00  0.00     0.112 C 
HETATM   13  C12 UNL     1     -38.658 170.557  75.242  1.00  0.00    -0.001 C 
HETATM   14  C13 UNL     1     -37.267 170.947  75.719  1.00  0.00     0.019 C 
HETATM   15  C14 UNL     1     -39.467 170.224  76.480  1.00  0.00     0.019 C 
HETATM   16  C15 UNL     1     -38.660 173.264  72.718  1.00  0.00     0.185 C 
HETATM   17  O5  UNL     1     -37.766 173.476  71.926  1.00  0.00    -0.293 OA
ENDROOT
BRANCH  12  18
HETATM   18  C9  UNL     1     -39.926 168.596  74.345  1.00  0.00     0.148 C 
BRANCH  18  19
HETATM   19  N3  UNL     1     -39.807 167.224  74.784  1.00  0.00    -0.358 N 
HETATM   20  C10 UNL     1     -40.875 166.398  75.159  1.00  0.00     0.227 C 
HETATM   21  O4  UNL     1     -42.071 166.712  75.170  1.00  0.00    -0.273 OA
ATOM     22  H3  UNL     1     -38.869 166.825  74.823  1.00  0.00     0.162 HD
BRANCH  20  23
HETATM   23  C11 UNL     1     -40.550 164.990  75.591  1.00  0.00     0.187 C 
HETATM   24 BR1  UNL     1     -41.304 164.576  77.301  1.00  0.00    -0.087 Br
ENDBRANCH  20  23
ENDBRANCH  18  19
ENDBRANCH  12  18
BRANCH   7  25
HETATM   25  O2  UNL     1     -40.191 171.584  72.348  1.00  0.00    -0.371 OA
ATOM     26  H2  UNL     1     -39.969 171.478  71.431  1.00  0.00     0.211 HD
ENDBRANCH   7  25
BRANCH   1  27
HETATM   27  C2  UNL     1     -39.174 175.695  72.827  1.00  0.00     0.017 C 
HETATM   28  C1  UNL     1     -40.030 176.091  71.669  1.00  0.00     0.006 C 
ENDBRANCH   1  27
TORSDOF 5
ENDMDL
MODEL 2
REMARK VINA RESULT: -7.581911787      2.368      2.523
REMARK  5 active torsions:
REMARK  status: ('A' for Active; 'I' for Inactive)
REMARK    1  A    between atoms: C2_2  and  C3_3 
REMARK    2  A    between atoms: C6_9  and  O2_10 
REMARK    3  A    between atoms: C8_16  and  C9_17 
REMARK    4  A    between atoms: C9_17  and  N3_18 
REMARK       I    between atoms: N3_18  and  C10_20 
REMARK    5  A    between atoms: C10_20  and  C11_22 
ROOT
HETATM    1  C3  UNL     1     -39.540 174.342  72.426  1.00  0.00     0.151 C 
HETATM    2  C4  UNL     1     -39.518 174.498  73.902  1.00  0.00     0.229 C 
HETATM    3  O1  UNL     1     -39.749 175.600  74.454  1.00  0.00    -0.273 OA
HETATM    4  N1  UNL     1     -39.220 173.327  74.652  1.00  0.00    -0.351 N 
ATOM      5  H1  UNL     1     -39.010 173.423  75.645  1.00  0.00     0.163 HD
HETATM    6  C5  UNL     1     -39.203 172.003  74.062  1.00  0.00     0.146 C 
HETATM    7  C6  UNL     1     -38.696 171.973  72.663  1.00  0.00     0.221 C 
HETATM    8  C7  UNL     1     -37.475 171.149  72.474  1.00  0.00     0.262 C 
HETATM    9  O3  UNL     1     -36.499 171.487  71.748  1.00  0.00    -0.270 OA
HETATM   10  N2  UNL     1     -37.412 169.913  73.151  1.00  0.00    -0.351 N 
ATOM     11  H2  UNL     1     -36.884 169.135  72.757  1.00  0.00     0.163 HD
HETATM   12  C8  UNL     1     -38.104 169.764  74.411  1.00  0.00     0.112 C 
HETATM   13  C12 UNL     1     -38.498 171.085  75.012  1.00  0.00    -0.001 C 
HETATM   14  C13 UNL     1     -37.282 171.780  75.608  1.00  0.00     0.019 C 
HETATM   15  C14 UNL     1     -39.442 170.797  76.162  1.00  0.00     0.019 C 
HETATM   16  C15 UNL     1     -38.488 173.356  72.090  1.00  0.00     0.185 C 
HETATM   17  O5  UNL     1     -37.516 173.607  71.409  1.00  0.00    -0.293 OA
ENDROOT
BRANCH  12  18
HETATM   18  C9  UNL     1     -39.284 168.823  74.292  1.00  0.00     0.148 C 
BRANCH  18  19
HETATM   19  N3  UNL     1     -39.374 168.254  72.966  1.00  0.00    -0.358 N 
HETATM   20  C10 UNL     1     -40.465 168.394  72.098  1.00  0.00     0.227 C 
HETATM   21  O4  UNL     1     -41.507 169.020  72.329  1.00  0.00    -0.273 OA
ATOM     22  H3  UNL     1     -38.579 167.707  72.636  1.00  0.00     0.162 HD
BRANCH  20  23
HETATM   23  C11 UNL     1     -40.375 167.724  70.750  1.00  0.00     0.187 C 
HETATM   24 BR1  UNL     1     -38.901 168.383  69.721  1.00  0.00    -0.087 Br
ENDBRANCH  20  23
ENDBRANCH  18  19
ENDBRANCH  12  18
BRANCH   7  25
HETATM   25  O2  UNL     1     -39.661 171.397  71.798  1.00  0.00    -0.371 OA
ATOM     26  H2  UNL     1     -39.862 171.990  71.084  1.00  0.00     0.211 HD
ENDBRANCH   7  25
BRANCH   1  27
HETATM   27  C2  UNL     1     -39.376 175.649  71.709  1.00  0.00     0.017 C 
HETATM   28  C1  UNL     1     -40.568 176.060  70.909  1.00  0.00     0.006 C 
ENDBRANCH   1  27
TORSDOF 5
ENDMDL
MODEL 3
REMARK VINA RESULT: -7.132471226      1.273      1.273
REMARK  5 active torsions:
REMARK  status: ('A' for Active; 'I' for Inactive)
REMARK    1  A    between atoms: C2_2  and  C3_3 
REMARK    2  A    between atoms: C6_9  and  O2_10 
REMARK    3  A    between atoms: C8_16  and  C9_17 
REMARK    4  A    between atoms: C9_17  and  N3_18 
REMARK       I    between atoms: N3_18  and  C10_20 
REMARK    5  A    between atoms: C10_20  and  C11_22 
ROOT
HETATM    1  C3  UNL     1     -39.461 174.312  73.394  1.00  0.00     0.151 C 
HETATM    2  C4  UNL     1     -39.195 174.191  74.850  1.00  0.00     0.229 C 
HETATM    3  O1  UNL     1     -39.171 175.195  75.603  1.00  0.00    -0.273 OA
HETATM    4  N1  UNL     1     -38.971 172.876  75.341  1.00  0.00    -0.351 N 
ATOM      5  H1  UNL     1     -38.603 172.762  76.285  1.00  0.00     0.163 HD
HETATM    6  C5  UNL     1     -39.244 171.690  74.553  1.00  0.00     0.146 C 
HETATM    7  C6  UNL     1     -38.962 171.853  73.101  1.00  0.00     0.221 C 
HETATM    8  C7  UNL     1     -37.923 170.932  72.573  1.00  0.00     0.262 C 
HETATM    9  O3  UNL     1     -37.026 171.273  71.753  1.00  0.00    -0.270 OA
HETATM   10  N2  UNL     1     -37.948 169.596  73.023  1.00  0.00    -0.351 N 
ATOM     11  H2  UNL     1     -37.610 168.843  72.424  1.00  0.00     0.163 HD
HETATM   12  C8  UNL     1     -38.460 169.306  74.344  1.00  0.00     0.112 C 
HETATM   13  C12 UNL     1     -38.553 170.534  75.207  1.00  0.00    -0.001 C 
HETATM   14  C13 UNL     1     -37.171 170.952  75.687  1.00  0.00     0.019 C 
HETATM   15  C14 UNL     1     -39.349 170.160  76.442  1.00  0.00     0.019 C 
HETATM   16  C15 UNL     1     -38.633 173.281  72.729  1.00  0.00     0.185 C 
HETATM   17  O5  UNL     1     -37.748 173.530  71.938  1.00  0.00    -0.293 OA
ENDROOT
BRANCH  12  18
HETATM   18  C9  UNL     1     -39.773 168.556  74.282  1.00  0.00     0.148 C 
BRANCH  18  19
HETATM   19  N3  UNL     1     -39.568 167.126  74.330  1.00  0.00    -0.358 N 
HETATM   20  C10 UNL     1     -39.257 166.316  73.230  1.00  0.00     0.227 C 
HETATM   21  O4  UNL     1     -39.109 166.695  72.062  1.00  0.00    -0.273 OA
ATOM     22  H3  UNL     1     -39.658 166.670  75.238  1.00  0.00     0.162 HD
BRANCH  20  23
HETATM   23  C11 UNL     1     -39.082 164.839  73.479  1.00  0.00     0.187 C 
HETATM   24 BR1  UNL     1     -40.163 164.226  74.935  1.00  0.00    -0.087 Br
ENDBRANCH  20  23
ENDBRANCH  18  19
ENDBRANCH  12  18
BRANCH   7  25
HETATM   25  O2  UNL     1     -40.121 171.569  72.335  1.00  0.00    -0.371 OA
ATOM     26  H2  UNL     1     -39.964 170.834  71.754  1.00  0.00     0.211 HD
ENDBRANCH   7  25
BRANCH   1  27
HETATM   27  C2  UNL     1     -39.209 175.697  72.879  1.00  0.00     0.017 C 
HETATM   28  C1  UNL     1     -40.071 176.085  71.723  1.00  0.00     0.006 C 
ENDBRANCH   1  27
TORSDOF 5
ENDMDL
MODEL 4
REMARK VINA RESULT: -7.064926288      3.300      5.268
REMARK  5 active torsions:
REMARK  status: ('A' for Active; 'I' for Inactive)
REMARK    1  A    between atoms: C2_2  and  C3_3 
REMARK    2  A    between atoms: C6_9  and  O2_10 
REMARK    3  A    between atoms: C8_16  and  C9_17 
REMARK    4  A    between atoms: C9_17  and  N3_18 
REMARK       I    between atoms: N3_18  and  C10_20 
REMARK    5  A    between atoms: C10_20  and  C11_22 
ROOT
HETATM    1  C3  UNL     1     -37.532 170.817  70.375  1.00  0.00     0.151 C 
HETATM    2  C4  UNL     1     -38.426 169.632  70.425  1.00  0.00     0.229 C 
HETATM    3  O1  UNL     1     -38.560 168.864  69.442  1.00  0.00    -0.273 OA
HETATM    4  N1  UNL     1     -39.120 169.420  71.647  1.00  0.00    -0.351 N 
ATOM      5  H1  UNL     1     -39.878 168.739  71.668  1.00  0.00     0.163 HD
HETATM    6  C5  UNL     1     -38.793 170.133  72.866  1.00  0.00     0.146 C 
HETATM    7  C6  UNL     1     -38.370 171.543  72.645  1.00  0.00     0.221 C 
HETATM    8  C7  UNL     1     -39.246 172.553  73.293  1.00  0.00     0.262 C 
HETATM    9  O3  UNL     1     -39.596 173.637  72.750  1.00  0.00    -0.270 OA
HETATM   10  N2  UNL     1     -39.708 172.273  74.596  1.00  0.00    -0.351 N 
ATOM     11  H2  UNL     1     -39.905 173.032  75.248  1.00  0.00     0.163 HD
HETATM   12  C8  UNL     1     -39.901 170.897  74.995  1.00  0.00     0.112 C 
HETATM   13  C12 UNL     1     -39.932 169.956  73.822  1.00  0.00    -0.001 C 
HETATM   14  C13 UNL     1     -41.258 170.070  73.085  1.00  0.00     0.019 C 
HETATM   15  C14 UNL     1     -39.857 168.546  74.372  1.00  0.00     0.019 C 
HETATM   16  C15 UNL     1     -38.186 171.872  71.181  1.00  0.00     0.185 C 
HETATM   17  O5  UNL     1     -38.560 172.935  70.731  1.00  0.00    -0.293 OA
ENDROOT
BRANCH  12  18
HETATM   18  C9  UNL     1     -38.889 170.471  76.036  1.00  0.00     0.148 C 
BRANCH  18  19
HETATM   19  N3  UNL     1     -37.763 171.377  76.080  1.00  0.00    -0.358 N 
HETATM   20  C10 UNL     1     -36.617 171.205  76.868  1.00  0.00     0.227 C 
HETATM   21  O4  UNL     1     -36.394 170.263  77.638  1.00  0.00    -0.273 OA
ATOM     22  H3  UNL     1     -37.806 172.207  75.489  1.00  0.00     0.162 HD
BRANCH  20  23
HETATM   23  C11 UNL     1     -35.545 172.262  76.780  1.00  0.00     0.187 C 
HETATM   24 BR1  UNL     1     -34.492 172.348  78.376  1.00  0.00    -0.087 Br
ENDBRANCH  20  23
ENDBRANCH  18  19
ENDBRANCH  12  18
BRANCH   7  25
HETATM   25  O2  UNL     1     -37.084 171.768  73.199  1.00  0.00    -0.371 OA
ATOM     26  H2  UNL     1     -37.145 172.331  73.962  1.00  0.00     0.211 HD
ENDBRANCH   7  25
BRANCH   1  27
HETATM   27  C2  UNL     1     -37.227 171.247  68.972  1.00  0.00     0.017 C 
HETATM   28  C1  UNL     1     -35.775 171.224  68.627  1.00  0.00     0.006 C 
ENDBRANCH   1  27
TORSDOF 5
ENDMDL
MODEL 5
REMARK VINA RESULT: -6.885217284      1.487      1.640
REMARK  5 active torsions:
REMARK  status: ('A' for Active; 'I' for Inactive)
REMARK    1  A    between atoms: C2_2  and  C3_3 
REMARK    2  A    between atoms: C6_9  and  O2_10 
REMARK    3  A    between atoms: C8_16  and  C9_17 
REMARK    4  A    between atoms: C9_17  and  N3_18 
REMARK       I    between atoms: N3_18  and  C10_20 
REMARK    5  A    between atoms: C10_20  and  C11_22 
ROOT
HETATM    1  C3  UNL     1     -39.266 173.199  73.329  1.00  0.00     0.151 C 
HETATM    2  C4  UNL     1     -38.403 172.762  74.456  1.00  0.00     0.229 C 
HETATM    3  O1  UNL     1     -37.741 173.580  75.138  1.00  0.00    -0.273 OA
HETATM    4  N1  UNL     1     -38.372 171.365  74.717  1.00  0.00    -0.351 N 
ATOM      5  H1  UNL     1     -37.659 171.001  75.349  1.00  0.00     0.163 HD
HETATM    6  C5  UNL     1     -39.312 170.436  74.120  1.00  0.00     0.146 C 
HETATM    7  C6  UNL     1     -39.702 170.785  72.727  1.00  0.00     0.221 C 
HETATM    8  C7  UNL     1     -39.346 169.755  71.717  1.00  0.00     0.262 C 
HETATM    9  O3  UNL     1     -38.877 170.018  70.575  1.00  0.00    -0.270 OA
HETATM   10  N2  UNL     1     -39.548 168.404  72.066  1.00  0.00    -0.351 N 
ATOM     11  H2  UNL     1     -39.763 167.712  71.348  1.00  0.00     0.163 HD
HETATM   12  C8  UNL     1     -39.448 168.011  73.453  1.00  0.00     0.112 C 
HETATM   13  C12 UNL     1     -38.767 169.052  74.298  1.00  0.00    -0.001 C 
HETATM   14  C13 UNL     1     -37.267 169.042  74.046  1.00  0.00     0.019 C 
HETATM   15  C14 UNL     1     -38.969 168.661  75.748  1.00  0.00     0.019 C 
HETATM   16  C15 UNL     1     -39.183 172.139  72.299  1.00  0.00     0.185 C 
HETATM   17  O5  UNL     1     -38.737 172.310  71.185  1.00  0.00    -0.293 OA
ENDROOT
BRANCH  12  18
HETATM   18  C9  UNL     1     -40.794 167.614  74.020  1.00  0.00     0.148 C 
BRANCH  18  19
HETATM   19  N3  UNL     1     -40.754 166.288  74.595  1.00  0.00    -0.358 N 
HETATM   20  C10 UNL     1     -41.699 165.764  75.487  1.00  0.00     0.227 C 
HETATM   21  O4  UNL     1     -42.703 166.348  75.914  1.00  0.00    -0.273 OA
ATOM     22  H3  UNL     1     -39.976 165.685  74.329  1.00  0.00     0.162 HD
BRANCH  20  23
HETATM   23  C11 UNL     1     -41.487 164.356  75.982  1.00  0.00     0.187 C 
HETATM   24 BR1  UNL     1     -41.553 164.252  77.892  1.00  0.00    -0.087 Br
ENDBRANCH  20  23
ENDBRANCH  18  19
ENDBRANCH  12  18
BRANCH   7  25
HETATM   25  O2  UNL     1     -41.109 170.922  72.626  1.00  0.00    -0.371 OA
ATOM     26  H2  UNL     1     -41.471 171.250  73.440  1.00  0.00     0.211 HD
ENDBRANCH   7  25
BRANCH   1  27
HETATM   27  C2  UNL     1     -38.891 174.555  72.813  1.00  0.00     0.017 C 
HETATM   28  C1  UNL     1     -39.776 175.658  73.292  1.00  0.00     0.006 C 
ENDBRANCH   1  27
TORSDOF 5
ENDMDL
