MODEL 1
REMARK VINA RESULT: -6.553176481      0.000      0.000
REMARK  5 active torsions:
REMARK  status: ('A' for Active; 'I' for Inactive)
REMARK    1  A    between atoms: C4_6  and  C5_7 
REMARK    2  A    between atoms: C9_12  and  O1_13 
REMARK    3  A    between atoms: N3_20  and  C13_22 
REMARK    4  A    between atoms: C13_22  and  C14_23 
REMARK    5  A    between atoms: C14_23  and  N4_24 
ROOT
HETATM    1  C1  UNL     1     -41.438 169.760  72.882  1.00  0.00     0.047 C 
HETATM    2  C2  UNL     1     -40.185 169.811  72.431  1.00  0.00     0.078 A 
HETATM    3  N1  UNL     1     -39.504 170.968  72.427  1.00  0.00    -0.340 N 
ATOM      4  H1  UNL     1     -39.945 171.821  72.772  1.00  0.00     0.167 HD
HETATM    5  C3  UNL     1     -38.241 171.001  71.968  1.00  0.00     0.108 A 
HETATM    6  C4  UNL     1     -37.597 172.174  71.982  1.00  0.00     0.060 C 
HETATM    7  N2  UNL     1     -37.673 169.888  71.520  1.00  0.00    -0.325 N 
ATOM      8  H2  UNL     1     -36.714 169.946  71.178  1.00  0.00     0.169 HD
HETATM    9  C12 UNL     1     -38.292 168.668  71.488  1.00  0.00     0.160 A 
HETATM   10  N3  UNL     1     -37.689 167.643  71.046  1.00  0.00    -0.351 N 
ATOM     11  H3  UNL     1     -36.737 167.831  70.734  1.00  0.00     0.166 HD
HETATM   12  C17 UNL     1     -39.579 168.637  71.955  1.00  0.00     0.241 A 
HETATM   13  O2  UNL     1     -40.268 167.580  71.984  1.00  0.00    -0.282 OA
ENDROOT
BRANCH   6  14
HETATM   14  C5  UNL     1     -38.239 173.371  72.475  1.00  0.00    -0.023 A 
HETATM   15  C6  UNL     1     -38.991 174.106  71.578  1.00  0.00     0.031 A 
HETATM   16  C7  UNL     1     -39.600 175.254  72.075  1.00  0.00     0.014 A 
HETATM   17 BR1  UNL     1     -40.650 176.319  70.907  1.00  0.00    -0.051 Br
HETATM   18  C8  UNL     1     -39.452 175.627  73.396  1.00  0.00     0.056 A 
HETATM   19  C9  UNL     1     -38.691 174.863  74.257  1.00  0.00     0.073 A 
HETATM   20  C10 UNL     1     -38.077 173.722  73.797  1.00  0.00    -0.018 A 
HETATM   21  C11 UNL     1     -37.244 172.879  74.726  1.00  0.00     0.052 C 
BRANCH  19  22
HETATM   22  O1  UNL     1     -38.537 175.225  75.579  1.00  0.00    -0.360 OA
ATOM     23  H1  UNL     1     -38.092 176.030  75.817  1.00  0.00     0.217 HD
ENDBRANCH  19  22
ENDBRANCH   6  14
BRANCH  10  24
HETATM   24  C13 UNL     1     -38.073 166.302  70.901  1.00  0.00     0.092 C 
BRANCH  24  25
HETATM   25  C14 UNL     1     -37.233 165.435  71.808  1.00  0.00     0.315 C 
BRANCH  25  26
HETATM   26  N4  UNL     1     -37.970 164.762  72.815  1.00  0.00     0.084 N 
HETATM   27  C15 UNL     1     -39.203 164.220  72.275  1.00  0.00     0.309 C 
HETATM   28  C16 UNL     1     -38.215 165.512  74.002  1.00  0.00     0.309 C 
ENDBRANCH  25  26
ENDBRANCH  24  25
ENDBRANCH  10  24
TORSDOF 5
ENDMDL
MODEL 2
REMARK VINA RESULT: -6.505585721      4.820      6.077
REMARK  5 active torsions:
REMARK  status: ('A' for Active; 'I' for Inactive)
REMARK    1  A    between atoms: C4_6  and  C5_7 
REMARK    2  A    between atoms: C9_12  and  O1_13 
REMARK    3  A    between atoms: N3_20  and  C13_22 
REMARK    4  A    between atoms: C13_22  and  C14_23 
REMARK    5  A    between atoms: C14_23  and  N4_24 
ROOT
HETATM    1  C1  UNL     1     -38.697 168.815  75.197  1.00  0.00     0.047 C 
HETATM    2  C2  UNL     1     -37.902 169.783  75.652  1.00  0.00     0.078 A 
HETATM    3  N1  UNL     1     -37.816 170.959  75.009  1.00  0.00    -0.340 N 
ATOM      4  H1  UNL     1     -38.364 171.119  74.164  1.00  0.00     0.167 HD
HETATM    5  C3  UNL     1     -37.008 171.923  75.482  1.00  0.00     0.108 A 
HETATM    6  C4  UNL     1     -36.952 173.080  74.813  1.00  0.00     0.060 C 
HETATM    7  N2  UNL     1     -36.298 171.708  76.582  1.00  0.00    -0.325 N 
ATOM      8  H2  UNL     1     -35.694 172.459  76.915  1.00  0.00     0.169 HD
HETATM    9  C12 UNL     1     -36.324 170.543  77.299  1.00  0.00     0.160 A 
HETATM   10  N3  UNL     1     -35.618 170.404  78.344  1.00  0.00    -0.351 N 
ATOM     11  H3  UNL     1     -35.058 171.225  78.572  1.00  0.00     0.166 HD
HETATM   12  C17 UNL     1     -37.147 169.561  76.816  1.00  0.00     0.241 A 
HETATM   13  O2  UNL     1     -37.269 168.436  77.376  1.00  0.00    -0.282 OA
ENDROOT
BRANCH   6  14
HETATM   14  C5  UNL     1     -37.736 173.289  73.617  1.00  0.00    -0.023 A 
HETATM   15  C6  UNL     1     -37.465 172.481  72.528  1.00  0.00     0.031 A 
HETATM   16  C7  UNL     1     -38.231 172.699  71.388  1.00  0.00     0.014 A 
HETATM   17 BR1  UNL     1     -37.921 171.632  69.850  1.00  0.00    -0.051 Br
HETATM   18  C8  UNL     1     -39.209 173.675  71.361  1.00  0.00     0.056 A 
HETATM   19  C9  UNL     1     -39.446 174.459  72.471  1.00  0.00     0.073 A 
HETATM   20  C10 UNL     1     -38.706 174.268  73.613  1.00  0.00    -0.018 A 
HETATM   21  C11 UNL     1     -38.954 175.116  74.832  1.00  0.00     0.052 C 
BRANCH  19  22
HETATM   22  O1  UNL     1     -40.420 175.436  72.455  1.00  0.00    -0.360 OA
ATOM     23  H1  UNL     1     -41.147 175.411  73.065  1.00  0.00     0.217 HD
ENDBRANCH  19  22
ENDBRANCH   6  14
BRANCH  10  24
HETATM   24  C13 UNL     1     -35.455 169.345  79.249  1.00  0.00     0.092 C 
BRANCH  24  25
HETATM   25  C14 UNL     1     -35.632 169.853  80.659  1.00  0.00     0.315 C 
BRANCH  25  26
HETATM   26  N4  UNL     1     -34.527 169.598  81.512  1.00  0.00     0.084 N 
HETATM   27  C15 UNL     1     -33.618 170.727  81.527  1.00  0.00     0.309 C 
HETATM   28  C16 UNL     1     -33.830 168.379  81.265  1.00  0.00     0.309 C 
ENDBRANCH  25  26
ENDBRANCH  24  25
ENDBRANCH  10  24
TORSDOF 5
ENDMDL
MODEL 3
REMARK VINA RESULT: -6.425843325      1.353      2.225
REMARK  5 active torsions:
REMARK  status: ('A' for Active; 'I' for Inactive)
REMARK    1  A    between atoms: C4_6  and  C5_7 
REMARK    2  A    between atoms: C9_12  and  O1_13 
REMARK    3  A    between atoms: N3_20  and  C13_22 
REMARK    4  A    between atoms: C13_22  and  C14_23 
REMARK    5  A    between atoms: C14_23  and  N4_24 
ROOT
HETATM    1  C1  UNL     1     -41.271 169.622  72.547  1.00  0.00     0.047 C 
HETATM    2  C2  UNL     1     -40.013 169.746  72.128  1.00  0.00     0.078 A 
HETATM    3  N1  UNL     1     -39.394 170.938  72.159  1.00  0.00    -0.340 N 
ATOM      4  H1  UNL     1     -39.887 171.760  72.508  1.00  0.00     0.167 HD
HETATM    5  C3  UNL     1     -38.124 171.044  71.731  1.00  0.00     0.108 A 
HETATM    6  C4  UNL     1     -37.543 172.249  71.780  1.00  0.00     0.060 C 
HETATM    7  N2  UNL     1     -37.488 169.971  71.280  1.00  0.00    -0.325 N 
ATOM      8  H2  UNL     1     -36.525 170.085  70.962  1.00  0.00     0.169 HD
HETATM    9  C12 UNL     1     -38.040 168.721  71.212  1.00  0.00     0.160 A 
HETATM   10  N3  UNL     1     -37.374 167.736  70.768  1.00  0.00    -0.351 N 
ATOM     11  H3  UNL     1     -36.426 167.980  70.483  1.00  0.00     0.166 HD
HETATM   12  C17 UNL     1     -39.334 168.614  71.648  1.00  0.00     0.241 A 
HETATM   13  O2  UNL     1     -39.967 167.522  71.642  1.00  0.00    -0.282 OA
ENDROOT
BRANCH   6  14
HETATM   14  C5  UNL     1     -38.259 173.402  72.277  1.00  0.00    -0.023 A 
HETATM   15  C6  UNL     1     -38.976 174.150  71.363  1.00  0.00     0.031 A 
HETATM   16  C7  UNL     1     -39.657 175.255  71.863  1.00  0.00     0.014 A 
HETATM   17 BR1  UNL     1     -40.665 176.334  70.671  1.00  0.00    -0.051 Br
HETATM   18  C8  UNL     1     -39.610 175.575  73.206  1.00  0.00     0.056 A 
HETATM   19  C9  UNL     1     -38.881 174.800  74.084  1.00  0.00     0.073 A 
HETATM   20  C10 UNL     1     -38.197 173.701  73.621  1.00  0.00    -0.018 A 
HETATM   21  C11 UNL     1     -37.397 172.847  74.569  1.00  0.00     0.052 C 
BRANCH  19  22
HETATM   22  O1  UNL     1     -38.827 175.110  75.427  1.00  0.00    -0.360 OA
ATOM     23  H1  UNL     1     -38.138 175.664  75.774  1.00  0.00     0.217 HD
ENDBRANCH  19  22
ENDBRANCH   6  14
BRANCH  10  24
HETATM   24  C13 UNL     1     -37.683 166.380  70.593  1.00  0.00     0.092 C 
BRANCH  24  25
HETATM   25  C14 UNL     1     -37.835 166.082  69.121  1.00  0.00     0.315 C 
BRANCH  25  26
HETATM   26  N4  UNL     1     -36.992 166.853  68.281  1.00  0.00     0.084 N 
HETATM   27  C15 UNL     1     -37.744 167.421  67.178  1.00  0.00     0.309 C 
HETATM   28  C16 UNL     1     -35.817 166.192  67.817  1.00  0.00     0.309 C 
ENDBRANCH  25  26
ENDBRANCH  24  25
ENDBRANCH  10  24
TORSDOF 5
ENDMDL
MODEL 4
REMARK VINA RESULT: -6.218468513      5.520      8.300
REMARK  5 active torsions:
REMARK  status: ('A' for Active; 'I' for Inactive)
REMARK    1  A    between atoms: C4_6  and  C5_7 
REMARK    2  A    between atoms: C9_12  and  O1_13 
REMARK    3  A    between atoms: N3_20  and  C13_22 
REMARK    4  A    between atoms: C13_22  and  C14_23 
REMARK    5  A    between atoms: C14_23  and  N4_24 
ROOT
HETATM    1  C1  UNL     1     -38.547 169.236  76.325  1.00  0.00     0.047 C 
HETATM    2  C2  UNL     1     -37.811 170.337  76.174  1.00  0.00     0.078 A 
HETATM    3  N1  UNL     1     -36.609 170.444  76.763  1.00  0.00    -0.340 N 
ATOM      4  H1  UNL     1     -36.250 169.678  77.333  1.00  0.00     0.167 HD
HETATM    5  C3  UNL     1     -35.881 171.562  76.601  1.00  0.00     0.108 A 
HETATM    6  C4  UNL     1     -34.688 171.628  77.204  1.00  0.00     0.060 C 
HETATM    7  N2  UNL     1     -36.354 172.555  75.859  1.00  0.00    -0.325 N 
ATOM      8  H2  UNL     1     -35.777 173.390  75.755  1.00  0.00     0.169 HD
HETATM    9  C12 UNL     1     -37.565 172.531  75.223  1.00  0.00     0.160 A 
HETATM   10  N3  UNL     1     -37.957 173.518  74.528  1.00  0.00    -0.351 N 
ATOM     11  H3  UNL     1     -37.292 174.290  74.503  1.00  0.00     0.166 HD
HETATM   12  C17 UNL     1     -38.307 171.391  75.391  1.00  0.00     0.241 A 
HETATM   13  O2  UNL     1     -39.442 171.234  74.863  1.00  0.00    -0.282 OA
ENDROOT
BRANCH   6  14
HETATM   14  C5  UNL     1     -34.197 170.532  78.007  1.00  0.00    -0.023 A 
HETATM   15  C6  UNL     1     -33.484 169.539  77.362  1.00  0.00     0.031 A 
HETATM   16  C7  UNL     1     -33.021 168.494  78.154  1.00  0.00     0.014 A 
HETATM   17 BR1  UNL     1     -32.033 167.090  77.344  1.00  0.00    -0.051 Br
HETATM   18  C8  UNL     1     -33.267 168.464  79.513  1.00  0.00     0.056 A 
HETATM   19  C9  UNL     1     -33.984 169.477  80.116  1.00  0.00     0.073 A 
HETATM   20  C10 UNL     1     -34.455 170.524  79.361  1.00  0.00    -0.018 A 
HETATM   21  C11 UNL     1     -35.238 171.637  80.006  1.00  0.00     0.052 C 
BRANCH  19  22
HETATM   22  O1  UNL     1     -34.235 169.458  81.473  1.00  0.00    -0.360 OA
ATOM     23  H1  UNL     1     -33.770 168.863  82.048  1.00  0.00     0.217 HD
ENDBRANCH  19  22
ENDBRANCH   6  14
BRANCH  10  24
HETATM   24  C13 UNL     1     -39.123 173.757  73.787  1.00  0.00     0.092 C 
BRANCH  24  25
HETATM   25  C14 UNL     1     -38.755 174.275  72.418  1.00  0.00     0.315 C 
BRANCH  25  26
HETATM   26  N4  UNL     1     -39.291 175.554  72.117  1.00  0.00     0.084 N 
HETATM   27  C15 UNL     1     -40.084 176.052  73.224  1.00  0.00     0.309 C 
HETATM   28  C16 UNL     1     -40.007 175.645  70.888  1.00  0.00     0.309 C 
ENDBRANCH  25  26
ENDBRANCH  24  25
ENDBRANCH  10  24
TORSDOF 5
ENDMDL
MODEL 5
REMARK VINA RESULT: -6.124736320      2.024      2.455
REMARK  5 active torsions:
REMARK  status: ('A' for Active; 'I' for Inactive)
REMARK    1  A    between atoms: C4_6  and  C5_7 
REMARK    2  A    between atoms: C9_12  and  O1_13 
REMARK    3  A    between atoms: N3_20  and  C13_22 
REMARK    4  A    between atoms: C13_22  and  C14_23 
REMARK    5  A    between atoms: C14_23  and  N4_24 
ROOT
HETATM    1  C1  UNL     1     -41.300 170.272  72.894  1.00  0.00     0.047 C 
HETATM    2  C2  UNL     1     -40.004 170.568  72.801  1.00  0.00     0.078 A 
HETATM    3  N1  UNL     1     -39.603 171.835  72.607  1.00  0.00    -0.340 N 
ATOM      4  H1  UNL     1     -40.292 172.583  72.531  1.00  0.00     0.167 HD
HETATM    5  C3  UNL     1     -38.291 172.115  72.514  1.00  0.00     0.108 A 
HETATM    6  C4  UNL     1     -37.933 173.390  72.322  1.00  0.00     0.060 C 
HETATM    7  N2  UNL     1     -37.400 171.137  72.614  1.00  0.00    -0.325 N 
ATOM      8  H2  UNL     1     -36.412 171.382  72.539  1.00  0.00     0.169 HD
HETATM    9  C12 UNL     1     -37.719 169.822  72.810  1.00  0.00     0.160 A 
HETATM   10  N3  UNL     1     -36.815 168.936  72.896  1.00  0.00    -0.351 N 
ATOM     11  H3  UNL     1     -35.869 169.307  72.805  1.00  0.00     0.166 HD
HETATM   12  C17 UNL     1     -39.056 169.538  72.904  1.00  0.00     0.241 A 
HETATM   13  O2  UNL     1     -39.493 168.368  73.085  1.00  0.00    -0.282 OA
ENDROOT
BRANCH   6  14
HETATM   14  C5  UNL     1     -38.925 174.436  72.217  1.00  0.00    -0.023 A 
HETATM   15  C6  UNL     1     -39.352 174.784  70.950  1.00  0.00     0.031 A 
HETATM   16  C7  UNL     1     -40.306 175.793  70.873  1.00  0.00     0.014 A 
HETATM   17 BR1  UNL     1     -40.945 176.329  69.169  1.00  0.00    -0.051 Br
HETATM   18  C8  UNL     1     -40.793 176.404  72.012  1.00  0.00     0.056 A 
HETATM   19  C9  UNL     1     -40.338 176.025  73.258  1.00  0.00     0.073 A 
HETATM   20  C10 UNL     1     -39.395 175.031  73.368  1.00  0.00    -0.018 A 
HETATM   21  C11 UNL     1     -38.889 174.607  74.722  1.00  0.00     0.052 C 
BRANCH  19  22
HETATM   22  O1  UNL     1     -40.817 176.629  74.402  1.00  0.00    -0.360 OA
ATOM     23  H1  UNL     1     -40.603 176.286  75.261  1.00  0.00     0.217 HD
ENDBRANCH  19  22
ENDBRANCH   6  14
BRANCH  10  24
HETATM   24  C13 UNL     1     -36.857 167.548  73.092  1.00  0.00     0.092 C 
BRANCH  24  25
HETATM   25  C14 UNL     1     -36.317 167.214  74.462  1.00  0.00     0.315 C 
BRANCH  25  26
HETATM   26  N4  UNL     1     -37.028 167.819  75.530  1.00  0.00     0.084 N 
HETATM   27  C15 UNL     1     -36.113 168.325  76.535  1.00  0.00     0.309 C 
HETATM   28  C16 UNL     1     -38.048 167.018  76.120  1.00  0.00     0.309 C 
ENDBRANCH  25  26
ENDBRANCH  24  25
ENDBRANCH  10  24
TORSDOF 5
ENDMDL
