MODEL 1
REMARK VINA RESULT: -6.460263049      0.000      0.000
REMARK  5 active torsions:
REMARK  status: ('A' for Active; 'I' for Inactive)
REMARK    1  A    between atoms: N3_8  and  C4_10 
REMARK    2  A    between atoms: C8_15  and  N5_16 
REMARK    3  A    between atoms: N5_16  and  C9_18 
REMARK    4  A    between atoms: C9_18  and  C10_19 
REMARK    5  A    between atoms: C12_26  and  C13_27 
ROOT
HETATM    1  C1  UNL     1     -39.785 175.631  73.055  1.00  0.00     0.149 C 
HETATM    2  N1  UNL     1     -39.556 174.919  71.855  1.00  0.00    -0.366 N 
ATOM      3  H1  UNL     1     -40.082 175.213  71.032  1.00  0.00     0.162 HD
HETATM    4  C2  UNL     1     -38.710 173.897  71.708  1.00  0.00     0.183 C 
HETATM    5  N2  UNL     1     -37.917 173.385  72.754  1.00  0.00    -0.317 N 
ATOM      6  H2  UNL     1     -37.155 173.988  73.065  1.00  0.00     0.170 HD
HETATM    7  C3  UNL     1     -38.043 172.058  73.484  1.00  0.00     0.098 C 
HETATM    8  N3  UNL     1     -37.642 171.923  74.677  1.00  0.00    -0.374 N 
ATOM      9  H3  UNL     1     -37.234 172.758  75.097  1.00  0.00     0.161 HD
HETATM   10  C7  UNL     1     -38.754 171.035  72.721  1.00  0.00     0.219 C 
HETATM   11  N4  UNL     1     -38.104 170.339  71.649  1.00  0.00    -0.189 N 
HETATM   12  C8  UNL     1     -38.876 169.506  70.957  1.00  0.00     0.680 C 
HETATM   13  N6  UNL     1     -39.173 170.923  69.924  1.00  0.00    -0.161 N 
ATOM     14  H6  UNL     1     -39.891 170.943  69.200  1.00  0.00     0.187 HD
HETATM   15  C11 UNL     1     -38.368 171.956  70.185  1.00  0.00     0.198 C 
HETATM   16  N7  UNL     1     -37.232 172.143  70.942  1.00  0.00    -0.339 N 
ATOM     17  H7  UNL     1     -36.750 173.032  71.074  1.00  0.00     0.164 HD
HETATM   18  C12 UNL     1     -36.819 170.835  71.540  1.00  0.00     0.208 C 
HETATM   19  N8  UNL     1     -38.773 173.443  70.274  1.00  0.00    -0.299 N 
ATOM     20  H8  UNL     1     -39.043 174.029  69.483  1.00  0.00     0.172 HD
ENDROOT
BRANCH   8  21
HETATM   21  C4  UNL     1     -37.676 170.790  75.505  1.00  0.00     0.074 C 
HETATM   22  C5  UNL     1     -36.701 171.033  76.670  1.00  0.00     0.031 C 
HETATM   23  C6  UNL     1     -39.012 170.508  76.160  1.00  0.00     0.031 C 
ENDBRANCH   8  21
BRANCH  12  24
HETATM   24  N5  UNL     1     -39.605 168.700  70.313  1.00  0.00    -0.225 N 
ATOM     25  H5  UNL     1     -39.630 168.855  69.305  1.00  0.00     0.177 HD
BRANCH  24  26
HETATM   26  C9  UNL     1     -40.394 167.615  70.771  1.00  0.00     0.149 C 
BRANCH  26  27
HETATM   27  C10 UNL     1     -39.861 167.172  72.140  1.00  0.00     0.105 C 
HETATM   28 BR1  UNL     1     -40.970 167.856  73.572  1.00  0.00    -0.095 Br
ENDBRANCH  26  27
ENDBRANCH  24  26
ENDBRANCH  12  24
BRANCH  18  29
HETATM   29  C13 UNL     1     -35.997 170.075  70.545  1.00  0.00     0.021 C 
HETATM   30  C14 UNL     1     -35.439 168.790  71.045  1.00  0.00     0.013 C 
HETATM   31  C15 UNL     1     -34.849 170.905  70.001  1.00  0.00     0.013 C 
ENDBRANCH  18  29
TORSDOF 5
ENDMDL
MODEL 2
REMARK VINA RESULT: -6.405425243      3.004      5.624
REMARK  5 active torsions:
REMARK  status: ('A' for Active; 'I' for Inactive)
REMARK    1  A    between atoms: N3_8  and  C4_10 
REMARK    2  A    between atoms: C8_15  and  N5_16 
REMARK    3  A    between atoms: N5_16  and  C9_18 
REMARK    4  A    between atoms: C9_18  and  C10_19 
REMARK    5  A    between atoms: C12_26  and  C13_27 
ROOT
HETATM    1  C1  UNL     1     -36.567 169.396  78.017  1.00  0.00     0.149 C 
HETATM    2  N1  UNL     1     -36.261 170.614  77.366  1.00  0.00    -0.366 N 
ATOM      3  H1  UNL     1     -35.718 171.299  77.892  1.00  0.00     0.162 HD
HETATM    4  C2  UNL     1     -36.622 170.943  76.124  1.00  0.00     0.183 C 
HETATM    5  N2  UNL     1     -37.371 170.097  75.281  1.00  0.00    -0.317 N 
ATOM      6  H2  UNL     1     -36.879 169.274  74.934  1.00  0.00     0.170 HD
HETATM    7  C3  UNL     1     -38.811 170.244  74.819  1.00  0.00     0.098 C 
HETATM    8  N3  UNL     1     -39.509 169.234  74.512  1.00  0.00    -0.374 N 
ATOM      9  H3  UNL     1     -39.036 168.335  74.596  1.00  0.00     0.161 HD
HETATM   10  C7  UNL     1     -39.308 171.617  74.878  1.00  0.00     0.219 C 
HETATM   11  N4  UNL     1     -38.931 172.575  73.880  1.00  0.00    -0.189 N 
HETATM   12  C8  UNL     1     -39.356 173.817  74.090  1.00  0.00     0.680 C 
HETATM   13  N6  UNL     1     -37.804 174.014  74.936  1.00  0.00    -0.161 N 
ATOM     14  H6  UNL     1     -37.581 174.830  75.507  1.00  0.00     0.187 HD
HETATM   15  C11 UNL     1     -36.960 172.996  74.755  1.00  0.00     0.198 C 
HETATM   16  N7  UNL     1     -36.917 171.899  73.923  1.00  0.00    -0.339 N 
ATOM     17  H7  UNL     1     -36.203 171.171  73.941  1.00  0.00     0.164 HD
HETATM   18  C12 UNL     1     -38.085 171.945  72.987  1.00  0.00     0.208 C 
HETATM   19  N8  UNL     1     -36.085 172.318  75.831  1.00  0.00    -0.299 N 
ATOM     20  H8  UNL     1     -35.268 172.737  76.276  1.00  0.00     0.172 HD
ENDROOT
BRANCH   8  21
HETATM   21  C4  UNL     1     -40.842 169.173  74.072  1.00  0.00     0.074 C 
HETATM   22  C5  UNL     1     -40.878 169.676  72.619  1.00  0.00     0.031 C 
HETATM   23  C6  UNL     1     -41.444 167.785  74.025  1.00  0.00     0.031 C 
ENDBRANCH   8  21
BRANCH  12  24
HETATM   24  N5  UNL     1     -39.777 174.993  74.280  1.00  0.00    -0.225 N 
ATOM     25  H5  UNL     1     -39.740 175.311  75.249  1.00  0.00     0.177 HD
BRANCH  24  26
HETATM   26  C9  UNL     1     -40.291 175.940  73.359  1.00  0.00     0.149 C 
BRANCH  26  27
HETATM   27  C10 UNL     1     -39.528 175.794  72.036  1.00  0.00     0.105 C 
HETATM   28 BR1  UNL     1     -40.655 176.254  70.529  1.00  0.00    -0.095 Br
ENDBRANCH  26  27
ENDBRANCH  24  26
ENDBRANCH  12  24
BRANCH  18  29
HETATM   29  C13 UNL     1     -37.744 172.812  71.815  1.00  0.00     0.021 C 
HETATM   30  C14 UNL     1     -38.810 172.918  70.784  1.00  0.00     0.013 C 
HETATM   31  C15 UNL     1     -36.468 172.366  71.127  1.00  0.00     0.013 C 
ENDBRANCH  18  29
TORSDOF 5
ENDMDL
MODEL 3
REMARK VINA RESULT: -5.966447758      2.708      5.478
REMARK  5 active torsions:
REMARK  status: ('A' for Active; 'I' for Inactive)
REMARK    1  A    between atoms: N3_8  and  C4_10 
REMARK    2  A    between atoms: C8_15  and  N5_16 
REMARK    3  A    between atoms: N5_16  and  C9_18 
REMARK    4  A    between atoms: C9_18  and  C10_19 
REMARK    5  A    between atoms: C12_26  and  C13_27 
ROOT
HETATM    1  C1  UNL     1     -39.546 176.010  70.285  1.00  0.00     0.149 C 
HETATM    2  N1  UNL     1     -39.712 175.693  71.653  1.00  0.00    -0.366 N 
ATOM      3  H1  UNL     1     -39.917 176.464  72.288  1.00  0.00     0.162 HD
HETATM    4  C2  UNL     1     -39.621 174.472  72.184  1.00  0.00     0.183 C 
HETATM    5  N2  UNL     1     -39.345 173.314  71.430  1.00  0.00    -0.317 N 
ATOM      6  H2  UNL     1     -40.092 173.003  70.810  1.00  0.00     0.170 HD
HETATM    7  C3  UNL     1     -38.085 172.464  71.415  1.00  0.00     0.098 C 
HETATM    8  N3  UNL     1     -37.754 171.797  70.392  1.00  0.00    -0.374 N 
ATOM      9  H3  UNL     1     -38.389 171.873  69.598  1.00  0.00     0.161 HD
HETATM   10  C7  UNL     1     -37.277 172.594  72.625  1.00  0.00     0.219 C 
HETATM   11  N4  UNL     1     -37.662 171.930  73.837  1.00  0.00    -0.189 N 
HETATM   12  C8  UNL     1     -36.913 172.201  74.901  1.00  0.00     0.680 C 
HETATM   13  N6  UNL     1     -38.094 173.502  75.179  1.00  0.00    -0.161 N 
ATOM     14  H6  UNL     1     -37.958 174.239  75.870  1.00  0.00     0.187 HD
HETATM   15  C11 UNL     1     -39.175 173.422  74.398  1.00  0.00     0.198 C 
HETATM   16  N7  UNL     1     -39.695 172.474  73.545  1.00  0.00    -0.339 N 
ATOM     17  H7  UNL     1     -40.532 172.590  72.973  1.00  0.00     0.164 HD
HETATM   18  C12 UNL     1     -38.838 171.247  73.589  1.00  0.00     0.208 C 
HETATM   19  N8  UNL     1     -39.872 174.587  73.663  1.00  0.00    -0.299 N 
ATOM     20  H8  UNL     1     -40.419 175.323  74.112  1.00  0.00     0.172 HD
ENDROOT
BRANCH   8  21
HETATM   21  C4  UNL     1     -36.639 170.968  70.192  1.00  0.00     0.074 C 
HETATM   22  C5  UNL     1     -37.078 169.520  70.465  1.00  0.00     0.031 C 
HETATM   23  C6  UNL     1     -36.088 170.954  68.781  1.00  0.00     0.031 C 
ENDBRANCH   8  21
BRANCH  12  24
HETATM   24  N5  UNL     1     -36.189 172.445  75.907  1.00  0.00    -0.225 N 
ATOM     25  H5  UNL     1     -35.820 173.395  75.952  1.00  0.00     0.177 HD
BRANCH  24  26
HETATM   26  C9  UNL     1     -35.808 171.605  76.984  1.00  0.00     0.149 C 
BRANCH  26  27
HETATM   27  C10 UNL     1     -34.741 172.332  77.813  1.00  0.00     0.105 C 
HETATM   28 BR1  UNL     1     -32.965 171.701  77.369  1.00  0.00    -0.095 Br
ENDBRANCH  26  27
ENDBRANCH  24  26
ENDBRANCH  12  24
BRANCH  18  29
HETATM   29  C13 UNL     1     -39.257 170.395  74.747  1.00  0.00     0.021 C 
HETATM   30  C14 UNL     1     -38.381 169.221  75.009  1.00  0.00     0.013 C 
HETATM   31  C15 UNL     1     -40.682 169.894  74.600  1.00  0.00     0.013 C 
ENDBRANCH  18  29
TORSDOF 5
ENDMDL
MODEL 4
REMARK VINA RESULT: -5.877883982      2.812      3.771
REMARK  5 active torsions:
REMARK  status: ('A' for Active; 'I' for Inactive)
REMARK    1  A    between atoms: N3_8  and  C4_10 
REMARK    2  A    between atoms: C8_15  and  N5_16 
REMARK    3  A    between atoms: N5_16  and  C9_18 
REMARK    4  A    between atoms: C9_18  and  C10_19 
REMARK    5  A    between atoms: C12_26  and  C13_27 
ROOT
HETATM    1  C1  UNL     1     -38.779 173.923  74.620  1.00  0.00     0.149 C 
HETATM    2  N1  UNL     1     -39.488 173.045  73.768  1.00  0.00    -0.366 N 
ATOM      3  H1  UNL     1     -40.332 173.407  73.323  1.00  0.00     0.162 HD
HETATM    4  C2  UNL     1     -39.147 171.784  73.496  1.00  0.00     0.183 C 
HETATM    5  N2  UNL     1     -38.009 171.151  74.034  1.00  0.00    -0.317 N 
ATOM      6  H2  UNL     1     -37.112 171.483  73.681  1.00  0.00     0.170 HD
HETATM    7  C3  UNL     1     -37.935 170.041  75.070  1.00  0.00     0.098 C 
HETATM    8  N3  UNL     1     -36.927 169.912  75.824  1.00  0.00    -0.374 N 
ATOM      9  H3  UNL     1     -36.185 170.596  75.681  1.00  0.00     0.161 HD
HETATM   10  C7  UNL     1     -39.158 169.249  75.166  1.00  0.00     0.219 C 
HETATM   11  N4  UNL     1     -39.465 168.254  74.180  1.00  0.00    -0.189 N 
HETATM   12  C8  UNL     1     -40.651 167.667  74.309  1.00  0.00     0.680 C 
HETATM   13  N6  UNL     1     -41.214 168.972  73.240  1.00  0.00    -0.161 N 
ATOM     14  H6  UNL     1     -42.201 169.157  73.060  1.00  0.00     0.187 HD
HETATM   15  C11 UNL     1     -40.224 169.685  72.696  1.00  0.00     0.198 C 
HETATM   16  N7  UNL     1     -38.856 169.552  72.612  1.00  0.00    -0.339 N 
ATOM     17  H7  UNL     1     -38.221 170.227  72.186  1.00  0.00     0.164 HD
HETATM   18  C12 UNL     1     -38.448 168.258  73.245  1.00  0.00     0.208 C 
HETATM   19  N8  UNL     1     -40.168 171.220  72.544  1.00  0.00    -0.299 N 
ATOM     20  H8  UNL     1     -40.735 171.769  71.897  1.00  0.00     0.172 HD
ENDROOT
BRANCH   8  21
HETATM   21  C4  UNL     1     -36.684 168.963  76.830  1.00  0.00     0.074 C 
HETATM   22  C5  UNL     1     -35.824 167.844  76.217  1.00  0.00     0.031 C 
HETATM   23  C6  UNL     1     -35.889 169.467  78.016  1.00  0.00     0.031 C 
ENDBRANCH   8  21
BRANCH  12  24
HETATM   24  N5  UNL     1     -41.770 167.096  74.444  1.00  0.00    -0.225 N 
ATOM     25  H5  UNL     1     -42.400 167.190  73.647  1.00  0.00     0.177 HD
BRANCH  24  26
HETATM   26  C9  UNL     1     -42.288 166.345  75.529  1.00  0.00     0.149 C 
BRANCH  26  27
HETATM   27  C10 UNL     1     -41.129 165.588  76.192  1.00  0.00     0.105 C 
HETATM   28 BR1  UNL     1     -41.670 164.845  77.897  1.00  0.00    -0.095 Br
ENDBRANCH  26  27
ENDBRANCH  24  26
ENDBRANCH  12  24
BRANCH  18  29
HETATM   29  C13 UNL     1     -38.589 167.153  72.245  1.00  0.00     0.021 C 
HETATM   30  C14 UNL     1     -38.038 165.841  72.678  1.00  0.00     0.013 C 
HETATM   31  C15 UNL     1     -37.960 167.508  70.910  1.00  0.00     0.013 C 
ENDBRANCH  18  29
TORSDOF 5
ENDMDL
MODEL 5
REMARK VINA RESULT: -5.871506852      2.956      4.193
REMARK  5 active torsions:
REMARK  status: ('A' for Active; 'I' for Inactive)
REMARK    1  A    between atoms: N3_8  and  C4_10 
REMARK    2  A    between atoms: C8_15  and  N5_16 
REMARK    3  A    between atoms: N5_16  and  C9_18 
REMARK    4  A    between atoms: C9_18  and  C10_19 
REMARK    5  A    between atoms: C12_26  and  C13_27 
ROOT
HETATM    1  C1  UNL     1     -39.061 173.282  72.900  1.00  0.00     0.149 C 
HETATM    2  N1  UNL     1     -39.741 172.175  72.342  1.00  0.00    -0.366 N 
ATOM      3  H1  UNL     1     -40.576 172.372  71.790  1.00  0.00     0.162 HD
HETATM    4  C2  UNL     1     -39.384 170.896  72.475  1.00  0.00     0.183 C 
HETATM    5  N2  UNL     1     -38.254 170.475  73.205  1.00  0.00    -0.317 N 
ATOM      6  H2  UNL     1     -37.351 170.697  72.786  1.00  0.00     0.170 HD
HETATM    7  C3  UNL     1     -38.198 169.735  74.531  1.00  0.00     0.098 C 
HETATM    8  N3  UNL     1     -37.208 169.857  75.310  1.00  0.00    -0.374 N 
ATOM      9  H3  UNL     1     -36.468 170.476  74.981  1.00  0.00     0.161 HD
HETATM   10  C7  UNL     1     -39.417 168.992  74.839  1.00  0.00     0.219 C 
HETATM   11  N4  UNL     1     -39.691 167.739  74.197  1.00  0.00    -0.189 N 
HETATM   12  C8  UNL     1     -40.876 167.202  74.474  1.00  0.00     0.680 C 
HETATM   13  N6  UNL     1     -41.422 168.110  73.046  1.00  0.00    -0.161 N 
ATOM     14  H6  UNL     1     -42.405 168.217  72.796  1.00  0.00     0.187 HD
HETATM   15  C11 UNL     1     -40.425 168.638  72.331  1.00  0.00     0.198 C 
HETATM   16  N7  UNL     1     -39.053 168.506  72.321  1.00  0.00    -0.339 N 
ATOM     17  H7  UNL     1     -38.414 169.029  71.723  1.00  0.00     0.164 HD
HETATM   18  C12 UNL     1     -38.651 167.472  73.327  1.00  0.00     0.208 C 
HETATM   19  N8  UNL     1     -40.376 170.054  71.719  1.00  0.00    -0.299 N 
ATOM     20  H8  UNL     1     -40.931 170.371  70.924  1.00  0.00     0.172 HD
ENDROOT
BRANCH   8  21
HETATM   21  C4  UNL     1     -36.982 169.263  76.563  1.00  0.00     0.074 C 
HETATM   22  C5  UNL     1     -36.280 167.917  76.321  1.00  0.00     0.031 C 
HETATM   23  C6  UNL     1     -36.059 170.031  77.485  1.00  0.00     0.031 C 
ENDBRANCH   8  21
BRANCH  12  24
HETATM   24  N5  UNL     1     -41.994 166.682  74.753  1.00  0.00    -0.225 N 
ATOM     25  H5  UNL     1     -42.717 166.813  74.045  1.00  0.00     0.177 HD
BRANCH  24  26
HETATM   26  C9  UNL     1     -42.400 165.946  75.894  1.00  0.00     0.149 C 
BRANCH  26  27
HETATM   27  C10 UNL     1     -41.149 165.364  76.567  1.00  0.00     0.105 C 
HETATM   28 BR1  UNL     1     -41.507 164.895  78.411  1.00  0.00    -0.095 Br
ENDBRANCH  26  27
ENDBRANCH  24  26
ENDBRANCH  12  24
BRANCH  18  29
HETATM   29  C13 UNL     1     -38.759 166.113  72.709  1.00  0.00     0.021 C 
HETATM   30  C14 UNL     1     -38.205 165.005  73.532  1.00  0.00     0.013 C 
HETATM   31  C15 UNL     1     -38.104 166.055  71.341  1.00  0.00     0.013 C 
ENDBRANCH  18  29
TORSDOF 5
ENDMDL
