MODEL 1
REMARK VINA RESULT: -6.800462789      0.000      0.000
REMARK  7 active torsions:
REMARK  status: ('A' for Active; 'I' for Inactive)
REMARK    1  A    between atoms: C4_7  and  O1_8 
REMARK    2  A    between atoms: O1_8  and  C5_9 
REMARK    3  A    between atoms: C5_9  and  N2_10 
REMARK    4  A    between atoms: C8_14  and  O2_15 
REMARK    5  A    between atoms: N3_17  and  C9_18 
REMARK    6  A    between atoms: C15_24  and  O3_25 
REMARK    7  A    between atoms: C16_27  and  O4_28 
ROOT
HETATM    1  C5  UNL     1     -37.742 169.603  76.600  1.00  0.00     0.299 C 
ENDROOT
BRANCH   1   2
HETATM    2  O1  UNL     1     -36.839 170.417  77.090  1.00  0.00    -0.362 OA
BRANCH   2   3
HETATM    3  C4  UNL     1     -36.059 170.294  78.139  1.00  0.00     0.180 C 
HETATM    4  C3  UNL     1     -35.068 169.149  77.903  1.00  0.00     0.267 C 
HETATM    5  N1  UNL     1     -33.963 169.560  77.081  1.00  0.00    -0.066 N 
HETATM    6  C2  UNL     1     -33.198 170.622  77.686  1.00  0.00     0.213 C 
ATOM      7  H12 UNL     1     -34.275 169.818  76.145  1.00  0.00     0.277 HD
ATOM      8  H11 UNL     1     -33.367 168.768  76.841  1.00  0.00     0.277 HD
HETATM    9  C1  UNL     1     -31.960 170.906  76.865  1.00  0.00     0.043 C 
HETATM   10  C16 UNL     1     -34.090 171.825  77.792  1.00  0.00     0.179 C 
HETATM   11  C15 UNL     1     -35.297 171.497  78.622  1.00  0.00     0.179 C 
BRANCH  10  12
HETATM   12  O4  UNL     1     -34.407 172.368  76.556  1.00  0.00    -0.391 OA
ATOM     13  H4  UNL     1     -34.449 171.716  75.868  1.00  0.00     0.210 HD
ENDBRANCH  10  12
BRANCH  11  14
HETATM   14  O3  UNL     1     -34.809 171.192  79.899  1.00  0.00    -0.390 OA
ATOM     15  H3  UNL     1     -35.561 170.999  80.448  1.00  0.00     0.210 HD
ENDBRANCH  11  14
ENDBRANCH   2   3
ENDBRANCH   1   2
BRANCH   1  16
HETATM   16  N2  UNL     1     -38.352 170.170  75.408  1.00  0.00    -0.330 N 
HETATM   17  C6  UNL     1     -39.324 169.486  74.740  1.00  0.00     0.117 A 
HETATM   18  C7  UNL     1     -39.864 170.068  73.618  1.00  0.00     0.077 A 
HETATM   19 BR1  UNL     1     -41.235 169.219  72.587  1.00  0.00    -0.045 Br
HETATM   20  C8  UNL     1     -39.400 171.320  73.213  1.00  0.00     0.162 A 
HETATM   21  N3  UNL     1     -38.457 171.981  73.862  1.00  0.00    -0.318 N 
HETATM   22  C14 UNL     1     -37.941 171.377  74.972  1.00  0.00     0.189 A 
BRANCH  20  23
HETATM   23  O2  UNL     1     -39.932 171.911  72.092  1.00  0.00    -0.345 OA
ATOM     24  H2  UNL     1     -40.153 172.834  72.109  1.00  0.00     0.219 HD
ENDBRANCH  20  23
BRANCH  21  25
HETATM   25  C9  UNL     1     -37.943 173.215  73.533  1.00  0.00     0.092 C 
HETATM   26  C10 UNL     1     -37.784 174.017  74.846  1.00  0.00     0.026 C 
HETATM   27  C11 UNL     1     -39.152 174.705  74.916  1.00  0.00     0.002 C 
HETATM   28  C12 UNL     1     -39.475 175.062  73.475  1.00  0.00     0.002 C 
HETATM   29  C13 UNL     1     -38.531 174.198  72.667  1.00  0.00     0.026 C 
ENDBRANCH  21  25
ENDBRANCH   1  16
TORSDOF 7
ENDMDL
MODEL 2
REMARK VINA RESULT: -6.798838718      1.361      2.008
REMARK  7 active torsions:
REMARK  status: ('A' for Active; 'I' for Inactive)
REMARK    1  A    between atoms: C4_7  and  O1_8 
REMARK    2  A    between atoms: O1_8  and  C5_9 
REMARK    3  A    between atoms: C5_9  and  N2_10 
REMARK    4  A    between atoms: C8_14  and  O2_15 
REMARK    5  A    between atoms: N3_17  and  C9_18 
REMARK    6  A    between atoms: C15_24  and  O3_25 
REMARK    7  A    between atoms: C16_27  and  O4_28 
ROOT
HETATM    1  C5  UNL     1     -37.567 170.213  76.688  1.00  0.00     0.299 C 
ENDROOT
BRANCH   1   2
HETATM    2  O1  UNL     1     -36.754 171.134  77.142  1.00  0.00    -0.362 OA
BRANCH   2   3
HETATM    3  C4  UNL     1     -35.443 171.209  77.105  1.00  0.00     0.180 C 
HETATM    4  C3  UNL     1     -34.979 172.394  77.958  1.00  0.00     0.267 C 
HETATM    5  N1  UNL     1     -34.959 172.070  79.357  1.00  0.00    -0.066 N 
HETATM    6  C2  UNL     1     -34.048 170.993  79.655  1.00  0.00     0.213 C 
ATOM      7  H12 UNL     1     -35.897 171.866  79.702  1.00  0.00     0.277 HD
ATOM      8  H11 UNL     1     -34.753 172.893  79.924  1.00  0.00     0.277 HD
HETATM    9  C1  UNL     1     -33.941 170.798  81.151  1.00  0.00     0.043 C 
HETATM   10  C16 UNL     1     -34.556 169.761  78.963  1.00  0.00     0.179 C 
HETATM   11  C15 UNL     1     -34.636 169.999  77.483  1.00  0.00     0.179 C 
BRANCH  10  12
HETATM   12  O4  UNL     1     -35.742 169.291  79.507  1.00  0.00    -0.391 OA
ATOM     13  H4  UNL     1     -35.611 168.560  80.098  1.00  0.00     0.210 HD
ENDBRANCH  10  12
BRANCH  11  14
HETATM   14  O3  UNL     1     -33.320 170.233  77.064  1.00  0.00    -0.390 OA
ATOM     15  H3  UNL     1     -32.912 169.385  76.934  1.00  0.00     0.210 HD
ENDBRANCH  11  14
ENDBRANCH   2   3
ENDBRANCH   1   2
BRANCH   1  16
HETATM   16  N2  UNL     1     -38.258 170.679  75.496  1.00  0.00    -0.330 N 
HETATM   17  C6  UNL     1     -39.195 169.893  74.892  1.00  0.00     0.117 A 
HETATM   18  C7  UNL     1     -39.815 170.383  73.767  1.00  0.00     0.077 A 
HETATM   19 BR1  UNL     1     -41.149 169.387  72.821  1.00  0.00    -0.045 Br
HETATM   20  C8  UNL     1     -39.463 171.647  73.294  1.00  0.00     0.162 A 
HETATM   21  N3  UNL     1     -38.553 172.406  73.881  1.00  0.00    -0.318 N 
HETATM   22  C14 UNL     1     -37.956 171.893  74.996  1.00  0.00     0.189 A 
BRANCH  20  23
HETATM   23  O2  UNL     1     -40.076 172.146  72.170  1.00  0.00    -0.345 OA
ATOM     24  H2  UNL     1     -39.661 172.846  71.681  1.00  0.00     0.219 HD
ENDBRANCH  20  23
BRANCH  21  25
HETATM   25  C9  UNL     1     -38.148 173.660  73.483  1.00  0.00     0.092 C 
HETATM   26  C10 UNL     1     -37.907 174.497  74.761  1.00  0.00     0.026 C 
HETATM   27  C11 UNL     1     -39.300 175.108  74.958  1.00  0.00     0.002 C 
HETATM   28  C12 UNL     1     -39.784 175.416  73.551  1.00  0.00     0.002 C 
HETATM   29  C13 UNL     1     -38.876 174.590  72.666  1.00  0.00     0.026 C 
ENDBRANCH  21  25
ENDBRANCH   1  16
TORSDOF 7
ENDMDL
MODEL 3
REMARK VINA RESULT: -6.653208394      1.773      3.319
REMARK  7 active torsions:
REMARK  status: ('A' for Active; 'I' for Inactive)
REMARK    1  A    between atoms: C4_7  and  O1_8 
REMARK    2  A    between atoms: O1_8  and  C5_9 
REMARK    3  A    between atoms: C5_9  and  N2_10 
REMARK    4  A    between atoms: C8_14  and  O2_15 
REMARK    5  A    between atoms: N3_17  and  C9_18 
REMARK    6  A    between atoms: C15_24  and  O3_25 
REMARK    7  A    between atoms: C16_27  and  O4_28 
ROOT
HETATM    1  C5  UNL     1     -37.611 169.775  76.578  1.00  0.00     0.299 C 
ENDROOT
BRANCH   1   2
HETATM    2  O1  UNL     1     -36.724 170.503  77.210  1.00  0.00    -0.362 OA
BRANCH   2   3
HETATM    3  C4  UNL     1     -35.905 170.193  78.188  1.00  0.00     0.180 C 
HETATM    4  C3  UNL     1     -34.666 169.500  77.611  1.00  0.00     0.267 C 
HETATM    5  N1  UNL     1     -33.727 170.446  77.074  1.00  0.00    -0.066 N 
HETATM    6  C2  UNL     1     -33.235 171.357  78.076  1.00  0.00     0.213 C 
ATOM      7  H12 UNL     1     -34.124 170.950  76.280  1.00  0.00     0.277 HD
ATOM      8  H11 UNL     1     -32.959 169.973  76.597  1.00  0.00     0.277 HD
HETATM    9  C1  UNL     1     -32.135 172.222  77.501  1.00  0.00     0.043 C 
HETATM   10  C16 UNL     1     -34.397 172.175  78.560  1.00  0.00     0.179 C 
HETATM   11  C15 UNL     1     -35.456 171.275  79.129  1.00  0.00     0.179 C 
BRANCH  10  12
HETATM   12  O4  UNL     1     -34.880 173.045  77.595  1.00  0.00    -0.391 OA
ATOM     13  H4  UNL     1     -35.381 173.762  77.964  1.00  0.00     0.210 HD
ENDBRANCH  10  12
BRANCH  11  14
HETATM   14  O3  UNL     1     -34.867 170.645  80.233  1.00  0.00    -0.390 OA
ATOM     15  H3  UNL     1     -34.286 169.973  79.896  1.00  0.00     0.210 HD
ENDBRANCH  11  14
ENDBRANCH   2   3
ENDBRANCH   1   2
BRANCH   1  16
HETATM   16  N2  UNL     1     -38.220 170.532  75.495  1.00  0.00    -0.330 N 
HETATM   17  C6  UNL     1     -38.326 171.889  75.578  1.00  0.00     0.117 A 
HETATM   18  C7  UNL     1     -38.912 172.552  74.527  1.00  0.00     0.077 A 
HETATM   19 BR1  UNL     1     -39.124 174.455  74.512  1.00  0.00    -0.045 Br
HETATM   20  C8  UNL     1     -39.370 171.819  73.432  1.00  0.00     0.162 A 
HETATM   21  N3  UNL     1     -39.266 170.504  73.354  1.00  0.00    -0.318 N 
HETATM   22  C14 UNL     1     -38.679 169.874  74.413  1.00  0.00     0.189 A 
BRANCH  20  23
HETATM   23  O2  UNL     1     -39.958 172.473  72.376  1.00  0.00    -0.345 OA
ATOM     24  H2  UNL     1     -40.621 172.030  71.861  1.00  0.00     0.219 HD
ENDBRANCH  20  23
BRANCH  21  25
HETATM   25  C9  UNL     1     -39.689 169.706  72.315  1.00  0.00     0.092 C 
HETATM   26  C10 UNL     1     -41.193 169.418  72.534  1.00  0.00     0.026 C 
HETATM   27  C11 UNL     1     -41.109 168.133  73.367  1.00  0.00     0.002 C 
HETATM   28  C12 UNL     1     -39.947 167.361  72.764  1.00  0.00     0.002 C 
HETATM   29  C13 UNL     1     -39.196 168.403  71.963  1.00  0.00     0.026 C 
ENDBRANCH  21  25
ENDBRANCH   1  16
TORSDOF 7
ENDMDL
MODEL 4
REMARK VINA RESULT: -6.501383805      2.142      3.801
REMARK  7 active torsions:
REMARK  status: ('A' for Active; 'I' for Inactive)
REMARK    1  A    between atoms: C4_7  and  O1_8 
REMARK    2  A    between atoms: O1_8  and  C5_9 
REMARK    3  A    between atoms: C5_9  and  N2_10 
REMARK    4  A    between atoms: C8_14  and  O2_15 
REMARK    5  A    between atoms: N3_17  and  C9_18 
REMARK    6  A    between atoms: C15_24  and  O3_25 
REMARK    7  A    between atoms: C16_27  and  O4_28 
ROOT
HETATM    1  C5  UNL     1     -37.308 170.602  76.597  1.00  0.00     0.299 C 
ENDROOT
BRANCH   1   2
HETATM    2  O1  UNL     1     -36.485 171.487  77.103  1.00  0.00    -0.362 OA
BRANCH   2   3
HETATM    3  C4  UNL     1     -35.174 171.488  77.179  1.00  0.00     0.180 C 
HETATM    4  C3  UNL     1     -34.723 172.588  78.145  1.00  0.00     0.267 C 
HETATM    5  N1  UNL     1     -34.841 172.178  79.516  1.00  0.00    -0.066 N 
HETATM    6  C2  UNL     1     -34.018 171.033  79.817  1.00  0.00     0.213 C 
ATOM      7  H12 UNL     1     -35.815 172.008  79.768  1.00  0.00     0.277 HD
ATOM      8  H11 UNL     1     -34.642 172.951  80.151  1.00  0.00     0.277 HD
HETATM    9  C1  UNL     1     -34.051 170.740  81.300  1.00  0.00     0.043 C 
HETATM   10  C16 UNL     1     -34.529 169.878  79.005  1.00  0.00     0.179 C 
HETATM   11  C15 UNL     1     -34.467 170.211  77.543  1.00  0.00     0.179 C 
BRANCH  10  12
HETATM   12  O4  UNL     1     -35.781 169.446  79.416  1.00  0.00    -0.391 OA
ATOM     13  H4  UNL     1     -36.445 169.553  78.746  1.00  0.00     0.210 HD
ENDBRANCH  10  12
BRANCH  11  14
HETATM   14  O3  UNL     1     -33.109 170.392  77.250  1.00  0.00    -0.390 OA
ATOM     15  H3  UNL     1     -32.615 169.933  77.918  1.00  0.00     0.210 HD
ENDBRANCH  11  14
ENDBRANCH   2   3
ENDBRANCH   1   2
BRANCH   1  16
HETATM   16  N2  UNL     1     -38.006 171.148  75.444  1.00  0.00    -0.330 N 
HETATM   17  C6  UNL     1     -38.228 172.491  75.347  1.00  0.00     0.117 A 
HETATM   18  C7  UNL     1     -38.895 172.952  74.238  1.00  0.00     0.077 A 
HETATM   19 BR1  UNL     1     -39.271 174.811  73.973  1.00  0.00    -0.045 Br
HETATM   20  C8  UNL     1     -39.314 172.040  73.269  1.00  0.00     0.162 A 
HETATM   21  N3  UNL     1     -39.098 170.739  73.367  1.00  0.00    -0.318 N 
HETATM   22  C14 UNL     1     -38.433 170.312  74.479  1.00  0.00     0.189 A 
BRANCH  20  23
HETATM   23  O2  UNL     1     -39.983 172.491  72.156  1.00  0.00    -0.345 OA
ATOM     24  H2  UNL     1     -40.781 172.057  71.881  1.00  0.00     0.219 HD
ENDBRANCH  20  23
BRANCH  21  25
HETATM   25  C9  UNL     1     -39.476 169.774  72.461  1.00  0.00     0.092 C 
HETATM   26  C10 UNL     1     -40.997 169.548  72.630  1.00  0.00     0.026 C 
HETATM   27  C11 UNL     1     -40.994 168.433  73.682  1.00  0.00     0.002 C 
HETATM   28  C12 UNL     1     -39.816 167.551  73.303  1.00  0.00     0.002 C 
HETATM   29  C13 UNL     1     -38.994 168.423  72.379  1.00  0.00     0.026 C 
ENDBRANCH  21  25
ENDBRANCH   1  16
TORSDOF 7
ENDMDL
MODEL 5
REMARK VINA RESULT: -6.459073235      2.490      6.438
REMARK  7 active torsions:
REMARK  status: ('A' for Active; 'I' for Inactive)
REMARK    1  A    between atoms: C4_7  and  O1_8 
REMARK    2  A    between atoms: O1_8  and  C5_9 
REMARK    3  A    between atoms: C5_9  and  N2_10 
REMARK    4  A    between atoms: C8_14  and  O2_15 
REMARK    5  A    between atoms: N3_17  and  C9_18 
REMARK    6  A    between atoms: C15_24  and  O3_25 
REMARK    7  A    between atoms: C16_27  and  O4_28 
ROOT
HETATM    1  C5  UNL     1     -37.543 168.920  75.218  1.00  0.00     0.299 C 
ENDROOT
BRANCH   1   2
HETATM    2  O1  UNL     1     -37.873 170.123  74.817  1.00  0.00    -0.362 OA
BRANCH   2   3
HETATM    3  C4  UNL     1     -39.022 170.596  74.390  1.00  0.00     0.180 C 
HETATM    4  C3  UNL     1     -39.684 171.406  75.509  1.00  0.00     0.267 C 
HETATM    5  N1  UNL     1     -39.134 172.729  75.609  1.00  0.00    -0.066 N 
HETATM    6  C2  UNL     1     -39.328 173.495  74.403  1.00  0.00     0.213 C 
ATOM      7  H12 UNL     1     -38.148 172.700  75.871  1.00  0.00     0.277 HD
ATOM      8  H11 UNL     1     -39.503 173.222  76.422  1.00  0.00     0.277 HD
HETATM    9  C1  UNL     1     -38.879 174.923  74.613  1.00  0.00     0.043 C 
HETATM   10  C16 UNL     1     -38.559 172.820  73.304  1.00  0.00     0.179 C 
HETATM   11  C15 UNL     1     -39.046 171.412  73.127  1.00  0.00     0.179 C 
BRANCH  10  12
HETATM   12  O4  UNL     1     -37.186 172.907  73.479  1.00  0.00    -0.391 OA
ATOM     13  H4  UNL     1     -36.946 173.279  74.319  1.00  0.00     0.210 HD
ENDBRANCH  10  12
BRANCH  11  14
HETATM   14  O3  UNL     1     -40.385 171.519  72.730  1.00  0.00    -0.390 OA
ATOM     15  H3  UNL     1     -40.786 170.668  72.862  1.00  0.00     0.210 HD
ENDBRANCH  11  14
ENDBRANCH   2   3
ENDBRANCH   1   2
BRANCH   1  16
HETATM   16  N2  UNL     1     -36.951 168.965  76.545  1.00  0.00    -0.330 N 
HETATM   17  C6  UNL     1     -36.936 167.850  77.330  1.00  0.00     0.117 A 
HETATM   18  C7  UNL     1     -36.366 167.950  78.576  1.00  0.00     0.077 A 
HETATM   19 BR1  UNL     1     -36.276 166.463  79.780  1.00  0.00    -0.045 Br
HETATM   20  C8  UNL     1     -35.833 169.173  78.983  1.00  0.00     0.162 A 
HETATM   21  N3  UNL     1     -35.850 170.253  78.220  1.00  0.00    -0.318 N 
HETATM   22  C14 UNL     1     -36.422 170.122  76.989  1.00  0.00     0.189 A 
BRANCH  20  23
HETATM   23  O2  UNL     1     -35.261 169.284  80.228  1.00  0.00    -0.345 OA
ATOM     24  H2  UNL     1     -34.879 170.110  80.496  1.00  0.00     0.219 HD
ENDBRANCH  20  23
BRANCH  21  25
HETATM   25  C9  UNL     1     -35.349 171.494  78.542  1.00  0.00     0.092 C 
HETATM   26  C10 UNL     1     -34.797 172.123  77.241  1.00  0.00     0.026 C 
HETATM   27  C11 UNL     1     -33.348 171.625  77.287  1.00  0.00     0.002 C 
HETATM   28  C12 UNL     1     -32.966 171.695  78.756  1.00  0.00     0.002 C 
HETATM   29  C13 UNL     1     -34.296 171.792  79.472  1.00  0.00     0.026 C 
ENDBRANCH  21  25
ENDBRANCH   1  16
TORSDOF 7
ENDMDL
