MODEL 1
REMARK VINA RESULT: -6.797652224      0.000      0.000
REMARK  5 active torsions:
REMARK  status: ('A' for Active; 'I' for Inactive)
REMARK       I    between atoms: C2_2  and  N1_4 
REMARK    1  A    between atoms: N1_4  and  C3_6 
REMARK    2  A    between atoms: C4_9  and  N3_10 
REMARK    3  A    between atoms: C6_16  and  C7_17 
REMARK    4  A    between atoms: N6_19  and  S1_21 
REMARK    5  A    between atoms: S1_21  and  N7_23 
ROOT
HETATM    1  C3  UNL     1      30.442  47.797  -3.028  1.00  0.00     0.138 A 
HETATM    2  N2  UNL     1      31.140  48.878  -2.607  1.00  0.00    -0.176 N 
ATOM      3  H2  UNL     1      31.202  49.089  -1.610  1.00  0.00     0.186 HD
HETATM    4  C4  UNL     1      31.755  49.678  -3.505  1.00  0.00     0.677 A 
HETATM    5  N4  UNL     1      31.673  49.400  -4.799  1.00  0.00    -0.201 N 
ATOM      6  H4  UNL     1      32.142  50.009  -5.470  1.00  0.00     0.183 HD
HETATM    7  C5  UNL     1      30.987  48.331  -5.249  1.00  0.00     0.124 A 
HETATM    8  C6  UNL     1      30.339  47.481  -4.379  1.00  0.00     0.066 A 
ENDROOT
BRANCH   8   9
HETATM    9  C7  UNL     1      29.593  46.324  -4.829  1.00  0.00     0.139 C 
HETATM   10  N5  UNL     1      28.224  46.212  -4.503  1.00  0.00    -0.081 NA
HETATM   11  N6  UNL     1      30.160  45.438  -5.498  1.00  0.00    -0.289 N 
ATOM     12  H6  UNL     1      31.122  45.764  -5.585  1.00  0.00     0.178 HD
BRANCH  11  13
HETATM   13  S1  UNL     1      30.140  43.982  -6.325  1.00  0.00     0.101 S 
HETATM   14  C8  UNL     1      29.108  44.542  -7.767  1.00  0.00     0.160 C 
HETATM   15  O2  UNL     1      31.509  43.514  -7.672  1.00  0.00    -0.229 OA
BRANCH  13  16
HETATM   16  N7  UNL     1      29.024  42.450  -6.022  1.00  0.00    -0.345 N 
ATOM     17  H72 UNL     1      28.229  42.620  -5.406  1.00  0.00     0.167 HD
ATOM     18  H71 UNL     1      29.127  41.506  -6.393  1.00  0.00     0.167 HD
ENDBRANCH  13  16
ENDBRANCH  11  13
ENDBRANCH   8   9
BRANCH   1  19
HETATM   19  N1  UNL     1      29.848  47.020  -2.195  1.00  0.00    -0.312 N 
HETATM   20  C2  UNL     1      29.107  47.578  -1.121  1.00  0.00     0.219 C 
HETATM   21  C1  UNL     1      27.616  47.546  -1.216  1.00  0.00     0.117 C 
HETATM   22  O1  UNL     1      29.631  48.095  -0.104  1.00  0.00    -0.274 OA
ATOM     23  H1  UNL     1      29.909  46.008  -2.304  1.00  0.00     0.170 HD
ENDBRANCH   1  19
BRANCH   4  24
HETATM   24  N3  UNL     1      32.399  50.687  -3.020  1.00  0.00    -0.234 N 
ATOM     25  H32 UNL     1      33.407  50.818  -3.103  1.00  0.00     0.174 HD
ATOM     26  H31 UNL     1      31.837  51.380  -2.527  1.00  0.00     0.174 HD
ENDBRANCH   4  24
TORSDOF 5
ENDMDL
MODEL 2
REMARK VINA RESULT: -6.747040327      3.170      6.167
REMARK  5 active torsions:
REMARK  status: ('A' for Active; 'I' for Inactive)
REMARK       I    between atoms: C2_2  and  N1_4 
REMARK    1  A    between atoms: N1_4  and  C3_6 
REMARK    2  A    between atoms: C4_9  and  N3_10 
REMARK    3  A    between atoms: C6_16  and  C7_17 
REMARK    4  A    between atoms: N6_19  and  S1_21 
REMARK    5  A    between atoms: S1_21  and  N7_23 
ROOT
HETATM    1  C3  UNL     1      30.420  47.238  -3.586  1.00  0.00     0.138 A 
HETATM    2  N2  UNL     1      29.304  46.512  -3.338  1.00  0.00    -0.176 N 
ATOM      3  H2  UNL     1      28.987  45.817  -4.014  1.00  0.00     0.186 HD
HETATM    4  C4  UNL     1      28.610  46.708  -2.195  1.00  0.00     0.677 A 
HETATM    5  N4  UNL     1      29.026  47.612  -1.319  1.00  0.00    -0.201 N 
ATOM      6  H4  UNL     1      28.496  47.752  -0.459  1.00  0.00     0.183 HD
HETATM    7  C5  UNL     1      30.132  48.350  -1.537  1.00  0.00     0.124 A 
HETATM    8  C6  UNL     1      30.879  48.194  -2.685  1.00  0.00     0.066 A 
ENDROOT
BRANCH   8   9
HETATM    9  C7  UNL     1      32.073  48.970  -2.951  1.00  0.00     0.139 C 
HETATM   10  N5  UNL     1      33.340  48.360  -2.822  1.00  0.00    -0.081 NA
HETATM   11  N6  UNL     1      31.976  50.166  -3.289  1.00  0.00    -0.289 N 
ATOM     12  H6  UNL     1      30.972  50.344  -3.303  1.00  0.00     0.178 HD
BRANCH  11  13
HETATM   13  S1  UNL     1      32.663  51.628  -3.732  1.00  0.00     0.101 S 
HETATM   14  C8  UNL     1      33.880  50.955  -4.967  1.00  0.00     0.160 C 
HETATM   15  O2  UNL     1      31.963  52.712  -5.229  1.00  0.00    -0.229 OA
BRANCH  13  16
HETATM   16  N7  UNL     1      34.023  52.634  -2.824  1.00  0.00    -0.345 N 
ATOM     17  H72 UNL     1      34.003  52.552  -1.808  1.00  0.00     0.167 HD
ATOM     18  H71 UNL     1      34.748  53.228  -3.226  1.00  0.00     0.167 HD
ENDBRANCH  13  16
ENDBRANCH  11  13
ENDBRANCH   8   9
BRANCH   1  19
HETATM   19  N1  UNL     1      31.098  47.072  -4.664  1.00  0.00    -0.312 N 
HETATM   20  C2  UNL     1      30.510  46.400  -5.767  1.00  0.00     0.219 C 
HETATM   21  C1  UNL     1      30.081  47.226  -6.935  1.00  0.00     0.117 C 
HETATM   22  O1  UNL     1      30.330  45.158  -5.813  1.00  0.00    -0.274 OA
ATOM     23  H1  UNL     1      32.054  47.422  -4.728  1.00  0.00     0.170 HD
ENDBRANCH   1  19
BRANCH   4  24
HETATM   24  N3  UNL     1      27.559  45.974  -2.038  1.00  0.00    -0.234 N 
ATOM     25  H32 UNL     1      26.905  45.742  -2.786  1.00  0.00     0.174 HD
ATOM     26  H31 UNL     1      27.399  45.619  -1.096  1.00  0.00     0.174 HD
ENDBRANCH   4  24
TORSDOF 5
ENDMDL
MODEL 3
REMARK VINA RESULT: -6.606345162      3.139      5.887
REMARK  5 active torsions:
REMARK  status: ('A' for Active; 'I' for Inactive)
REMARK       I    between atoms: C2_2  and  N1_4 
REMARK    1  A    between atoms: N1_4  and  C3_6 
REMARK    2  A    between atoms: C4_9  and  N3_10 
REMARK    3  A    between atoms: C6_16  and  C7_17 
REMARK    4  A    between atoms: N6_19  and  S1_21 
REMARK    5  A    between atoms: S1_21  and  N7_23 
ROOT
HETATM    1  C3  UNL     1      30.058  46.986  -3.156  1.00  0.00     0.138 A 
HETATM    2  N2  UNL     1      28.990  46.337  -2.636  1.00  0.00    -0.176 N 
ATOM      3  H2  UNL     1      28.591  45.536  -3.127  1.00  0.00     0.186 HD
HETATM    4  C4  UNL     1      28.451  46.749  -1.468  1.00  0.00     0.677 A 
HETATM    5  N4  UNL     1      28.973  47.790  -0.832  1.00  0.00    -0.201 N 
ATOM      6  H4  UNL     1      28.559  48.093   0.050  1.00  0.00     0.183 HD
HETATM    7  C5  UNL     1      30.035  48.456  -1.324  1.00  0.00     0.124 A 
HETATM    8  C6  UNL     1      30.626  48.081  -2.512  1.00  0.00     0.066 A 
ENDROOT
BRANCH   8   9
HETATM    9  C7  UNL     1      31.769  48.775  -3.068  1.00  0.00     0.139 C 
HETATM   10  N5  UNL     1      33.064  48.246  -2.873  1.00  0.00    -0.081 NA
HETATM   11  N6  UNL     1      31.605  49.830  -3.712  1.00  0.00    -0.289 N 
ATOM     12  H6  UNL     1      30.597  49.980  -3.699  1.00  0.00     0.178 HD
BRANCH  11  13
HETATM   13  S1  UNL     1      32.206  51.126  -4.587  1.00  0.00     0.101 S 
HETATM   14  C8  UNL     1      33.544  51.618  -3.394  1.00  0.00     0.160 C 
HETATM   15  O2  UNL     1      33.660  50.922  -5.910  1.00  0.00    -0.229 OA
BRANCH  13  16
HETATM   16  N7  UNL     1      31.527  52.918  -4.687  1.00  0.00    -0.345 N 
ATOM     17  H72 UNL     1      31.304  53.338  -3.785  1.00  0.00     0.167 HD
ATOM     18  H71 UNL     1      31.365  53.490  -5.516  1.00  0.00     0.167 HD
ENDBRANCH  13  16
ENDBRANCH  11  13
ENDBRANCH   8   9
BRANCH   1  19
HETATM   19  N1  UNL     1      30.590  46.616  -4.265  1.00  0.00    -0.312 N 
HETATM   20  C2  UNL     1      29.854  46.741  -5.472  1.00  0.00     0.219 C 
HETATM   21  C1  UNL     1      30.237  47.843  -6.407  1.00  0.00     0.117 C 
HETATM   22  O1  UNL     1      28.905  45.985  -5.794  1.00  0.00    -0.274 OA
ATOM     23  H1  UNL     1      31.535  46.233  -4.279  1.00  0.00     0.170 HD
ENDBRANCH   1  19
BRANCH   4  24
HETATM   24  N3  UNL     1      27.435  46.075  -1.043  1.00  0.00    -0.234 N 
ATOM     25  H32 UNL     1      26.608  45.868  -1.606  1.00  0.00     0.174 HD
ATOM     26  H31 UNL     1      27.489  45.741  -0.082  1.00  0.00     0.174 HD
ENDBRANCH   4  24
TORSDOF 5
ENDMDL
MODEL 4
REMARK VINA RESULT: -6.586578464      3.098      5.992
REMARK  5 active torsions:
REMARK  status: ('A' for Active; 'I' for Inactive)
REMARK       I    between atoms: C2_2  and  N1_4 
REMARK    1  A    between atoms: N1_4  and  C3_6 
REMARK    2  A    between atoms: C4_9  and  N3_10 
REMARK    3  A    between atoms: C6_16  and  C7_17 
REMARK    4  A    between atoms: N6_19  and  S1_21 
REMARK    5  A    between atoms: S1_21  and  N7_23 
ROOT
HETATM    1  C3  UNL     1      30.223  47.059  -3.340  1.00  0.00     0.138 A 
HETATM    2  N2  UNL     1      29.067  46.446  -2.992  1.00  0.00    -0.176 N 
ATOM      3  H2  UNL     1      28.691  45.699  -3.576  1.00  0.00     0.186 HD
HETATM    4  C4  UNL     1      28.413  46.822  -1.871  1.00  0.00     0.677 A 
HETATM    5  N4  UNL     1      28.907  47.793  -1.115  1.00  0.00    -0.201 N 
ATOM      6  H4  UNL     1      28.405  48.071  -0.270  1.00  0.00     0.183 HD
HETATM    7  C5  UNL     1      30.054  48.423  -1.435  1.00  0.00     0.124 A 
HETATM    8  C6  UNL     1      30.765  48.081  -2.566  1.00  0.00     0.066 A 
ENDROOT
BRANCH   8   9
HETATM    9  C7  UNL     1      32.001  48.737  -2.938  1.00  0.00     0.139 C 
HETATM   10  N5  UNL     1      33.226  48.055  -2.769  1.00  0.00    -0.081 NA
HETATM   11  N6  UNL     1      31.978  49.893  -3.404  1.00  0.00    -0.289 N 
ATOM     12  H6  UNL     1      30.988  50.140  -3.417  1.00  0.00     0.178 HD
BRANCH  11  13
HETATM   13  S1  UNL     1      32.751  51.246  -4.017  1.00  0.00     0.101 S 
HETATM   14  C8  UNL     1      31.510  51.650  -5.341  1.00  0.00     0.160 C 
HETATM   15  O2  UNL     1      32.397  53.066  -3.332  1.00  0.00    -0.229 OA
BRANCH  13  16
HETATM   16  N7  UNL     1      34.215  51.327  -5.256  1.00  0.00    -0.345 N 
ATOM     17  H72 UNL     1      33.951  51.201  -6.233  1.00  0.00     0.167 HD
ATOM     18  H71 UNL     1      35.205  51.477  -5.061  1.00  0.00     0.167 HD
ENDBRANCH  13  16
ENDBRANCH  11  13
ENDBRANCH   8   9
BRANCH   1  19
HETATM   19  N1  UNL     1      30.866  46.721  -4.400  1.00  0.00    -0.312 N 
HETATM   20  C2  UNL     1      30.149  46.299  -5.550  1.00  0.00     0.219 C 
HETATM   21  C1  UNL     1      30.055  47.253  -6.696  1.00  0.00     0.117 C 
HETATM   22  O1  UNL     1      29.593  45.179  -5.655  1.00  0.00    -0.274 OA
ATOM     23  H1  UNL     1      31.885  46.755  -4.415  1.00  0.00     0.170 HD
ENDBRANCH   1  19
BRANCH   4  24
HETATM   24  N3  UNL     1      27.319  46.186  -1.613  1.00  0.00    -0.234 N 
ATOM     25  H32 UNL     1      27.230  45.170  -1.628  1.00  0.00     0.174 HD
ATOM     26  H31 UNL     1      26.511  46.763  -1.382  1.00  0.00     0.174 HD
ENDBRANCH   4  24
TORSDOF 5
ENDMDL
MODEL 5
REMARK VINA RESULT: -6.581299791      2.744      5.451
REMARK  5 active torsions:
REMARK  status: ('A' for Active; 'I' for Inactive)
REMARK       I    between atoms: C2_2  and  N1_4 
REMARK    1  A    between atoms: N1_4  and  C3_6 
REMARK    2  A    between atoms: C4_9  and  N3_10 
REMARK    3  A    between atoms: C6_16  and  C7_17 
REMARK    4  A    between atoms: N6_19  and  S1_21 
REMARK    5  A    between atoms: S1_21  and  N7_23 
ROOT
HETATM    1  C3  UNL     1      29.897  47.482  -6.183  1.00  0.00     0.138 A 
HETATM    2  N2  UNL     1      30.470  47.895  -7.337  1.00  0.00    -0.176 N 
ATOM      3  H2  UNL     1      30.347  47.351  -8.192  1.00  0.00     0.186 HD
HETATM    4  C4  UNL     1      31.206  49.028  -7.359  1.00  0.00     0.677 A 
HETATM    5  N4  UNL     1      31.363  49.733  -6.246  1.00  0.00    -0.201 N 
ATOM      6  H4  UNL     1      31.921  50.587  -6.273  1.00  0.00     0.183 HD
HETATM    7  C5  UNL     1      30.806  49.347  -5.082  1.00  0.00     0.124 A 
HETATM    8  C6  UNL     1      30.045  48.200  -5.000  1.00  0.00     0.066 A 
ENDROOT
BRANCH   8   9
HETATM    9  C7  UNL     1      29.431  47.758  -3.765  1.00  0.00     0.139 C 
HETATM   10  N5  UNL     1      30.182  46.981  -2.856  1.00  0.00    -0.081 NA
HETATM   11  N6  UNL     1      28.249  48.063  -3.513  1.00  0.00    -0.289 N 
ATOM     12  H6  UNL     1      27.952  48.613  -4.319  1.00  0.00     0.178 HD
BRANCH  11  13
HETATM   13  S1  UNL     1      26.901  48.025  -2.519  1.00  0.00     0.101 S 
HETATM   14  C8  UNL     1      27.715  48.703  -0.991  1.00  0.00     0.160 C 
HETATM   15  O2  UNL     1      25.661  49.557  -2.363  1.00  0.00    -0.229 OA
BRANCH  13  16
HETATM   16  N7  UNL     1      26.165  46.534  -1.560  1.00  0.00    -0.345 N 
ATOM     17  H72 UNL     1      26.339  45.626  -1.990  1.00  0.00     0.167 HD
ATOM     18  H71 UNL     1      25.631  46.540  -0.691  1.00  0.00     0.167 HD
ENDBRANCH  13  16
ENDBRANCH  11  13
ENDBRANCH   8   9
BRANCH   1  19
HETATM   19  N1  UNL     1      29.192  46.408  -6.134  1.00  0.00    -0.312 N 
HETATM   20  C2  UNL     1      29.539  45.304  -6.955  1.00  0.00     0.219 C 
HETATM   21  C1  UNL     1      30.191  44.130  -6.300  1.00  0.00     0.117 C 
HETATM   22  O1  UNL     1      29.330  45.261  -8.192  1.00  0.00    -0.274 OA
ATOM     23  H1  UNL     1      28.388  46.350  -5.509  1.00  0.00     0.170 HD
ENDBRANCH   1  19
BRANCH   4  24
HETATM   24  N3  UNL     1      31.718  49.350  -8.500  1.00  0.00    -0.234 N 
ATOM     25  H32 UNL     1      31.632  48.787  -9.347  1.00  0.00     0.174 HD
ATOM     26  H31 UNL     1      32.235  50.228  -8.526  1.00  0.00     0.174 HD
ENDBRANCH   4  24
TORSDOF 5
ENDMDL
