MODEL 1
REMARK VINA RESULT: -8.250240442      0.000      0.000
REMARK  4 active torsions:
REMARK  status: ('A' for Active; 'I' for Inactive)
REMARK       I    between atoms: N1_2  and  C2_4 
REMARK    1  A    between atoms: C2_4  and  C3_6 
REMARK    2  A    between atoms: C5_8  and  N2_9 
REMARK    3  A    between atoms: N2_9  and  C6_11 
REMARK    4  A    between atoms: C8_16  and  N4_17 
REMARK       I    between atoms: N4_17  and  C9_19 
ROOT
HETATM    1  C3  UNL     1      30.687  49.617  -5.379  1.00  0.00     0.104 A 
HETATM    2  C4  UNL     1      30.744  48.569  -6.276  1.00  0.00     0.067 A 
HETATM    3  C5  UNL     1      30.192  47.317  -5.974  1.00  0.00     0.068 A 
HETATM    4  C7  UNL     1      29.590  47.184  -4.738  1.00  0.00     0.120 A 
HETATM    5  N3  UNL     1      28.977  46.123  -4.162  1.00  0.00    -0.185 N 
ATOM      6  H3  UNL     1      28.848  45.193  -4.560  1.00  0.00     0.184 HD
HETATM    7  C8  UNL     1      28.570  46.561  -2.938  1.00  0.00     0.688 A 
HETATM    8  N6  UNL     1      28.898  47.829  -2.730  1.00  0.00    -0.174 N 
ATOM      9  H6  UNL     1      28.706  48.383  -1.896  1.00  0.00     0.186 HD
HETATM   10  C10 UNL     1      29.532  48.233  -3.838  1.00  0.00     0.151 A 
HETATM   11  N7  UNL     1      30.079  49.409  -4.184  1.00  0.00    -0.336 N 
ATOM     12  H7  UNL     1      30.035  50.181  -3.519  1.00  0.00     0.168 HD
ENDROOT
BRANCH   1  13
HETATM   13  C2  UNL     1      31.265  50.916  -5.702  1.00  0.00     0.267 C 
HETATM   14  N1  UNL     1      30.657  52.120  -5.299  1.00  0.00    -0.360 N 
HETATM   15  C1  UNL     1      31.251  53.428  -5.632  1.00  0.00     0.149 C 
ATOM     16  H1  UNL     1      29.788  52.086  -4.765  1.00  0.00     0.162 HD
HETATM   17  O1  UNL     1      32.336  50.957  -6.358  1.00  0.00    -0.266 OA
ENDBRANCH   1  13
BRANCH   3  18
HETATM   18  N2  UNL     1      30.277  46.394  -6.845  1.00  0.00    -0.332 N 
ATOM     19  H2  UNL     1      31.195  45.947  -6.862  1.00  0.00     0.168 HD
BRANCH  18  20
HETATM   20  C6  UNL     1      29.412  45.869  -7.760  1.00  0.00     0.353 C 
HETATM   21  O2  UNL     1      29.590  45.915  -9.020  1.00  0.00    -0.283 OA
ENDBRANCH  18  20
ENDBRANCH   3  18
BRANCH   7  22
HETATM   22  N4  UNL     1      27.932  45.786  -2.095  1.00  0.00    -0.143 N 
HETATM   23  C9  UNL     1      27.683  46.240  -0.773  1.00  0.00     0.346 C 
HETATM   24  N5  UNL     1      28.086  45.418   0.307  1.00  0.00    -0.039 NA
HETATM   25  O3  UNL     1      27.115  47.349  -0.525  1.00  0.00    -0.250 OA
ATOM     26  H4  UNL     1      27.617  44.861  -2.387  1.00  0.00     0.188 HD
ENDBRANCH   7  22
TORSDOF 4
ENDMDL
MODEL 2
REMARK VINA RESULT: -8.219819822      1.813      4.187
REMARK  4 active torsions:
REMARK  status: ('A' for Active; 'I' for Inactive)
REMARK       I    between atoms: N1_2  and  C2_4 
REMARK    1  A    between atoms: C2_4  and  C3_6 
REMARK    2  A    between atoms: C5_8  and  N2_9 
REMARK    3  A    between atoms: N2_9  and  C6_11 
REMARK    4  A    between atoms: C8_16  and  N4_17 
REMARK       I    between atoms: N4_17  and  C9_19 
ROOT
HETATM    1  C3  UNL     1      29.803  47.053  -6.657  1.00  0.00     0.104 A 
HETATM    2  C4  UNL     1      30.466  48.203  -6.277  1.00  0.00     0.067 A 
HETATM    3  C5  UNL     1      30.361  48.710  -4.975  1.00  0.00     0.068 A 
HETATM    4  C7  UNL     1      29.564  48.006  -4.094  1.00  0.00     0.120 A 
HETATM    5  N3  UNL     1      29.266  48.234  -2.793  1.00  0.00    -0.185 N 
ATOM      6  H3  UNL     1      29.594  49.004  -2.209  1.00  0.00     0.184 HD
HETATM    7  C8  UNL     1      28.434  47.218  -2.429  1.00  0.00     0.688 A 
HETATM    8  N6  UNL     1      28.205  46.381  -3.431  1.00  0.00    -0.174 N 
ATOM      9  H6  UNL     1      27.620  45.546  -3.411  1.00  0.00     0.186 HD
HETATM   10  C10 UNL     1      28.899  46.854  -4.474  1.00  0.00     0.151 A 
HETATM   11  N7  UNL     1      29.038  46.416  -5.736  1.00  0.00    -0.336 N 
ATOM     12  H7  UNL     1      28.548  45.566  -6.013  1.00  0.00     0.168 HD
ENDROOT
BRANCH   1  13
HETATM   13  C2  UNL     1      29.919  46.533  -8.014  1.00  0.00     0.267 C 
HETATM   14  N1  UNL     1      30.627  47.222  -9.016  1.00  0.00    -0.360 N 
HETATM   15  C1  UNL     1      30.737  46.685 -10.386  1.00  0.00     0.149 C 
ATOM     16  H1  UNL     1      31.074  48.111  -8.790  1.00  0.00     0.162 HD
HETATM   17  O1  UNL     1      29.370  45.437  -8.291  1.00  0.00    -0.266 OA
ENDBRANCH   1  13
BRANCH   3  18
HETATM   18  N2  UNL     1      30.997  49.774  -4.688  1.00  0.00    -0.332 N 
ATOM     19  H2  UNL     1      30.561  50.614  -5.070  1.00  0.00     0.168 HD
BRANCH  18  20
HETATM   20  C6  UNL     1      32.135  50.038  -3.981  1.00  0.00     0.353 C 
HETATM   21  O2  UNL     1      32.330  49.670  -2.778  1.00  0.00    -0.283 OA
ENDBRANCH  18  20
ENDBRANCH   3  18
BRANCH   7  22
HETATM   22  N4  UNL     1      27.941  47.119  -1.218  1.00  0.00    -0.143 N 
HETATM   23  C9  UNL     1      27.511  48.288  -0.537  1.00  0.00     0.346 C 
HETATM   24  N5  UNL     1      28.024  48.539   0.758  1.00  0.00    -0.039 NA
HETATM   25  O3  UNL     1      26.688  49.113  -1.044  1.00  0.00    -0.250 OA
ATOM     26  H4  UNL     1      27.867  46.207  -0.768  1.00  0.00     0.188 HD
ENDBRANCH   7  22
TORSDOF 4
ENDMDL
MODEL 3
REMARK VINA RESULT: -8.085880010      1.525      4.249
REMARK  4 active torsions:
REMARK  status: ('A' for Active; 'I' for Inactive)
REMARK       I    between atoms: N1_2  and  C2_4 
REMARK    1  A    between atoms: C2_4  and  C3_6 
REMARK    2  A    between atoms: C5_8  and  N2_9 
REMARK    3  A    between atoms: N2_9  and  C6_11 
REMARK    4  A    between atoms: C8_16  and  N4_17 
REMARK       I    between atoms: N4_17  and  C9_19 
ROOT
HETATM    1  C3  UNL     1      30.008  46.774  -6.508  1.00  0.00     0.104 A 
HETATM    2  C4  UNL     1      30.413  48.071  -6.264  1.00  0.00     0.067 A 
HETATM    3  C5  UNL     1      30.163  48.697  -5.035  1.00  0.00     0.068 A 
HETATM    4  C7  UNL     1      29.493  47.953  -4.083  1.00  0.00     0.120 A 
HETATM    5  N3  UNL     1      29.111  48.268  -2.823  1.00  0.00    -0.185 N 
ATOM      6  H3  UNL     1      29.258  49.152  -2.334  1.00  0.00     0.184 HD
HETATM    7  C8  UNL     1      28.488  47.154  -2.345  1.00  0.00     0.688 A 
HETATM    8  N6  UNL     1      28.467  46.176  -3.239  1.00  0.00    -0.174 N 
ATOM      9  H6  UNL     1      28.060  45.248  -3.123  1.00  0.00     0.186 HD
HETATM   10  C10 UNL     1      29.087  46.654  -4.325  1.00  0.00     0.151 A 
HETATM   11  N7  UNL     1      29.355  46.108  -5.522  1.00  0.00    -0.336 N 
ATOM     12  H7  UNL     1      29.054  45.149  -5.699  1.00  0.00     0.168 HD
ENDROOT
BRANCH   1  13
HETATM   13  C2  UNL     1      30.272  46.132  -7.789  1.00  0.00     0.267 C 
HETATM   14  N1  UNL     1      31.577  45.790  -8.193  1.00  0.00    -0.360 N 
HETATM   15  C1  UNL     1      31.832  45.140  -9.493  1.00  0.00     0.149 C 
ATOM     16  H1  UNL     1      32.361  45.996  -7.574  1.00  0.00     0.162 HD
HETATM   17  O1  UNL     1      29.306  45.877  -8.550  1.00  0.00    -0.266 OA
ENDBRANCH   1  13
BRANCH   3  18
HETATM   18  N2  UNL     1      30.563  49.893  -4.874  1.00  0.00    -0.332 N 
ATOM     19  H2  UNL     1      30.300  50.283  -3.969  1.00  0.00     0.168 HD
BRANCH  18  20
HETATM   20  C6  UNL     1      31.267  50.771  -5.648  1.00  0.00     0.353 C 
HETATM   21  O2  UNL     1      31.036  52.022  -5.699  1.00  0.00    -0.283 OA
ENDBRANCH  18  20
ENDBRANCH   3  18
BRANCH   7  22
HETATM   22  N4  UNL     1      27.983  47.101  -1.136  1.00  0.00    -0.143 N 
HETATM   23  C9  UNL     1      27.521  48.290  -0.515  1.00  0.00     0.346 C 
HETATM   24  N5  UNL     1      28.014  48.611   0.773  1.00  0.00    -0.039 NA
HETATM   25  O3  UNL     1      26.688  49.074  -1.067  1.00  0.00    -0.250 OA
ATOM     26  H4  UNL     1      27.922  46.209  -0.645  1.00  0.00     0.188 HD
ENDBRANCH   7  22
TORSDOF 4
ENDMDL
MODEL 4
REMARK VINA RESULT: -7.954011976      1.359      4.132
REMARK  4 active torsions:
REMARK  status: ('A' for Active; 'I' for Inactive)
REMARK       I    between atoms: N1_2  and  C2_4 
REMARK    1  A    between atoms: C2_4  and  C3_6 
REMARK    2  A    between atoms: C5_8  and  N2_9 
REMARK    3  A    between atoms: N2_9  and  C6_11 
REMARK    4  A    between atoms: C8_16  and  N4_17 
REMARK       I    between atoms: N4_17  and  C9_19 
ROOT
HETATM    1  C3  UNL     1      29.954  46.900  -6.738  1.00  0.00     0.104 A 
HETATM    2  C4  UNL     1      30.441  48.139  -6.374  1.00  0.00     0.067 A 
HETATM    3  C5  UNL     1      30.140  48.705  -5.128  1.00  0.00     0.068 A 
HETATM    4  C7  UNL     1      29.333  47.964  -4.286  1.00  0.00     0.120 A 
HETATM    5  N3  UNL     1      28.872  48.231  -3.041  1.00  0.00    -0.185 N 
ATOM      6  H3  UNL     1      29.048  49.066  -2.482  1.00  0.00     0.184 HD
HETATM    7  C8  UNL     1      28.122  47.148  -2.693  1.00  0.00     0.688 A 
HETATM    8  N6  UNL     1      28.097  46.233  -3.652  1.00  0.00    -0.174 N 
ATOM      9  H6  UNL     1      27.608  45.338  -3.634  1.00  0.00     0.186 HD
HETATM   10  C10 UNL     1      28.844  46.723  -4.650  1.00  0.00     0.151 A 
HETATM   11  N7  UNL     1      29.168  46.232  -5.857  1.00  0.00    -0.336 N 
ATOM     12  H7  UNL     1      28.806  45.316  -6.123  1.00  0.00     0.168 HD
ENDROOT
BRANCH   1  13
HETATM   13  C2  UNL     1      30.273  46.319  -8.037  1.00  0.00     0.267 C 
HETATM   14  N1  UNL     1      31.602  46.106  -8.448  1.00  0.00    -0.360 N 
HETATM   15  C1  UNL     1      31.912  45.517  -9.765  1.00  0.00     0.149 C 
ATOM     16  H1  UNL     1      32.366  46.364  -7.823  1.00  0.00     0.162 HD
HETATM   17  O1  UNL     1      29.332  46.000  -8.806  1.00  0.00    -0.266 OA
ENDBRANCH   1  13
BRANCH   3  18
HETATM   18  N2  UNL     1      30.621  49.850  -4.853  1.00  0.00    -0.332 N 
ATOM     19  H2  UNL     1      30.607  50.058  -3.854  1.00  0.00     0.168 HD
BRANCH  18  20
HETATM   20  C6  UNL     1      31.151  50.861  -5.601  1.00  0.00     0.353 C 
HETATM   21  O2  UNL     1      30.635  52.021  -5.702  1.00  0.00    -0.283 OA
ENDBRANCH  18  20
ENDBRANCH   3  18
BRANCH   7  22
HETATM   22  N4  UNL     1      27.514  47.062  -1.535  1.00  0.00    -0.143 N 
HETATM   23  C9  UNL     1      28.267  46.786  -0.364  1.00  0.00     0.346 C 
HETATM   24  N5  UNL     1      27.862  45.706   0.457  1.00  0.00    -0.039 NA
HETATM   25  O3  UNL     1      29.286  47.466  -0.028  1.00  0.00    -0.250 OA
ATOM     26  H4  UNL     1      26.504  47.194  -1.476  1.00  0.00     0.188 HD
ENDBRANCH   7  22
TORSDOF 4
ENDMDL
MODEL 5
REMARK VINA RESULT: -7.930027256      2.060      2.302
REMARK  4 active torsions:
REMARK  status: ('A' for Active; 'I' for Inactive)
REMARK       I    between atoms: N1_2  and  C2_4 
REMARK    1  A    between atoms: C2_4  and  C3_6 
REMARK    2  A    between atoms: C5_8  and  N2_9 
REMARK    3  A    between atoms: N2_9  and  C6_11 
REMARK    4  A    between atoms: C8_16  and  N4_17 
REMARK       I    between atoms: N4_17  and  C9_19 
ROOT
HETATM    1  C3  UNL     1      30.465  48.059  -6.321  1.00  0.00     0.104 A 
HETATM    2  C4  UNL     1      30.216  46.709  -6.470  1.00  0.00     0.067 A 
HETATM    3  C5  UNL     1      29.590  45.966  -5.459  1.00  0.00     0.068 A 
HETATM    4  C7  UNL     1      29.237  46.648  -4.312  1.00  0.00     0.120 A 
HETATM    5  N3  UNL     1      28.631  46.220  -3.179  1.00  0.00    -0.185 N 
ATOM      6  H3  UNL     1      28.314  45.274  -2.967  1.00  0.00     0.184 HD
HETATM    7  C8  UNL     1      28.532  47.322  -2.383  1.00  0.00     0.688 A 
HETATM    8  N6  UNL     1      29.043  48.399  -2.963  1.00  0.00    -0.174 N 
ATOM      9  H6  UNL     1      29.089  49.341  -2.573  1.00  0.00     0.186 HD
HETATM   10  C10 UNL     1      29.485  48.000  -4.161  1.00  0.00     0.151 A 
HETATM   11  N7  UNL     1      30.088  48.660  -5.164  1.00  0.00    -0.336 N 
ATOM     12  H7  UNL     1      30.270  49.657  -5.051  1.00  0.00     0.168 HD
ENDROOT
BRANCH   1  13
HETATM   13  C2  UNL     1      31.116  48.824  -7.377  1.00  0.00     0.267 C 
HETATM   14  N1  UNL     1      31.669  50.096  -7.139  1.00  0.00    -0.360 N 
HETATM   15  C1  UNL     1      32.325  50.861  -8.216  1.00  0.00     0.149 C 
ATOM     16  H1  UNL     1      31.614  50.497  -6.203  1.00  0.00     0.162 HD
HETATM   17  O1  UNL     1      31.184  48.329  -8.530  1.00  0.00    -0.266 OA
ENDBRANCH   1  13
BRANCH   3  18
HETATM   18  N2  UNL     1      29.390  44.725  -5.659  1.00  0.00    -0.332 N 
ATOM     19  H2  UNL     1      28.909  44.270  -4.883  1.00  0.00     0.168 HD
BRANCH  18  20
HETATM   20  C6  UNL     1      29.676  43.870  -6.683  1.00  0.00     0.353 C 
HETATM   21  O2  UNL     1      29.033  42.797  -6.919  1.00  0.00    -0.283 OA
ENDBRANCH  18  20
ENDBRANCH   3  18
BRANCH   7  22
HETATM   22  N4  UNL     1      27.988  47.277  -1.191  1.00  0.00    -0.143 N 
HETATM   23  C9  UNL     1      27.463  48.462  -0.613  1.00  0.00     0.346 C 
HETATM   24  N5  UNL     1      27.901  48.828   0.683  1.00  0.00    -0.039 NA
HETATM   25  O3  UNL     1      26.621  49.202  -1.210  1.00  0.00    -0.250 OA
ATOM     26  H4  UNL     1      27.943  46.394  -0.682  1.00  0.00     0.188 HD
ENDBRANCH   7  22
TORSDOF 4
ENDMDL
