MODEL 1
REMARK VINA RESULT: -6.334858098      0.000      0.000
REMARK  10 active torsions:
REMARK  status: ('A' for Active; 'I' for Inactive)
REMARK    1  A    between atoms: N1_1  and  N2_4 
REMARK    2  A    between atoms: N2_4  and  N3_5 
REMARK       I    between atoms: N3_5  and  C1_7 
REMARK    3  A    between atoms: C1_7  and  C2_9 
REMARK    4  A    between atoms: C2_9  and  N4_10 
REMARK    5  A    between atoms: N4_10  and  C3_12 
REMARK    6  A    between atoms: N5_13  and  N6_15 
REMARK    7  A    between atoms: N6_15  and  C4_17 
REMARK    8  A    between atoms: C4_17  and  N7_19 
REMARK    9  A    between atoms: N7_19  and  N8_21 
REMARK   10  A    between atoms: N8_21  and  C5_23 
ROOT
HETATM    1  C3  UNL     1      27.261  48.006  -3.259  1.00  0.00     0.193 C 
HETATM    2  N5  UNL     1      27.589  46.977  -3.935  1.00  0.00    -0.294 N 
ATOM      3  H5  UNL     1      27.000  46.638  -4.695  1.00  0.00     0.187 HD
ENDROOT
BRANCH   2   4
HETATM    4  N6  UNL     1      28.779  46.327  -3.602  1.00  0.00    -0.274 N 
ATOM      5  H6  UNL     1      28.898  45.866  -2.700  1.00  0.00     0.189 HD
BRANCH   4   6
HETATM    6  C4  UNL     1      29.814  46.335  -4.570  1.00  0.00     0.205 C 
HETATM    7  S1  UNL     1      29.444  45.853  -6.082  1.00  0.00    -0.038 SA
BRANCH   6   8
HETATM    8  N7  UNL     1      31.131  46.747  -4.241  1.00  0.00    -0.273 N 
ATOM      9  H7  UNL     1      31.864  46.762  -4.950  1.00  0.00     0.189 HD
BRANCH   8  10
HETATM   10  N8  UNL     1      31.399  47.128  -2.939  1.00  0.00    -0.276 N 
ATOM     11  H8  UNL     1      31.461  46.424  -2.203  1.00  0.00     0.189 HD
BRANCH  10  12
HETATM   12  C5  UNL     1      31.585  48.488  -2.631  1.00  0.00     0.199 C 
HETATM   13  N9  UNL     1      31.177  49.000  -1.347  1.00  0.00    -0.068 NA
HETATM   14  S2  UNL     1      32.268  49.485  -3.741  1.00  0.00    -0.043 SA
ENDBRANCH  10  12
ENDBRANCH   8  10
ENDBRANCH   6   8
ENDBRANCH   4   6
ENDBRANCH   2   4
BRANCH   1  15
HETATM   15  N4  UNL     1      28.066  48.484  -2.207  1.00  0.00    -0.376 N 
ATOM     16  H4  UNL     1      29.073  48.557  -2.348  1.00  0.00     0.160 HD
BRANCH  15  17
HETATM   17  C2  UNL     1      27.506  48.874  -0.932  1.00  0.00     0.225 C 
BRANCH  17  18
HETATM   18  C1  UNL     1      28.187  48.130   0.148  1.00  0.00     0.265 C 
HETATM   19  N3  UNL     1      29.032  47.038  -0.199  1.00  0.00    -0.182 N 
ATOM     20  H3  UNL     1      30.009  47.236  -0.413  1.00  0.00     0.207 HD
HETATM   21  O1  UNL     1      27.994  48.489   1.336  1.00  0.00    -0.269 OA
BRANCH  19  22
HETATM   22  N2  UNL     1      28.654  45.875  -0.254  1.00  0.00    -0.241 NA
BRANCH  22  23
HETATM   23  N1  UNL     1      28.156  44.776  -0.482  1.00  0.00    -0.260 N 
ATOM     24  H12 UNL     1      28.879  44.350   0.098  1.00  0.00     0.193 HD
ATOM     25  H11 UNL     1      27.621  43.957  -0.772  1.00  0.00     0.193 HD
ENDBRANCH  22  23
ENDBRANCH  19  22
ENDBRANCH  17  18
ENDBRANCH  15  17
ENDBRANCH   1  15
TORSDOF 10
ENDMDL
MODEL 2
REMARK VINA RESULT: -6.210416290      1.784      2.626
REMARK  10 active torsions:
REMARK  status: ('A' for Active; 'I' for Inactive)
REMARK    1  A    between atoms: N1_1  and  N2_4 
REMARK    2  A    between atoms: N2_4  and  N3_5 
REMARK       I    between atoms: N3_5  and  C1_7 
REMARK    3  A    between atoms: C1_7  and  C2_9 
REMARK    4  A    between atoms: C2_9  and  N4_10 
REMARK    5  A    between atoms: N4_10  and  C3_12 
REMARK    6  A    between atoms: N5_13  and  N6_15 
REMARK    7  A    between atoms: N6_15  and  C4_17 
REMARK    8  A    between atoms: C4_17  and  N7_19 
REMARK    9  A    between atoms: N7_19  and  N8_21 
REMARK   10  A    between atoms: N8_21  and  C5_23 
ROOT
HETATM    1  C3  UNL     1      27.387  45.832  -1.487  1.00  0.00     0.193 C 
HETATM    2  N5  UNL     1      27.746  45.985  -2.701  1.00  0.00    -0.294 N 
ATOM      3  H5  UNL     1      27.120  45.741  -3.467  1.00  0.00     0.187 HD
ENDROOT
BRANCH   2   4
HETATM    4  N6  UNL     1      29.021  46.495  -2.948  1.00  0.00    -0.274 N 
ATOM      5  H6  UNL     1      29.819  46.237  -2.366  1.00  0.00     0.189 HD
BRANCH   4   6
HETATM    6  C4  UNL     1      29.162  47.386  -4.040  1.00  0.00     0.205 C 
HETATM    7  S1  UNL     1      29.219  46.748  -5.539  1.00  0.00    -0.038 SA
BRANCH   6   8
HETATM    8  N7  UNL     1      29.251  48.788  -3.845  1.00  0.00    -0.273 N 
ATOM      9  H7  UNL     1      28.565  49.279  -3.272  1.00  0.00     0.189 HD
BRANCH   8  10
HETATM   10  N8  UNL     1      30.289  49.475  -4.449  1.00  0.00    -0.276 N 
ATOM     11  H8  UNL     1      30.088  50.199  -5.140  1.00  0.00     0.189 HD
BRANCH  10  12
HETATM   12  C5  UNL     1      31.620  49.174  -4.111  1.00  0.00     0.199 C 
HETATM   13  N9  UNL     1      32.066  49.305  -2.746  1.00  0.00    -0.068 NA
HETATM   14  S2  UNL     1      32.661  48.674  -5.278  1.00  0.00    -0.043 SA
ENDBRANCH  10  12
ENDBRANCH   8  10
ENDBRANCH   6   8
ENDBRANCH   4   6
ENDBRANCH   2   4
BRANCH   1  15
HETATM   15  N4  UNL     1      28.243  46.165  -0.419  1.00  0.00    -0.376 N 
ATOM     16  H4  UNL     1      29.047  45.568  -0.224  1.00  0.00     0.160 HD
BRANCH  15  17
HETATM   17  C2  UNL     1      28.016  47.328   0.409  1.00  0.00     0.225 C 
BRANCH  17  18
HETATM   18  C1  UNL     1      28.243  48.549  -0.392  1.00  0.00     0.265 C 
HETATM   19  N3  UNL     1      27.120  49.322  -0.798  1.00  0.00    -0.182 N 
ATOM     20  H3  UNL     1      26.775  50.040  -0.161  1.00  0.00     0.207 HD
HETATM   21  O1  UNL     1      29.424  48.859  -0.687  1.00  0.00    -0.269 OA
BRANCH  19  22
HETATM   22  N2  UNL     1      26.543  49.176  -1.868  1.00  0.00    -0.241 NA
BRANCH  22  23
HETATM   23  N1  UNL     1      25.993  49.247  -2.964  1.00  0.00    -0.260 N 
ATOM     24  H12 UNL     1      26.103  50.261  -2.931  1.00  0.00     0.193 HD
ATOM     25  H11 UNL     1      25.526  49.123  -3.862  1.00  0.00     0.193 HD
ENDBRANCH  22  23
ENDBRANCH  19  22
ENDBRANCH  17  18
ENDBRANCH  15  17
ENDBRANCH   1  15
TORSDOF 10
ENDMDL
MODEL 3
REMARK VINA RESULT: -6.040941238      1.847      3.254
REMARK  10 active torsions:
REMARK  status: ('A' for Active; 'I' for Inactive)
REMARK    1  A    between atoms: N1_1  and  N2_4 
REMARK    2  A    between atoms: N2_4  and  N3_5 
REMARK       I    between atoms: N3_5  and  C1_7 
REMARK    3  A    between atoms: C1_7  and  C2_9 
REMARK    4  A    between atoms: C2_9  and  N4_10 
REMARK    5  A    between atoms: N4_10  and  C3_12 
REMARK    6  A    between atoms: N5_13  and  N6_15 
REMARK    7  A    between atoms: N6_15  and  C4_17 
REMARK    8  A    between atoms: C4_17  and  N7_19 
REMARK    9  A    between atoms: N7_19  and  N8_21 
REMARK   10  A    between atoms: N8_21  and  C5_23 
ROOT
HETATM    1  C3  UNL     1      27.201  48.007  -3.222  1.00  0.00     0.193 C 
HETATM    2  N5  UNL     1      27.661  46.996  -3.847  1.00  0.00    -0.294 N 
ATOM      3  H5  UNL     1      27.129  46.555  -4.596  1.00  0.00     0.187 HD
ENDROOT
BRANCH   2   4
HETATM    4  N6  UNL     1      28.916  46.512  -3.474  1.00  0.00    -0.274 N 
ATOM      5  H6  UNL     1      29.092  46.160  -2.533  1.00  0.00     0.189 HD
BRANCH   4   6
HETATM    6  C4  UNL     1      29.935  46.529  -4.458  1.00  0.00     0.205 C 
HETATM    7  S1  UNL     1      30.528  47.977  -4.913  1.00  0.00    -0.038 SA
BRANCH   6   8
HETATM    8  N7  UNL     1      30.429  45.330  -5.034  1.00  0.00    -0.273 N 
ATOM      9  H7  UNL     1      31.346  44.966  -4.774  1.00  0.00     0.189 HD
BRANCH   8  10
HETATM   10  N8  UNL     1      29.640  44.665  -5.955  1.00  0.00    -0.276 N 
ATOM     11  H8  UNL     1      28.808  44.163  -5.647  1.00  0.00     0.189 HD
BRANCH  10  12
HETATM   12  C5  UNL     1      29.988  44.683  -7.318  1.00  0.00     0.199 C 
HETATM   13  N9  UNL     1      30.647  43.546  -7.910  1.00  0.00    -0.068 NA
HETATM   14  S2  UNL     1      29.640  46.005  -8.227  1.00  0.00    -0.043 SA
ENDBRANCH  10  12
ENDBRANCH   8  10
ENDBRANCH   6   8
ENDBRANCH   4   6
ENDBRANCH   2   4
BRANCH   1  15
HETATM   15  N4  UNL     1      27.926  48.625  -2.185  1.00  0.00    -0.376 N 
ATOM     16  H4  UNL     1      28.897  48.891  -2.350  1.00  0.00     0.160 HD
BRANCH  15  17
HETATM   17  C2  UNL     1      27.335  48.894  -0.893  1.00  0.00     0.225 C 
BRANCH  17  18
HETATM   18  C1  UNL     1      28.103  48.183   0.152  1.00  0.00     0.265 C 
HETATM   19  N3  UNL     1      28.943  47.100  -0.232  1.00  0.00    -0.182 N 
ATOM     20  H3  UNL     1      29.899  47.311  -0.516  1.00  0.00     0.207 HD
HETATM   21  O1  UNL     1      27.984  48.562   1.343  1.00  0.00    -0.269 OA
BRANCH  19  22
HETATM   22  N2  UNL     1      28.584  45.929  -0.240  1.00  0.00    -0.241 NA
BRANCH  22  23
HETATM   23  N1  UNL     1      28.180  44.791  -0.461  1.00  0.00    -0.260 N 
ATOM     24  H12 UNL     1      27.982  45.070  -1.423  1.00  0.00     0.193 HD
ATOM     25  H11 UNL     1      27.885  43.815  -0.469  1.00  0.00     0.193 HD
ENDBRANCH  22  23
ENDBRANCH  19  22
ENDBRANCH  17  18
ENDBRANCH  15  17
ENDBRANCH   1  15
TORSDOF 10
ENDMDL
MODEL 4
REMARK VINA RESULT: -6.037091916      2.315      3.923
REMARK  10 active torsions:
REMARK  status: ('A' for Active; 'I' for Inactive)
REMARK    1  A    between atoms: N1_1  and  N2_4 
REMARK    2  A    between atoms: N2_4  and  N3_5 
REMARK       I    between atoms: N3_5  and  C1_7 
REMARK    3  A    between atoms: C1_7  and  C2_9 
REMARK    4  A    between atoms: C2_9  and  N4_10 
REMARK    5  A    between atoms: N4_10  and  C3_12 
REMARK    6  A    between atoms: N5_13  and  N6_15 
REMARK    7  A    between atoms: N6_15  and  C4_17 
REMARK    8  A    between atoms: C4_17  and  N7_19 
REMARK    9  A    between atoms: N7_19  and  N8_21 
REMARK   10  A    between atoms: N8_21  and  C5_23 
ROOT
HETATM    1  C3  UNL     1      27.190  47.502  -3.108  1.00  0.00     0.193 C 
HETATM    2  N5  UNL     1      28.286  47.604  -3.751  1.00  0.00    -0.294 N 
ATOM      3  H5  UNL     1      28.453  48.388  -4.381  1.00  0.00     0.187 HD
ENDROOT
BRANCH   2   4
HETATM    4  N6  UNL     1      29.249  46.611  -3.567  1.00  0.00    -0.274 N 
ATOM      5  H6  UNL     1      29.237  46.004  -2.747  1.00  0.00     0.189 HD
BRANCH   4   6
HETATM    6  C4  UNL     1      30.245  46.481  -4.566  1.00  0.00     0.205 C 
HETATM    7  S1  UNL     1      31.119  47.803  -4.945  1.00  0.00    -0.038 SA
BRANCH   6   8
HETATM    8  N7  UNL     1      30.480  45.244  -5.220  1.00  0.00    -0.273 N 
ATOM      9  H7  UNL     1      31.429  44.888  -5.337  1.00  0.00     0.189 HD
BRANCH   8  10
HETATM   10  N8  UNL     1      29.395  44.531  -5.695  1.00  0.00    -0.276 N 
ATOM     11  H8  UNL     1      28.465  44.698  -5.310  1.00  0.00     0.189 HD
BRANCH  10  12
HETATM   12  C5  UNL     1      29.575  43.574  -6.711  1.00  0.00     0.199 C 
HETATM   13  N9  UNL     1      28.673  42.456  -6.819  1.00  0.00    -0.068 NA
HETATM   14  S2  UNL     1      30.819  43.740  -7.769  1.00  0.00    -0.043 SA
ENDBRANCH  10  12
ENDBRANCH   8  10
ENDBRANCH   6   8
ENDBRANCH   4   6
ENDBRANCH   2   4
BRANCH   1  15
HETATM   15  N4  UNL     1      26.947  46.424  -2.235  1.00  0.00    -0.376 N 
ATOM     16  H4  UNL     1      26.889  45.480  -2.617  1.00  0.00     0.160 HD
BRANCH  15  17
HETATM   17  C2  UNL     1      26.777  46.615  -0.812  1.00  0.00     0.225 C 
BRANCH  17  18
HETATM   18  C1  UNL     1      28.101  46.588  -0.155  1.00  0.00     0.265 C 
HETATM   19  N3  UNL     1      28.791  47.815   0.048  1.00  0.00    -0.182 N 
ATOM     20  H3  UNL     1      28.596  48.341   0.900  1.00  0.00     0.207 HD
HETATM   21  O1  UNL     1      28.569  45.478   0.201  1.00  0.00    -0.269 OA
BRANCH  19  22
HETATM   22  N2  UNL     1      29.606  48.277  -0.741  1.00  0.00    -0.241 NA
BRANCH  22  23
HETATM   23  N1  UNL     1      30.499  48.851  -1.357  1.00  0.00    -0.260 N 
ATOM     24  H12 UNL     1      29.833  49.041  -2.106  1.00  0.00     0.193 HD
ATOM     25  H11 UNL     1      31.346  49.285  -1.725  1.00  0.00     0.193 HD
ENDBRANCH  22  23
ENDBRANCH  19  22
ENDBRANCH  17  18
ENDBRANCH  15  17
ENDBRANCH   1  15
TORSDOF 10
ENDMDL
MODEL 5
REMARK VINA RESULT: -6.007314742      2.182      2.562
REMARK  10 active torsions:
REMARK  status: ('A' for Active; 'I' for Inactive)
REMARK    1  A    between atoms: N1_1  and  N2_4 
REMARK    2  A    between atoms: N2_4  and  N3_5 
REMARK       I    between atoms: N3_5  and  C1_7 
REMARK    3  A    between atoms: C1_7  and  C2_9 
REMARK    4  A    between atoms: C2_9  and  N4_10 
REMARK    5  A    between atoms: N4_10  and  C3_12 
REMARK    6  A    between atoms: N5_13  and  N6_15 
REMARK    7  A    between atoms: N6_15  and  C4_17 
REMARK    8  A    between atoms: C4_17  and  N7_19 
REMARK    9  A    between atoms: N7_19  and  N8_21 
REMARK   10  A    between atoms: N8_21  and  C5_23 
ROOT
HETATM    1  C3  UNL     1      26.142  48.595  -2.430  1.00  0.00     0.193 C 
HETATM    2  N5  UNL     1      26.862  48.966  -3.414  1.00  0.00    -0.294 N 
ATOM      3  H5  UNL     1      26.437  49.274  -4.288  1.00  0.00     0.187 HD
ENDROOT
BRANCH   2   4
HETATM    4  N6  UNL     1      28.248  48.937  -3.260  1.00  0.00    -0.274 N 
ATOM      5  H6  UNL     1      28.712  49.470  -2.523  1.00  0.00     0.189 HD
BRANCH   4   6
HETATM    6  C4  UNL     1      28.986  48.139  -4.168  1.00  0.00     0.205 C 
HETATM    7  S1  UNL     1      28.587  46.563  -4.291  1.00  0.00    -0.038 SA
BRANCH   6   8
HETATM    8  N7  UNL     1      30.038  48.684  -4.948  1.00  0.00    -0.273 N 
ATOM      9  H7  UNL     1      30.434  48.160  -5.728  1.00  0.00     0.189 HD
BRANCH   8  10
HETATM   10  N8  UNL     1      30.514  49.943  -4.628  1.00  0.00    -0.276 N 
ATOM     11  H8  UNL     1      29.863  50.714  -4.484  1.00  0.00     0.189 HD
BRANCH  10  12
HETATM   12  C5  UNL     1      31.899  50.156  -4.501  1.00  0.00     0.199 C 
HETATM   13  N9  UNL     1      32.541  49.990  -3.221  1.00  0.00    -0.068 NA
HETATM   14  S2  UNL     1      32.776  50.595  -5.817  1.00  0.00    -0.043 SA
ENDBRANCH  10  12
ENDBRANCH   8  10
ENDBRANCH   6   8
ENDBRANCH   4   6
ENDBRANCH   2   4
BRANCH   1  15
HETATM   15  N4  UNL     1      26.717  48.167  -1.217  1.00  0.00    -0.376 N 
ATOM     16  H4  UNL     1      27.038  48.866  -0.548  1.00  0.00     0.160 HD
BRANCH  15  17
HETATM   17  C2  UNL     1      26.864  46.766  -0.894  1.00  0.00     0.225 C 
BRANCH  17  18
HETATM   18  C1  UNL     1      28.185  46.547  -0.267  1.00  0.00     0.265 C 
HETATM   19  N3  UNL     1      28.963  47.678   0.108  1.00  0.00    -0.182 N 
ATOM     20  H3  UNL     1      28.809  48.082   1.032  1.00  0.00     0.207 HD
HETATM   21  O1  UNL     1      28.574  45.366  -0.089  1.00  0.00    -0.269 OA
BRANCH  19  22
HETATM   22  N2  UNL     1      29.806  48.195  -0.614  1.00  0.00    -0.241 NA
BRANCH  22  23
HETATM   23  N1  UNL     1      30.713  48.820  -1.155  1.00  0.00    -0.260 N 
ATOM     24  H12 UNL     1      31.363  48.087  -0.870  1.00  0.00     0.193 HD
ATOM     25  H11 UNL     1      31.336  49.461  -1.647  1.00  0.00     0.193 HD
ENDBRANCH  22  23
ENDBRANCH  19  22
ENDBRANCH  17  18
ENDBRANCH  15  17
ENDBRANCH   1  15
TORSDOF 10
ENDMDL
