MODEL 1
REMARK VINA RESULT: -8.473237588      0.000      0.000
REMARK  4 active torsions:
REMARK  status: ('A' for Active; 'I' for Inactive)
REMARK    1  A    between atoms: C5_10  and  N3_11 
REMARK    2  A    between atoms: N3_11  and  C6_13 
REMARK    3  A    between atoms: N6_19  and  C8_21 
REMARK    4  A    between atoms: C8_21  and  C9_22 
ROOT
HETATM    1  C1  UNL     1      25.743  49.201  -3.132  1.00  0.00     0.019 C 
HETATM    2  C2  UNL     1      26.289  48.449  -2.363  1.00  0.00    -0.056 C 
HETATM    3  C3  UNL     1      26.926  47.544  -1.452  1.00  0.00     0.133 A 
HETATM    4  N1  UNL     1      26.385  46.410  -0.958  1.00  0.00    -0.287 N 
ATOM      5  H1  UNL     1      25.450  46.066  -1.177  1.00  0.00     0.188 HD
HETATM    6  N2  UNL     1      27.248  45.808  -0.142  1.00  0.00    -0.263 N 
ATOM      7  H2  UNL     1      27.071  44.934   0.354  1.00  0.00     0.190 HD
HETATM    8  C4  UNL     1      28.382  46.516  -0.068  1.00  0.00     0.289 A 
HETATM    9  O1  UNL     1      29.392  46.213   0.618  1.00  0.00    -0.264 OA
HETATM   10  C5  UNL     1      28.188  47.608  -0.889  1.00  0.00     0.141 A 
ENDROOT
BRANCH  10  11
HETATM   11  N3  UNL     1      29.107  48.645  -1.138  1.00  0.00    -0.328 N 
ATOM     12  H3  UNL     1      29.026  49.520  -0.620  1.00  0.00     0.168 HD
BRANCH  11  13
HETATM   13  C6  UNL     1      30.070  48.506  -2.028  1.00  0.00     0.167 A 
HETATM   14  N4  UNL     1      31.254  49.131  -2.046  1.00  0.00    -0.278 N 
HETATM   15  N5  UNL     1      32.067  48.868  -2.996  1.00  0.00    -0.278 N 
ATOM     16  H4  UNL     1      31.501  49.801  -1.319  1.00  0.00     0.189 HD
HETATM   17  C7  UNL     1      31.712  47.988  -3.931  1.00  0.00     0.163 A 
ATOM     18  H5  UNL     1      32.977  49.326  -3.037  1.00  0.00     0.189 HD
HETATM   19  N6  UNL     1      32.395  47.584  -4.978  1.00  0.00    -0.361 N 
HETATM   20  S1  UNL     1      30.150  47.526  -3.418  1.00  0.00    -0.015 SA
ATOM     21  H6  UNL     1      32.007  46.899  -5.626  1.00  0.00     0.162 HD
BRANCH  19  22
HETATM   22  C8  UNL     1      33.700  48.134  -5.184  1.00  0.00     0.221 C 
BRANCH  22  23
HETATM   23  C9  UNL     1      34.296  47.713  -6.476  1.00  0.00     0.248 C 
HETATM   24  N7  UNL     1      35.639  48.078  -6.742  1.00  0.00    -0.061 NA
HETATM   25  O2  UNL     1      33.681  47.051  -7.351  1.00  0.00    -0.275 OA
ENDBRANCH  22  23
ENDBRANCH  19  22
ENDBRANCH  11  13
ENDBRANCH  10  11
TORSDOF 4
ENDMDL
MODEL 2
REMARK VINA RESULT: -8.284566424      3.757      7.120
REMARK  4 active torsions:
REMARK  status: ('A' for Active; 'I' for Inactive)
REMARK    1  A    between atoms: C5_10  and  N3_11 
REMARK    2  A    between atoms: N3_11  and  C6_13 
REMARK    3  A    between atoms: N6_19  and  C8_21 
REMARK    4  A    between atoms: C8_21  and  C9_22 
ROOT
HETATM    1  C1  UNL     1      31.224  47.973  -9.285  1.00  0.00     0.019 C 
HETATM    2  C2  UNL     1      30.987  46.894  -8.802  1.00  0.00    -0.056 C 
HETATM    3  C3  UNL     1      30.721  45.605  -8.233  1.00  0.00     0.133 A 
HETATM    4  N1  UNL     1      31.359  44.457  -8.545  1.00  0.00    -0.287 N 
ATOM      5  H1  UNL     1      32.111  44.376  -9.229  1.00  0.00     0.188 HD
HETATM    6  N2  UNL     1      30.864  43.449  -7.831  1.00  0.00    -0.263 N 
ATOM      7  H2  UNL     1      31.183  42.481  -7.887  1.00  0.00     0.190 HD
HETATM    8  C4  UNL     1      29.888  43.889  -7.027  1.00  0.00     0.289 A 
HETATM    9  O1  UNL     1      29.222  43.184  -6.227  1.00  0.00    -0.264 OA
HETATM   10  C5  UNL     1      29.792  45.244  -7.274  1.00  0.00     0.141 A 
ENDROOT
BRANCH  10  11
HETATM   11  N3  UNL     1      28.901  46.147  -6.665  1.00  0.00    -0.328 N 
ATOM     12  H3  UNL     1      28.119  46.519  -7.204  1.00  0.00     0.168 HD
BRANCH  11  13
HETATM   13  C6  UNL     1      29.058  46.521  -5.410  1.00  0.00     0.167 A 
HETATM   14  N4  UNL     1      28.789  45.807  -4.310  1.00  0.00    -0.278 N 
HETATM   15  N5  UNL     1      29.006  46.340  -3.170  1.00  0.00    -0.278 N 
ATOM     16  H4  UNL     1      28.419  44.859  -4.381  1.00  0.00     0.189 HD
HETATM   17  C7  UNL     1      29.488  47.580  -3.113  1.00  0.00     0.163 A 
ATOM     18  H5  UNL     1      28.812  45.821  -2.313  1.00  0.00     0.189 HD
HETATM   19  N6  UNL     1      29.776  48.299  -2.051  1.00  0.00    -0.361 N 
HETATM   20  S1  UNL     1      29.632  47.988  -4.764  1.00  0.00    -0.015 SA
ATOM     21  H6  UNL     1      30.143  49.247  -2.143  1.00  0.00     0.162 HD
BRANCH  19  22
HETATM   22  C8  UNL     1      29.561  47.715  -0.763  1.00  0.00     0.221 C 
BRANCH  22  23
HETATM   23  C9  UNL     1      28.192  47.968  -0.248  1.00  0.00     0.248 C 
HETATM   24  N7  UNL     1      27.167  47.056  -0.602  1.00  0.00    -0.061 NA
HETATM   25  O2  UNL     1      27.886  48.943   0.486  1.00  0.00    -0.275 OA
ENDBRANCH  22  23
ENDBRANCH  19  22
ENDBRANCH  11  13
ENDBRANCH  10  11
TORSDOF 4
ENDMDL
MODEL 3
REMARK VINA RESULT: -8.252513907      1.569      1.879
REMARK  4 active torsions:
REMARK  status: ('A' for Active; 'I' for Inactive)
REMARK    1  A    between atoms: C5_10  and  N3_11 
REMARK    2  A    between atoms: N3_11  and  C6_13 
REMARK    3  A    between atoms: N6_19  and  C8_21 
REMARK    4  A    between atoms: C8_21  and  C9_22 
ROOT
HETATM    1  C1  UNL     1      25.637  49.252  -3.215  1.00  0.00     0.019 C 
HETATM    2  C2  UNL     1      26.201  48.485  -2.474  1.00  0.00    -0.056 C 
HETATM    3  C3  UNL     1      26.859  47.562  -1.597  1.00  0.00     0.133 A 
HETATM    4  N1  UNL     1      26.289  46.490  -1.008  1.00  0.00    -0.287 N 
ATOM      5  H1  UNL     1      25.315  46.211  -1.122  1.00  0.00     0.188 HD
HETATM    6  N2  UNL     1      27.184  45.848  -0.259  1.00  0.00    -0.263 N 
ATOM      7  H2  UNL     1      26.994  45.007   0.286  1.00  0.00     0.190 HD
HETATM    8  C4  UNL     1      28.368  46.470  -0.323  1.00  0.00     0.289 A 
HETATM    9  O1  UNL     1      29.417  46.113   0.271  1.00  0.00    -0.264 OA
HETATM   10  C5  UNL     1      28.172  47.548  -1.163  1.00  0.00     0.141 A 
ENDROOT
BRANCH  10  11
HETATM   11  N3  UNL     1      29.134  48.503  -1.540  1.00  0.00    -0.328 N 
ATOM     12  H3  UNL     1      29.296  49.314  -0.943  1.00  0.00     0.168 HD
BRANCH  11  13
HETATM   13  C6  UNL     1      29.832  48.370  -2.651  1.00  0.00     0.167 A 
HETATM   14  N4  UNL     1      29.479  48.759  -3.883  1.00  0.00    -0.278 N 
HETATM   15  N5  UNL     1      30.291  48.544  -4.846  1.00  0.00    -0.278 N 
ATOM     16  H4  UNL     1      28.582  49.215  -4.049  1.00  0.00     0.189 HD
HETATM   17  C7  UNL     1      31.453  47.945  -4.594  1.00  0.00     0.163 A 
ATOM     18  H5  UNL     1      30.052  48.829  -5.795  1.00  0.00     0.189 HD
HETATM   19  N6  UNL     1      32.415  47.636  -5.435  1.00  0.00    -0.361 N 
HETATM   20  S1  UNL     1      31.368  47.682  -2.909  1.00  0.00    -0.015 SA
ATOM     21  H6  UNL     1      33.265  47.172  -5.113  1.00  0.00     0.162 HD
BRANCH  19  22
HETATM   22  C8  UNL     1      32.236  47.969  -6.815  1.00  0.00     0.221 C 
BRANCH  22  23
HETATM   23  C9  UNL     1      31.584  46.879  -7.582  1.00  0.00     0.248 C 
HETATM   24  N7  UNL     1      30.197  46.988  -7.849  1.00  0.00    -0.061 NA
HETATM   25  O2  UNL     1      32.189  45.862  -8.010  1.00  0.00    -0.275 OA
ENDBRANCH  22  23
ENDBRANCH  19  22
ENDBRANCH  11  13
ENDBRANCH  10  11
TORSDOF 4
ENDMDL
MODEL 4
REMARK VINA RESULT: -8.149748478      2.508      2.844
REMARK  4 active torsions:
REMARK  status: ('A' for Active; 'I' for Inactive)
REMARK    1  A    between atoms: C5_10  and  N3_11 
REMARK    2  A    between atoms: N3_11  and  C6_13 
REMARK    3  A    between atoms: N6_19  and  C8_21 
REMARK    4  A    between atoms: C8_21  and  C9_22 
ROOT
HETATM    1  C1  UNL     1      25.630  49.356  -3.237  1.00  0.00     0.019 C 
HETATM    2  C2  UNL     1      26.326  48.869  -2.382  1.00  0.00    -0.056 C 
HETATM    3  C3  UNL     1      27.147  48.299  -1.354  1.00  0.00     0.133 A 
HETATM    4  N1  UNL     1      27.407  48.857  -0.152  1.00  0.00    -0.287 N 
ATOM      5  H1  UNL     1      27.045  49.756   0.164  1.00  0.00     0.188 HD
HETATM    6  N2  UNL     1      28.204  48.061   0.559  1.00  0.00    -0.263 N 
ATOM      7  H2  UNL     1      28.541  48.263   1.501  1.00  0.00     0.190 HD
HETATM    8  C4  UNL     1      28.498  46.959  -0.141  1.00  0.00     0.289 A 
HETATM    9  O1  UNL     1      29.228  46.013   0.252  1.00  0.00    -0.264 OA
HETATM   10  C5  UNL     1      27.838  47.101  -1.345  1.00  0.00     0.141 A 
ENDROOT
BRANCH  10  11
HETATM   11  N3  UNL     1      27.843  46.190  -2.418  1.00  0.00    -0.328 N 
ATOM     12  H3  UNL     1      27.350  45.302  -2.322  1.00  0.00     0.168 HD
BRANCH  11  13
HETATM   13  C6  UNL     1      28.472  46.461  -3.544  1.00  0.00     0.167 A 
HETATM   14  N4  UNL     1      28.461  45.742  -4.674  1.00  0.00    -0.278 N 
HETATM   15  N5  UNL     1      29.137  46.166  -5.672  1.00  0.00    -0.278 N 
ATOM     16  H4  UNL     1      27.925  44.877  -4.736  1.00  0.00     0.189 HD
HETATM   17  C7  UNL     1      29.826  47.300  -5.556  1.00  0.00     0.163 A 
ATOM     18  H5  UNL     1      29.148  45.642  -6.547  1.00  0.00     0.189 HD
HETATM   19  N6  UNL     1      30.576  47.898  -6.454  1.00  0.00    -0.361 N 
HETATM   20  S1  UNL     1      29.484  47.769  -3.950  1.00  0.00    -0.015 SA
ATOM     21  H6  UNL     1      31.057  48.772  -6.238  1.00  0.00     0.162 HD
BRANCH  19  22
HETATM   22  C8  UNL     1      30.699  47.289  -7.743  1.00  0.00     0.221 C 
BRANCH  22  23
HETATM   23  C9  UNL     1      31.763  46.256  -7.782  1.00  0.00     0.248 C 
HETATM   24  N7  UNL     1      31.371  44.896  -7.858  1.00  0.00    -0.061 NA
HETATM   25  O2  UNL     1      32.994  46.512  -7.753  1.00  0.00    -0.275 OA
ENDBRANCH  22  23
ENDBRANCH  19  22
ENDBRANCH  11  13
ENDBRANCH  10  11
TORSDOF 4
ENDMDL
MODEL 5
REMARK VINA RESULT: -8.084223099      2.273      2.526
REMARK  4 active torsions:
REMARK  status: ('A' for Active; 'I' for Inactive)
REMARK    1  A    between atoms: C5_10  and  N3_11 
REMARK    2  A    between atoms: N3_11  and  C6_13 
REMARK    3  A    between atoms: N6_19  and  C8_21 
REMARK    4  A    between atoms: C8_21  and  C9_22 
ROOT
HETATM    1  C1  UNL     1      25.861  49.206  -3.307  1.00  0.00     0.019 C 
HETATM    2  C2  UNL     1      26.364  48.413  -2.549  1.00  0.00    -0.056 C 
HETATM    3  C3  UNL     1      26.948  47.462  -1.650  1.00  0.00     0.133 A 
HETATM    4  N1  UNL     1      26.272  46.561  -0.906  1.00  0.00    -0.287 N 
ATOM      5  H1  UNL     1      25.258  46.454  -0.899  1.00  0.00     0.188 HD
HETATM    6  N2  UNL     1      27.121  45.833  -0.183  1.00  0.00    -0.263 N 
ATOM      7  H2  UNL     1      26.852  45.087   0.458  1.00  0.00     0.190 HD
HETATM    8  C4  UNL     1      28.379  46.224  -0.421  1.00  0.00     0.289 A 
HETATM    9  O1  UNL     1      29.411  45.734   0.105  1.00  0.00    -0.264 OA
HETATM   10  C5  UNL     1      28.279  47.247  -1.342  1.00  0.00     0.141 A 
ENDROOT
BRANCH  10  11
HETATM   11  N3  UNL     1      29.342  47.980  -1.902  1.00  0.00    -0.328 N 
ATOM     12  H3  UNL     1      29.738  48.763  -1.383  1.00  0.00     0.168 HD
BRANCH  11  13
HETATM   13  C6  UNL     1      29.837  47.672  -3.085  1.00  0.00     0.167 A 
HETATM   14  N4  UNL     1      30.508  46.563  -3.421  1.00  0.00    -0.278 N 
HETATM   15  N5  UNL     1      30.914  46.439  -4.626  1.00  0.00    -0.278 N 
ATOM     16  H4  UNL     1      30.691  45.835  -2.731  1.00  0.00     0.189 HD
HETATM   17  C7  UNL     1      30.659  47.410  -5.502  1.00  0.00     0.163 A 
ATOM     18  H5  UNL     1      31.427  45.605  -4.914  1.00  0.00     0.189 HD
HETATM   19  N6  UNL     1      30.987  47.474  -6.773  1.00  0.00    -0.361 N 
HETATM   20  S1  UNL     1      29.803  48.540  -4.550  1.00  0.00    -0.015 SA
ATOM     21  H6  UNL     1      30.730  48.282  -7.340  1.00  0.00     0.162 HD
BRANCH  19  22
HETATM   22  C8  UNL     1      31.714  46.379  -7.337  1.00  0.00     0.221 C 
BRANCH  22  23
HETATM   23  C9  UNL     1      30.864  45.511  -8.188  1.00  0.00     0.248 C 
HETATM   24  N7  UNL     1      31.282  44.175  -8.408  1.00  0.00    -0.061 NA
HETATM   25  O2  UNL     1      29.792  45.889  -8.728  1.00  0.00    -0.275 OA
ENDBRANCH  22  23
ENDBRANCH  19  22
ENDBRANCH  11  13
ENDBRANCH  10  11
TORSDOF 4
ENDMDL
