MODEL 1
REMARK VINA RESULT: -8.253897334      0.000      0.000
REMARK  6 active torsions:
REMARK  status: ('A' for Active; 'I' for Inactive)
REMARK       I    between atoms: N1_2  and  C2_4 
REMARK       I    between atoms: C2_4  and  N2_5 
REMARK       I    between atoms: C2_4  and  N8_25 
REMARK    1  A    between atoms: N2_5  and  C3_7 
REMARK    2  A    between atoms: C3_7  and  N3_8 
REMARK    3  A    between atoms: C3_7  and  C4_12 
REMARK       I    between atoms: C4_12  and  N4_14 
REMARK    4  A    between atoms: N4_14  and  C5_16 
REMARK    5  A    between atoms: N8_25  and  C7_27 
REMARK    6  A    between atoms: C7_27  and  C8_28 
ROOT
HETATM    1  C3  UNL     1      29.268  47.949  -4.542  1.00  0.00     0.389 C 
ENDROOT
BRANCH   1   2
HETATM    2  N2  UNL     1      29.452  48.433  -3.222  1.00  0.00    -0.189 N 
HETATM    3  C2  UNL     1      28.484  48.508  -2.391  1.00  0.00     0.671 C 
HETATM    4  N1  UNL     1      27.187  48.072  -2.856  1.00  0.00    -0.231 N 
HETATM    5  N8  UNL     1      28.630  49.015  -1.067  1.00  0.00    -0.226 N 
HETATM    6  C1  UNL     1      26.181  48.994  -3.284  1.00  0.00     0.165 C 
ATOM      7  H1  UNL     1      26.983  47.073  -2.880  1.00  0.00     0.177 HD
ATOM      8  H8  UNL     1      29.368  49.685  -0.847  1.00  0.00     0.177 HD
ATOM      9  H2  UNL     1      30.383  48.730  -2.928  1.00  0.00     0.180 HD
BRANCH   5  10
HETATM   10  C7  UNL     1      27.735  48.576  -0.056  1.00  0.00     0.142 C 
BRANCH  10  11
HETATM   11  C8  UNL     1      28.064  47.229   0.525  1.00  0.00    -0.004 C 
HETATM   12  C9  UNL     1      29.565  46.968   0.316  1.00  0.00     0.011 C 
HETATM   13  C10 UNL     1      27.309  46.082  -0.027  1.00  0.00     0.011 C 
ENDBRANCH  10  11
ENDBRANCH   5  10
ENDBRANCH   1   2
BRANCH   1  14
HETATM   14  N3  UNL     1      30.345  48.515  -5.360  1.00  0.00    -0.049 N 
ATOM     15  H33 UNL     1      30.891  49.223  -4.870  1.00  0.00     0.277 HD
ATOM     16  H32 UNL     1      31.107  47.858  -5.530  1.00  0.00     0.277 HD
ATOM     17  H31 UNL     1      29.916  48.861  -6.219  1.00  0.00     0.277 HD
ENDBRANCH   1  14
BRANCH   1  18
HETATM   18  C4  UNL     1      29.229  46.491  -4.705  1.00  0.00     0.286 C 
HETATM   19  O1  UNL     1      28.052  45.985  -4.739  1.00  0.00    -0.268 OA
HETATM   20  N4  UNL     1      30.309  45.611  -4.824  1.00  0.00    -0.155 N 
ATOM     21  H4  UNL     1      30.999  45.549  -4.074  1.00  0.00     0.187 HD
BRANCH  20  22
HETATM   22  C5  UNL     1      30.437  44.877  -5.877  1.00  0.00     0.703 A 
HETATM   23  N5  UNL     1      30.024  43.603  -6.060  1.00  0.00    -0.128 N 
HETATM   24  N6  UNL     1      30.346  43.198  -7.275  1.00  0.00    -0.237 N 
ATOM     25  H5  UNL     1      29.536  43.039  -5.364  1.00  0.00     0.205 HD
HETATM   26  C6  UNL     1      30.984  44.214  -7.914  1.00  0.00     0.353 A 
ATOM     27  H6  UNL     1      30.149  42.278  -7.667  1.00  0.00     0.192 HD
HETATM   28  O2  UNL     1      31.448  44.220  -9.086  1.00  0.00    -0.245 OA
HETATM   29  N7  UNL     1      31.025  45.243  -7.024  1.00  0.00    -0.139 N 
ATOM     30  H7  UNL     1      31.442  46.156  -7.204  1.00  0.00     0.189 HD
ENDBRANCH  20  22
ENDBRANCH   1  18
TORSDOF 6
ENDMDL
MODEL 2
REMARK VINA RESULT: -8.111509048      3.442      6.610
REMARK  6 active torsions:
REMARK  status: ('A' for Active; 'I' for Inactive)
REMARK       I    between atoms: N1_2  and  C2_4 
REMARK       I    between atoms: C2_4  and  N2_5 
REMARK       I    between atoms: C2_4  and  N8_25 
REMARK    1  A    between atoms: N2_5  and  C3_7 
REMARK    2  A    between atoms: C3_7  and  N3_8 
REMARK    3  A    between atoms: C3_7  and  C4_12 
REMARK       I    between atoms: C4_12  and  N4_14 
REMARK    4  A    between atoms: N4_14  and  C5_16 
REMARK    5  A    between atoms: N8_25  and  C7_27 
REMARK    6  A    between atoms: C7_27  and  C8_28 
ROOT
HETATM    1  C3  UNL     1      29.895  46.669  -4.705  1.00  0.00     0.389 C 
ENDROOT
BRANCH   1   2
HETATM    2  N2  UNL     1      31.053  46.884  -3.915  1.00  0.00    -0.189 N 
HETATM    3  C2  UNL     1      31.932  47.756  -4.231  1.00  0.00     0.671 C 
HETATM    4  N1  UNL     1      31.692  48.521  -5.434  1.00  0.00    -0.231 N 
HETATM    5  N8  UNL     1      33.119  47.977  -3.474  1.00  0.00    -0.226 N 
HETATM    6  C1  UNL     1      32.333  48.213  -6.674  1.00  0.00     0.165 C 
ATOM      7  H1  UNL     1      31.043  49.307  -5.396  1.00  0.00     0.177 HD
ATOM      8  H8  UNL     1      33.517  47.229  -2.905  1.00  0.00     0.177 HD
ATOM      9  H2  UNL     1      31.188  46.326  -3.071  1.00  0.00     0.180 HD
BRANCH   5  10
HETATM   10  C7  UNL     1      33.740  49.253  -3.520  1.00  0.00     0.142 C 
BRANCH  10  11
HETATM   11  C8  UNL     1      35.237  49.213  -3.650  1.00  0.00    -0.004 C 
HETATM   12  C9  UNL     1      35.587  48.556  -4.996  1.00  0.00     0.011 C 
HETATM   13  C10 UNL     1      35.962  48.494  -2.578  1.00  0.00     0.011 C 
ENDBRANCH  10  11
ENDBRANCH   5  10
ENDBRANCH   1   2
BRANCH   1  14
HETATM   14  N3  UNL     1      29.877  45.247  -5.062  1.00  0.00    -0.049 N 
ATOM     15  H33 UNL     1      30.054  44.632  -4.268  1.00  0.00     0.277 HD
ATOM     16  H32 UNL     1      28.944  44.903  -5.289  1.00  0.00     0.277 HD
ATOM     17  H31 UNL     1      30.546  45.123  -5.823  1.00  0.00     0.277 HD
ENDBRANCH   1  14
BRANCH   1  18
HETATM   18  C4  UNL     1      28.612  47.050  -4.104  1.00  0.00     0.286 C 
HETATM   19  O1  UNL     1      27.822  46.070  -3.857  1.00  0.00    -0.268 OA
HETATM   20  N4  UNL     1      28.162  48.333  -3.779  1.00  0.00    -0.155 N 
ATOM     21  H4  UNL     1      28.077  49.041  -4.508  1.00  0.00     0.187 HD
BRANCH  20  22
HETATM   22  C5  UNL     1      27.855  48.625  -2.560  1.00  0.00     0.703 A 
HETATM   23  N5  UNL     1      26.924  49.502  -2.122  1.00  0.00    -0.128 N 
HETATM   24  N6  UNL     1      26.914  49.523  -0.802  1.00  0.00    -0.237 N 
ATOM     25  H5  UNL     1      26.319  50.063  -2.722  1.00  0.00     0.205 HD
HETATM   26  C6  UNL     1      27.853  48.649  -0.349  1.00  0.00     0.353 A 
ATOM     27  H6  UNL     1      26.306  50.098  -0.220  1.00  0.00     0.192 HD
HETATM   28  O2  UNL     1      28.149  48.384   0.847  1.00  0.00    -0.245 OA
HETATM   29  N7  UNL     1      28.420  48.106  -1.460  1.00  0.00    -0.139 N 
ATOM     30  H7  UNL     1      29.163  47.408  -1.457  1.00  0.00     0.189 HD
ENDBRANCH  20  22
ENDBRANCH   1  18
TORSDOF 6
ENDMDL
MODEL 3
REMARK VINA RESULT: -7.945071462      4.632      5.571
REMARK  6 active torsions:
REMARK  status: ('A' for Active; 'I' for Inactive)
REMARK       I    between atoms: N1_2  and  C2_4 
REMARK       I    between atoms: C2_4  and  N2_5 
REMARK       I    between atoms: C2_4  and  N8_25 
REMARK    1  A    between atoms: N2_5  and  C3_7 
REMARK    2  A    between atoms: C3_7  and  N3_8 
REMARK    3  A    between atoms: C3_7  and  C4_12 
REMARK       I    between atoms: C4_12  and  N4_14 
REMARK    4  A    between atoms: N4_14  and  C5_16 
REMARK    5  A    between atoms: N8_25  and  C7_27 
REMARK    6  A    between atoms: C7_27  and  C8_28 
ROOT
HETATM    1  C3  UNL     1      31.886  48.775  -4.592  1.00  0.00     0.389 C 
ENDROOT
BRANCH   1   2
HETATM    2  N2  UNL     1      31.151  49.108  -3.426  1.00  0.00    -0.189 N 
HETATM    3  C2  UNL     1      30.386  48.264  -2.848  1.00  0.00     0.671 C 
HETATM    4  N1  UNL     1      30.302  46.946  -3.437  1.00  0.00    -0.231 N 
HETATM    5  N8  UNL     1      29.614  48.575  -1.690  1.00  0.00    -0.226 N 
HETATM    6  C1  UNL     1      29.211  46.551  -4.271  1.00  0.00     0.165 C 
ATOM      7  H1  UNL     1      31.048  46.276  -3.250  1.00  0.00     0.177 HD
ATOM      8  H8  UNL     1      29.325  49.536  -1.504  1.00  0.00     0.177 HD
ATOM      9  H2  UNL     1      31.237  50.048  -3.037  1.00  0.00     0.180 HD
BRANCH   5  10
HETATM   10  C7  UNL     1      29.253  47.530  -0.800  1.00  0.00     0.142 C 
BRANCH  10  11
HETATM   11  C8  UNL     1      27.795  47.496  -0.438  1.00  0.00    -0.004 C 
HETATM   12  C9  UNL     1      27.430  46.056  -0.041  1.00  0.00     0.011 C 
HETATM   13  C10 UNL     1      26.854  47.942  -1.490  1.00  0.00     0.011 C 
ENDBRANCH  10  11
ENDBRANCH   5  10
ENDBRANCH   1   2
BRANCH   1  14
HETATM   14  N3  UNL     1      31.119  49.273  -5.738  1.00  0.00    -0.049 N 
ATOM     15  H33 UNL     1      31.595  49.136  -6.630  1.00  0.00     0.277 HD
ATOM     16  H32 UNL     1      30.294  48.709  -5.944  1.00  0.00     0.277 HD
ATOM     17  H31 UNL     1      30.898  50.251  -5.547  1.00  0.00     0.277 HD
ENDBRANCH   1  14
BRANCH   1  18
HETATM   18  C4  UNL     1      33.266  49.269  -4.661  1.00  0.00     0.286 C 
HETATM   19  O1  UNL     1      33.388  50.541  -4.553  1.00  0.00    -0.268 OA
HETATM   20  N4  UNL     1      34.437  48.525  -4.830  1.00  0.00    -0.155 N 
ATOM     21  H4  UNL     1      34.558  47.950  -5.665  1.00  0.00     0.187 HD
BRANCH  20  22
HETATM   22  C5  UNL     1      35.366  48.562  -3.935  1.00  0.00     0.703 A 
HETATM   23  N5  UNL     1      36.687  48.326  -4.095  1.00  0.00    -0.128 N 
HETATM   24  N6  UNL     1      37.309  48.457  -2.938  1.00  0.00    -0.237 N 
ATOM     25  H5  UNL     1      37.137  48.082  -4.978  1.00  0.00     0.205 HD
HETATM   26  C6  UNL     1      36.391  48.785  -1.989  1.00  0.00     0.353 A 
ATOM     27  H6  UNL     1      38.308  48.334  -2.781  1.00  0.00     0.192 HD
HETATM   28  O2  UNL     1      36.588  48.995  -0.762  1.00  0.00    -0.245 OA
HETATM   29  N7  UNL     1      35.195  48.845  -2.636  1.00  0.00    -0.139 N 
ATOM     30  H7  UNL     1      34.303  49.071  -2.198  1.00  0.00     0.189 HD
ENDBRANCH  20  22
ENDBRANCH   1  18
TORSDOF 6
ENDMDL
MODEL 4
REMARK VINA RESULT: -7.870521816      3.487      6.685
REMARK  6 active torsions:
REMARK  status: ('A' for Active; 'I' for Inactive)
REMARK       I    between atoms: N1_2  and  C2_4 
REMARK       I    between atoms: C2_4  and  N2_5 
REMARK       I    between atoms: C2_4  and  N8_25 
REMARK    1  A    between atoms: N2_5  and  C3_7 
REMARK    2  A    between atoms: C3_7  and  N3_8 
REMARK    3  A    between atoms: C3_7  and  C4_12 
REMARK       I    between atoms: C4_12  and  N4_14 
REMARK    4  A    between atoms: N4_14  and  C5_16 
REMARK    5  A    between atoms: N8_25  and  C7_27 
REMARK    6  A    between atoms: C7_27  and  C8_28 
ROOT
HETATM    1  C3  UNL     1      31.735  48.913  -3.277  1.00  0.00     0.389 C 
ENDROOT
BRANCH   1   2
HETATM    2  N2  UNL     1      31.190  49.011  -4.582  1.00  0.00    -0.189 N 
HETATM    3  C2  UNL     1      31.730  48.429  -5.583  1.00  0.00     0.671 C 
HETATM    4  N1  UNL     1      32.925  47.658  -5.325  1.00  0.00    -0.231 N 
HETATM    5  N8  UNL     1      31.222  48.530  -6.912  1.00  0.00    -0.226 N 
HETATM    6  C1  UNL     1      34.233  48.165  -5.601  1.00  0.00     0.165 C 
ATOM      7  H1  UNL     1      32.832  46.721  -4.934  1.00  0.00     0.177 HD
ATOM      8  H8  UNL     1      30.679  49.345  -7.197  1.00  0.00     0.177 HD
ATOM      9  H2  UNL     1      30.343  49.563  -4.725  1.00  0.00     0.180 HD
BRANCH   5  10
HETATM   10  C7  UNL     1      31.482  47.481  -7.832  1.00  0.00     0.142 C 
BRANCH  10  11
HETATM   11  C8  UNL     1      30.305  47.089  -8.680  1.00  0.00    -0.004 C 
HETATM   12  C9  UNL     1      29.528  45.985  -7.945  1.00  0.00     0.011 C 
HETATM   13  C10 UNL     1      30.618  46.609 -10.045  1.00  0.00     0.011 C 
ENDBRANCH  10  11
ENDBRANCH   5  10
ENDBRANCH   1   2
BRANCH   1  14
HETATM   14  N3  UNL     1      32.048  50.277  -2.839  1.00  0.00    -0.049 N 
ATOM     15  H33 UNL     1      32.594  50.306  -1.978  1.00  0.00     0.277 HD
ATOM     16  H32 UNL     1      32.727  50.744  -3.439  1.00  0.00     0.277 HD
ATOM     17  H31 UNL     1      31.162  50.778  -2.769  1.00  0.00     0.277 HD
ENDBRANCH   1  14
BRANCH   1  18
HETATM   18  C4  UNL     1      30.906  48.242  -2.269  1.00  0.00     0.286 C 
HETATM   19  O1  UNL     1      30.851  48.837  -1.134  1.00  0.00    -0.268 OA
HETATM   20  N4  UNL     1      30.185  47.052  -2.404  1.00  0.00    -0.155 N 
ATOM     21  H4  UNL     1      30.672  46.186  -2.638  1.00  0.00     0.187 HD
BRANCH  20  22
HETATM   22  C5  UNL     1      28.906  47.043  -2.234  1.00  0.00     0.703 A 
HETATM   23  N5  UNL     1      28.106  45.985  -1.975  1.00  0.00    -0.128 N 
HETATM   24  N6  UNL     1      26.852  46.384  -1.873  1.00  0.00    -0.237 N 
ATOM     25  H5  UNL     1      28.425  45.020  -1.873  1.00  0.00     0.205 HD
HETATM   26  C6  UNL     1      26.810  47.729  -2.068  1.00  0.00     0.353 A 
ATOM     27  H6  UNL     1      26.050  45.785  -1.681  1.00  0.00     0.192 HD
HETATM   28  O2  UNL     1      25.800  48.482  -2.051  1.00  0.00    -0.245 OA
HETATM   29  N7  UNL     1      28.098  48.112  -2.288  1.00  0.00    -0.139 N 
ATOM     30  H7  UNL     1      28.403  49.068  -2.467  1.00  0.00     0.189 HD
ENDBRANCH  20  22
ENDBRANCH   1  18
TORSDOF 6
ENDMDL
MODEL 5
REMARK VINA RESULT: -7.790258896      3.417      5.934
REMARK  6 active torsions:
REMARK  status: ('A' for Active; 'I' for Inactive)
REMARK       I    between atoms: N1_2  and  C2_4 
REMARK       I    between atoms: C2_4  and  N2_5 
REMARK       I    between atoms: C2_4  and  N8_25 
REMARK    1  A    between atoms: N2_5  and  C3_7 
REMARK    2  A    between atoms: C3_7  and  N3_8 
REMARK    3  A    between atoms: C3_7  and  C4_12 
REMARK       I    between atoms: C4_12  and  N4_14 
REMARK    4  A    between atoms: N4_14  and  C5_16 
REMARK    5  A    between atoms: N8_25  and  C7_27 
REMARK    6  A    between atoms: C7_27  and  C8_28 
ROOT
HETATM    1  C3  UNL     1      29.663  47.316  -5.561  1.00  0.00     0.389 C 
ENDROOT
BRANCH   1   2
HETATM    2  N2  UNL     1      30.999  47.096  -5.139  1.00  0.00    -0.189 N 
HETATM    3  C2  UNL     1      31.707  48.031  -4.632  1.00  0.00     0.671 C 
HETATM    4  N1  UNL     1      31.083  49.328  -4.502  1.00  0.00    -0.231 N 
HETATM    5  N8  UNL     1      33.061  47.849  -4.223  1.00  0.00    -0.226 N 
HETATM    6  C1  UNL     1      31.324  50.387  -5.432  1.00  0.00     0.165 C 
ATOM      7  H1  UNL     1      30.450  49.494  -3.720  1.00  0.00     0.177 HD
ATOM      8  H8  UNL     1      33.640  47.130  -4.656  1.00  0.00     0.177 HD
ATOM      9  H2  UNL     1      31.405  46.166  -5.244  1.00  0.00     0.180 HD
BRANCH   5  10
HETATM   10  C7  UNL     1      33.592  48.684  -3.204  1.00  0.00     0.142 C 
BRANCH  10  11
HETATM   11  C8  UNL     1      35.023  49.092  -3.417  1.00  0.00    -0.004 C 
HETATM   12  C9  UNL     1      35.449  48.642  -4.824  1.00  0.00     0.011 C 
HETATM   13  C10 UNL     1      36.001  48.560  -2.442  1.00  0.00     0.011 C 
ENDBRANCH  10  11
ENDBRANCH   5  10
ENDBRANCH   1   2
BRANCH   1  14
HETATM   14  N3  UNL     1      29.604  46.986  -6.989  1.00  0.00    -0.049 N 
ATOM     15  H33 UNL     1      28.657  47.009  -7.367  1.00  0.00     0.277 HD
ATOM     16  H32 UNL     1      30.000  47.713  -7.585  1.00  0.00     0.277 HD
ATOM     17  H31 UNL     1      30.061  46.081  -7.104  1.00  0.00     0.277 HD
ENDBRANCH   1  14
BRANCH   1  18
HETATM   18  C4  UNL     1      28.618  46.585  -4.836  1.00  0.00     0.286 C 
HETATM   19  O1  UNL     1      28.642  45.313  -4.995  1.00  0.00    -0.268 OA
HETATM   20  N4  UNL     1      27.619  47.109  -4.010  1.00  0.00    -0.155 N 
ATOM     21  H4  UNL     1      26.947  47.777  -4.386  1.00  0.00     0.187 HD
BRANCH  20  22
HETATM   22  C5  UNL     1      27.544  46.750  -2.772  1.00  0.00     0.703 A 
HETATM   23  N5  UNL     1      26.447  46.696  -1.985  1.00  0.00    -0.128 N 
HETATM   24  N6  UNL     1      26.783  46.284  -0.776  1.00  0.00    -0.237 N 
ATOM     25  H5  UNL     1      25.501  46.937  -2.280  1.00  0.00     0.205 HD
HETATM   26  C6  UNL     1      28.124  46.060  -0.753  1.00  0.00     0.353 A 
ATOM     27  H6  UNL     1      26.144  46.155   0.008  1.00  0.00     0.192 HD
HETATM   28  O2  UNL     1      28.825  45.661   0.216  1.00  0.00    -0.245 OA
HETATM   29  N7  UNL     1      28.570  46.356  -2.004  1.00  0.00    -0.139 N 
ATOM     30  H7  UNL     1      29.540  46.288  -2.311  1.00  0.00     0.189 HD
ENDBRANCH  20  22
ENDBRANCH   1  18
TORSDOF 6
ENDMDL
