MODEL 1
REMARK VINA RESULT: -6.110012409      0.000      0.000
REMARK  9 active torsions:
REMARK  status: ('A' for Active; 'I' for Inactive)
REMARK       I    between atoms: C2_2  and  N1_4 
REMARK    1  A    between atoms: N1_4  and  N2_6 
REMARK    2  A    between atoms: N2_6  and  C3_8 
REMARK    3  A    between atoms: C3_8  and  N3_10 
REMARK    4  A    between atoms: N3_10  and  N4_12 
REMARK    5  A    between atoms: N4_12  and  C4_14 
REMARK    6  A    between atoms: C4_14  and  N5_16 
REMARK    7  A    between atoms: N5_16  and  C5_18 
REMARK    8  A    between atoms: C5_18  and  C6_19 
REMARK    9  A    between atoms: C6_19  and  N6_20 
ROOT
HETATM    1  N3  UNL     1      30.395  48.630  -1.412  1.00  0.00    -0.273 N 
ATOM      2  H3  UNL     1      31.185  48.886  -0.821  1.00  0.00     0.189 HD
ENDROOT
BRANCH   1   3
HETATM    3  C3  UNL     1      29.177  48.203  -0.826  1.00  0.00     0.205 C 
HETATM    4  S1  UNL     1      28.936  46.615  -0.583  1.00  0.00    -0.038 SA
BRANCH   3   5
HETATM    5  N2  UNL     1      28.211  49.177  -0.478  1.00  0.00    -0.273 N 
ATOM      6  H2  UNL     1      28.435  49.870   0.236  1.00  0.00     0.189 HD
BRANCH   5   7
HETATM    7  N1  UNL     1      26.971  49.207  -1.086  1.00  0.00    -0.268 N 
HETATM    8  C2  UNL     1      26.780  49.198  -2.482  1.00  0.00     0.232 C 
HETATM    9  C1  UNL     1      25.439  49.220  -3.115  1.00  0.00     0.119 C 
HETATM   10  O1  UNL     1      27.772  49.168  -3.285  1.00  0.00    -0.272 OA
ATOM     11  H1  UNL     1      26.144  49.236  -0.489  1.00  0.00     0.190 HD
ENDBRANCH   5   7
ENDBRANCH   3   5
ENDBRANCH   1   3
BRANCH   1  12
HETATM   12  N4  UNL     1      30.508  48.698  -2.799  1.00  0.00    -0.274 N 
ATOM     13  H4  UNL     1      29.982  49.395  -3.326  1.00  0.00     0.189 HD
BRANCH  12  14
HETATM   14  C4  UNL     1      31.358  47.794  -3.465  1.00  0.00     0.186 C 
HETATM   15  S2  UNL     1      32.883  48.227  -3.763  1.00  0.00    -0.040 SA
BRANCH  14  16
HETATM   16  N5  UNL     1      30.843  46.559  -3.872  1.00  0.00    -0.361 N 
ATOM     17  H5  UNL     1      31.387  45.715  -3.695  1.00  0.00     0.162 HD
BRANCH  16  18
HETATM   18  C5  UNL     1      29.574  46.442  -4.532  1.00  0.00     0.166 C 
BRANCH  18  19
HETATM   19  C6  UNL     1      29.695  46.895  -5.955  1.00  0.00     0.076 C 
BRANCH  19  20
HETATM   20  N6  UNL     1      29.513  45.882  -6.913  1.00  0.00    -0.400 N 
HETATM   21  C7  UNL     1      29.555  44.534  -6.511  1.00  0.00     0.148 C 
HETATM   22  C8  UNL     1      29.626  46.166  -8.277  1.00  0.00     0.148 C 
ENDBRANCH  19  20
ENDBRANCH  18  19
ENDBRANCH  16  18
ENDBRANCH  14  16
ENDBRANCH  12  14
ENDBRANCH   1  12
TORSDOF 9
ENDMDL
MODEL 2
REMARK VINA RESULT: -6.016521941      1.138      1.335
REMARK  9 active torsions:
REMARK  status: ('A' for Active; 'I' for Inactive)
REMARK       I    between atoms: C2_2  and  N1_4 
REMARK    1  A    between atoms: N1_4  and  N2_6 
REMARK    2  A    between atoms: N2_6  and  C3_8 
REMARK    3  A    between atoms: C3_8  and  N3_10 
REMARK    4  A    between atoms: N3_10  and  N4_12 
REMARK    5  A    between atoms: N4_12  and  C4_14 
REMARK    6  A    between atoms: C4_14  and  N5_16 
REMARK    7  A    between atoms: N5_16  and  C5_18 
REMARK    8  A    between atoms: C5_18  and  C6_19 
REMARK    9  A    between atoms: C6_19  and  N6_20 
ROOT
HETATM    1  N3  UNL     1      30.230  47.249  -1.996  1.00  0.00    -0.273 N 
ATOM      2  H3  UNL     1      31.209  47.409  -1.757  1.00  0.00     0.189 HD
ENDROOT
BRANCH   1   3
HETATM    3  C3  UNL     1      29.213  47.527  -1.049  1.00  0.00     0.205 C 
HETATM    4  S1  UNL     1      28.645  46.317  -0.127  1.00  0.00    -0.038 SA
BRANCH   3   5
HETATM    5  N2  UNL     1      28.725  48.851  -0.944  1.00  0.00    -0.273 N 
ATOM      6  H2  UNL     1      29.342  49.586  -0.598  1.00  0.00     0.189 HD
BRANCH   5   7
HETATM    7  N1  UNL     1      27.428  49.168  -1.302  1.00  0.00    -0.268 N 
HETATM    8  C2  UNL     1      26.918  49.034  -2.609  1.00  0.00     0.232 C 
HETATM    9  C1  UNL     1      25.520  49.369  -2.969  1.00  0.00     0.119 C 
HETATM   10  O1  UNL     1      27.650  48.605  -3.563  1.00  0.00    -0.272 OA
ATOM     11  H1  UNL     1      26.803  49.519  -0.576  1.00  0.00     0.190 HD
ENDBRANCH   5   7
ENDBRANCH   3   5
ENDBRANCH   1   3
BRANCH   1  12
HETATM   12  N4  UNL     1      29.888  46.755  -3.252  1.00  0.00    -0.274 N 
ATOM     13  H4  UNL     1      29.190  46.017  -3.344  1.00  0.00     0.189 HD
BRANCH  12  14
HETATM   14  C4  UNL     1      30.518  47.287  -4.395  1.00  0.00     0.186 C 
HETATM   15  S2  UNL     1      32.053  47.771  -4.290  1.00  0.00    -0.040 SA
BRANCH  14  16
HETATM   16  N5  UNL     1      29.780  47.404  -5.578  1.00  0.00    -0.361 N 
ATOM     17  H5  UNL     1      29.813  48.283  -6.094  1.00  0.00     0.162 HD
BRANCH  16  18
HETATM   18  C5  UNL     1      28.980  46.328  -6.088  1.00  0.00     0.166 C 
BRANCH  18  19
HETATM   19  C6  UNL     1      29.390  46.010  -7.494  1.00  0.00     0.076 C 
BRANCH  19  20
HETATM   20  N6  UNL     1      30.061  44.784  -7.649  1.00  0.00    -0.400 N 
HETATM   21  C7  UNL     1      29.731  43.704  -6.810  1.00  0.00     0.148 C 
HETATM   22  C8  UNL     1      31.255  44.715  -8.372  1.00  0.00     0.148 C 
ENDBRANCH  19  20
ENDBRANCH  18  19
ENDBRANCH  16  18
ENDBRANCH  14  16
ENDBRANCH  12  14
ENDBRANCH   1  12
TORSDOF 9
ENDMDL
MODEL 3
REMARK VINA RESULT: -5.902061998      2.161      5.541
REMARK  9 active torsions:
REMARK  status: ('A' for Active; 'I' for Inactive)
REMARK       I    between atoms: C2_2  and  N1_4 
REMARK    1  A    between atoms: N1_4  and  N2_6 
REMARK    2  A    between atoms: N2_6  and  C3_8 
REMARK    3  A    between atoms: C3_8  and  N3_10 
REMARK    4  A    between atoms: N3_10  and  N4_12 
REMARK    5  A    between atoms: N4_12  and  C4_14 
REMARK    6  A    between atoms: C4_14  and  N5_16 
REMARK    7  A    between atoms: N5_16  and  C5_18 
REMARK    8  A    between atoms: C5_18  and  C6_19 
REMARK    9  A    between atoms: C6_19  and  N6_20 
ROOT
HETATM    1  N3  UNL     1      29.647  48.736  -2.840  1.00  0.00    -0.273 N 
ATOM      2  H3  UNL     1      29.720  49.200  -1.934  1.00  0.00     0.189 HD
ENDROOT
BRANCH   1   3
HETATM    3  C3  UNL     1      30.756  48.029  -3.368  1.00  0.00     0.205 C 
HETATM    4  S1  UNL     1      32.105  48.851  -3.746  1.00  0.00    -0.038 SA
BRANCH   3   5
HETATM    5  N2  UNL     1      30.647  46.630  -3.551  1.00  0.00    -0.273 N 
ATOM      6  H2  UNL     1      30.588  46.021  -2.735  1.00  0.00     0.189 HD
BRANCH   5   7
HETATM    7  N1  UNL     1      30.618  46.072  -4.816  1.00  0.00    -0.268 N 
HETATM    8  C2  UNL     1      29.433  45.823  -5.537  1.00  0.00     0.232 C 
HETATM    9  C1  UNL     1      29.424  45.233  -6.898  1.00  0.00     0.119 C 
HETATM   10  O1  UNL     1      28.288  46.101  -5.046  1.00  0.00    -0.272 OA
ATOM     11  H1  UNL     1      31.506  45.827  -5.252  1.00  0.00     0.190 HD
ENDBRANCH   5   7
ENDBRANCH   3   5
ENDBRANCH   1   3
BRANCH   1  12
HETATM   12  N4  UNL     1      28.458  48.796  -3.563  1.00  0.00    -0.274 N 
ATOM     13  H4  UNL     1      28.449  49.172  -4.511  1.00  0.00     0.189 HD
BRANCH  12  14
HETATM   14  C4  UNL     1      27.268  48.330  -2.970  1.00  0.00     0.186 C 
HETATM   15  S2  UNL     1      26.012  49.334  -2.844  1.00  0.00    -0.040 SA
BRANCH  14  16
HETATM   16  N5  UNL     1      27.225  47.020  -2.483  1.00  0.00    -0.361 N 
ATOM     17  H5  UNL     1      27.778  46.302  -2.951  1.00  0.00     0.162 HD
BRANCH  16  18
HETATM   18  C5  UNL     1      26.427  46.653  -1.348  1.00  0.00     0.166 C 
BRANCH  18  19
HETATM   19  C6  UNL     1      27.311  46.174  -0.237  1.00  0.00     0.076 C 
BRANCH  19  20
HETATM   20  N6  UNL     1      28.217  47.133   0.250  1.00  0.00    -0.400 N 
HETATM   21  C7  UNL     1      27.774  48.448   0.482  1.00  0.00     0.148 C 
HETATM   22  C8  UNL     1      29.595  46.904   0.190  1.00  0.00     0.148 C 
ENDBRANCH  19  20
ENDBRANCH  18  19
ENDBRANCH  16  18
ENDBRANCH  14  16
ENDBRANCH  12  14
ENDBRANCH   1  12
TORSDOF 9
ENDMDL
MODEL 4
REMARK VINA RESULT: -5.871335221      2.792      6.067
REMARK  9 active torsions:
REMARK  status: ('A' for Active; 'I' for Inactive)
REMARK       I    between atoms: C2_2  and  N1_4 
REMARK    1  A    between atoms: N1_4  and  N2_6 
REMARK    2  A    between atoms: N2_6  and  C3_8 
REMARK    3  A    between atoms: C3_8  and  N3_10 
REMARK    4  A    between atoms: N3_10  and  N4_12 
REMARK    5  A    between atoms: N4_12  and  C4_14 
REMARK    6  A    between atoms: C4_14  and  N5_16 
REMARK    7  A    between atoms: N5_16  and  C5_18 
REMARK    8  A    between atoms: C5_18  and  C6_19 
REMARK    9  A    between atoms: C6_19  and  N6_20 
ROOT
HETATM    1  N3  UNL     1      30.134  45.762  -4.599  1.00  0.00    -0.273 N 
ATOM      2  H3  UNL     1      31.058  45.520  -4.242  1.00  0.00     0.189 HD
ENDROOT
BRANCH   1   3
HETATM    3  C3  UNL     1      29.769  45.414  -5.923  1.00  0.00     0.205 C 
HETATM    4  S1  UNL     1      29.977  43.882  -6.419  1.00  0.00    -0.038 SA
BRANCH   3   5
HETATM    5  N2  UNL     1      29.239  46.418  -6.769  1.00  0.00    -0.273 N 
ATOM      6  H2  UNL     1      28.229  46.540  -6.829  1.00  0.00     0.189 HD
BRANCH   5   7
HETATM    7  N1  UNL     1      30.066  47.236  -7.516  1.00  0.00    -0.268 N 
HETATM    8  C2  UNL     1      30.407  46.990  -8.861  1.00  0.00     0.232 C 
HETATM    9  C1  UNL     1      31.288  47.887  -9.648  1.00  0.00     0.119 C 
HETATM   10  O1  UNL     1      29.962  45.966  -9.480  1.00  0.00    -0.272 OA
ATOM     11  H1  UNL     1      30.452  48.066  -7.067  1.00  0.00     0.190 HD
ENDBRANCH   5   7
ENDBRANCH   3   5
ENDBRANCH   1   3
BRANCH   1  12
HETATM   12  N4  UNL     1      29.225  46.436  -3.786  1.00  0.00    -0.274 N 
ATOM     13  H4  UNL     1      28.375  45.971  -3.466  1.00  0.00     0.189 HD
BRANCH  12  14
HETATM   14  C4  UNL     1      29.494  47.767  -3.409  1.00  0.00     0.186 C 
HETATM   15  S2  UNL     1      30.948  48.134  -2.814  1.00  0.00    -0.040 SA
BRANCH  14  16
HETATM   16  N5  UNL     1      28.480  48.722  -3.537  1.00  0.00    -0.361 N 
ATOM     17  H5  UNL     1      28.702  49.621  -3.964  1.00  0.00     0.162 HD
BRANCH  16  18
HETATM   18  C5  UNL     1      27.140  48.477  -3.087  1.00  0.00     0.166 C 
BRANCH  18  19
HETATM   19  C6  UNL     1      27.005  48.874  -1.649  1.00  0.00     0.076 C 
BRANCH  19  20
HETATM   20  N6  UNL     1      27.228  47.834  -0.728  1.00  0.00    -0.400 N 
HETATM   21  C7  UNL     1      28.199  47.998   0.278  1.00  0.00     0.148 C 
HETATM   22  C8  UNL     1      26.760  46.543  -0.988  1.00  0.00     0.148 C 
ENDBRANCH  19  20
ENDBRANCH  18  19
ENDBRANCH  16  18
ENDBRANCH  14  16
ENDBRANCH  12  14
ENDBRANCH   1  12
TORSDOF 9
ENDMDL
MODEL 5
REMARK VINA RESULT: -5.850093671      2.324      3.443
REMARK  9 active torsions:
REMARK  status: ('A' for Active; 'I' for Inactive)
REMARK       I    between atoms: C2_2  and  N1_4 
REMARK    1  A    between atoms: N1_4  and  N2_6 
REMARK    2  A    between atoms: N2_6  and  C3_8 
REMARK    3  A    between atoms: C3_8  and  N3_10 
REMARK    4  A    between atoms: N3_10  and  N4_12 
REMARK    5  A    between atoms: N4_12  and  C4_14 
REMARK    6  A    between atoms: C4_14  and  N5_16 
REMARK    7  A    between atoms: N5_16  and  C5_18 
REMARK    8  A    between atoms: C5_18  and  C6_19 
REMARK    9  A    between atoms: C6_19  and  N6_20 
ROOT
HETATM    1  N3  UNL     1      29.619  46.360  -4.008  1.00  0.00    -0.273 N 
ATOM      2  H3  UNL     1      28.681  46.154  -3.662  1.00  0.00     0.189 HD
ENDROOT
BRANCH   1   3
HETATM    3  C3  UNL     1      30.275  47.553  -3.614  1.00  0.00     0.205 C 
HETATM    4  S1  UNL     1      31.848  47.740  -3.973  1.00  0.00    -0.038 SA
BRANCH   3   5
HETATM    5  N2  UNL     1      29.536  48.538  -2.916  1.00  0.00    -0.273 N 
ATOM      6  H2  UNL     1      29.969  49.027  -2.133  1.00  0.00     0.189 HD
BRANCH   5   7
HETATM    7  N1  UNL     1      28.238  48.850  -3.277  1.00  0.00    -0.268 N 
HETATM    8  C2  UNL     1      27.166  48.926  -2.365  1.00  0.00     0.232 C 
HETATM    9  C1  UNL     1      25.783  49.273  -2.771  1.00  0.00     0.119 C 
HETATM   10  O1  UNL     1      27.339  48.698  -1.120  1.00  0.00    -0.272 OA
ATOM     11  H1  UNL     1      28.046  49.037  -4.261  1.00  0.00     0.190 HD
ENDBRANCH   5   7
ENDBRANCH   3   5
ENDBRANCH   1   3
BRANCH   1  12
HETATM   12  N4  UNL     1      30.258  45.471  -4.868  1.00  0.00    -0.274 N 
ATOM     13  H4  UNL     1      31.111  44.995  -4.577  1.00  0.00     0.189 HD
BRANCH  12  14
HETATM   14  C4  UNL     1      29.713  45.238  -6.146  1.00  0.00     0.186 C 
HETATM   15  S2  UNL     1      29.670  43.730  -6.716  1.00  0.00    -0.040 SA
BRANCH  14  16
HETATM   16  N5  UNL     1      29.251  46.328  -6.892  1.00  0.00    -0.361 N 
ATOM     17  H5  UNL     1      28.247  46.449  -7.019  1.00  0.00     0.162 HD
BRANCH  16  18
HETATM   18  C5  UNL     1      30.146  47.282  -7.484  1.00  0.00     0.166 C 
BRANCH  18  19
HETATM   19  C6  UNL     1      30.522  46.839  -8.865  1.00  0.00     0.076 C 
BRANCH  19  20
HETATM   20  N6  UNL     1      31.816  46.298  -8.978  1.00  0.00    -0.400 N 
HETATM   21  C7  UNL     1      32.012  45.127  -9.732  1.00  0.00     0.148 C 
HETATM   22  C8  UNL     1      32.830  46.695  -8.102  1.00  0.00     0.148 C 
ENDBRANCH  19  20
ENDBRANCH  18  19
ENDBRANCH  16  18
ENDBRANCH  14  16
ENDBRANCH  12  14
ENDBRANCH   1  12
TORSDOF 9
ENDMDL
