MODEL 1
REMARK VINA RESULT: -7.207975409      0.000      0.000
REMARK  7 active torsions:
REMARK  status: ('A' for Active; 'I' for Inactive)
REMARK    1  A    between atoms: S1_2  and  S2_3 
REMARK    2  A    between atoms: S2_3  and  C2_4 
REMARK    3  A    between atoms: C2_4  and  C3_5 
REMARK    4  A    between atoms: C3_5  and  O1_6 
REMARK    5  A    between atoms: C3_5  and  N1_8 
REMARK    6  A    between atoms: N1_8  and  N2_9 
REMARK       I    between atoms: N2_9  and  C4_11 
REMARK    7  A    between atoms: C4_11  and  C5_13 
ROOT
HETATM    1  C5  UNL     1      28.752  46.522  -4.334  1.00  0.00     0.106 A 
HETATM    2  C6  UNL     1      28.147  47.753  -4.414  1.00  0.00     0.066 A 
HETATM    3  C7  UNL     1      27.843  48.412  -3.256  1.00  0.00     0.052 A 
HETATM    4  N3  UNL     1      27.295  49.612  -3.283  1.00  0.00    -0.398 N 
ATOM      5  H31 UNL     1      27.068  50.103  -2.419  1.00  0.00     0.156 HD
ATOM      6  H32 UNL     1      27.067  50.060  -4.170  1.00  0.00     0.156 HD
HETATM    7  C8  UNL     1      28.151  47.808  -2.058  1.00  0.00     0.112 A 
HETATM    8  C9  UNL     1      27.876  48.546  -0.832  1.00  0.00     0.105 C 
HETATM    9  N4  UNL     1      27.651  49.149   0.170  1.00  0.00    -0.191 NA
HETATM   10  C10 UNL     1      28.745  46.589  -1.978  1.00  0.00     0.140 A 
HETATM   11  N5  UNL     1      29.060  45.960  -0.735  1.00  0.00    -0.081 NA
HETATM   12  N6  UNL     1      29.052  45.930  -3.162  1.00  0.00    -0.339 N 
ATOM     13  H6  UNL     1      29.498  45.013  -3.144  1.00  0.00     0.167 HD
ENDROOT
BRANCH   1  14
HETATM   14  C4  UNL     1      29.246  45.976  -5.642  1.00  0.00     0.297 C 
HETATM   15  N2  UNL     1      29.716  46.893  -6.565  1.00  0.00    -0.195 N 
ATOM     16  H2  UNL     1      29.639  47.801  -6.107  1.00  0.00     0.205 HD
HETATM   17  O2  UNL     1      29.178  44.746  -5.745  1.00  0.00    -0.263 OA
BRANCH  15  18
HETATM   18  N1  UNL     1      30.216  47.144  -7.754  1.00  0.00    -0.301 NA
BRANCH  18  19
HETATM   19  C3  UNL     1      30.725  47.392  -8.967  1.00  0.00     0.224 C 
BRANCH  19  20
HETATM   20  C2  UNL     1      31.323  48.572  -9.599  1.00  0.00     0.188 C 
BRANCH  20  21
HETATM   21  S2  UNL     1      33.048  48.861  -9.330  1.00  0.00    -0.089 SA
BRANCH  21  22
HETATM   22  S1  UNL     1      33.952  47.303  -8.185  1.00  0.00    -0.102 SA
HETATM   23  C1  UNL     1      33.689  47.647  -6.426  1.00  0.00     0.102 C 
ENDBRANCH  21  22
ENDBRANCH  20  21
ENDBRANCH  19  20
BRANCH  19  24
HETATM   24  O1  UNL     1      30.709  46.366  -9.847  1.00  0.00    -0.337 OA
ATOM     25  H1  UNL     1      30.843  45.547  -9.384  1.00  0.00     0.220 HD
ENDBRANCH  19  24
ENDBRANCH  18  19
ENDBRANCH  15  18
ENDBRANCH   1  14
TORSDOF 7
ENDMDL
MODEL 2
REMARK VINA RESULT: -7.179907614      3.999      7.602
REMARK  7 active torsions:
REMARK  status: ('A' for Active; 'I' for Inactive)
REMARK    1  A    between atoms: S1_2  and  S2_3 
REMARK    2  A    between atoms: S2_3  and  C2_4 
REMARK    3  A    between atoms: C2_4  and  C3_5 
REMARK    4  A    between atoms: C3_5  and  O1_6 
REMARK    5  A    between atoms: C3_5  and  N1_8 
REMARK    6  A    between atoms: N1_8  and  N2_9 
REMARK       I    between atoms: N2_9  and  C4_11 
REMARK    7  A    between atoms: C4_11  and  C5_13 
ROOT
HETATM    1  C5  UNL     1      30.077  47.174  -6.266  1.00  0.00     0.106 A 
HETATM    2  C6  UNL     1      30.237  45.813  -6.362  1.00  0.00     0.066 A 
HETATM    3  C7  UNL     1      30.728  45.289  -7.525  1.00  0.00     0.052 A 
HETATM    4  N3  UNL     1      30.934  43.992  -7.650  1.00  0.00    -0.398 N 
ATOM      5  H31 UNL     1      31.300  43.602  -8.518  1.00  0.00     0.156 HD
ATOM      6  H32 UNL     1      30.708  43.353  -6.888  1.00  0.00     0.156 HD
HETATM    7  C8  UNL     1      31.034  46.151  -8.554  1.00  0.00     0.112 A 
HETATM    8  C9  UNL     1      31.612  45.586  -9.766  1.00  0.00     0.105 C 
HETATM    9  N4  UNL     1      32.084  45.125 -10.758  1.00  0.00    -0.191 NA
HETATM   10  C10 UNL     1      30.871  47.496  -8.462  1.00  0.00     0.140 A 
HETATM   11  N5  UNL     1      31.184  48.390  -9.531  1.00  0.00    -0.081 NA
HETATM   12  N6  UNL     1      30.375  48.017  -7.273  1.00  0.00    -0.339 N 
ATOM     13  H6  UNL     1      30.238  49.022  -7.165  1.00  0.00     0.167 HD
ENDROOT
BRANCH   1  14
HETATM   14  C4  UNL     1      29.745  47.675  -4.890  1.00  0.00     0.297 C 
HETATM   15  N2  UNL     1      29.310  46.737  -3.972  1.00  0.00    -0.195 N 
ATOM     16  H2  UNL     1      29.336  45.844  -4.464  1.00  0.00     0.205 HD
HETATM   17  O2  UNL     1      29.906  48.890  -4.732  1.00  0.00    -0.263 OA
BRANCH  15  18
HETATM   18  N1  UNL     1      28.878  46.456  -2.763  1.00  0.00    -0.301 NA
BRANCH  18  19
HETATM   19  C3  UNL     1      28.432  46.171  -1.533  1.00  0.00     0.224 C 
BRANCH  19  20
HETATM   20  C2  UNL     1      27.741  46.941  -0.495  1.00  0.00     0.188 C 
BRANCH  20  21
HETATM   21  S2  UNL     1      27.905  48.703  -0.537  1.00  0.00    -0.089 SA
BRANCH  21  22
HETATM   22  S1  UNL     1      26.394  49.621  -1.733  1.00  0.00    -0.102 SA
HETATM   23  C1  UNL     1      26.628  49.111  -3.456  1.00  0.00     0.102 C 
ENDBRANCH  21  22
ENDBRANCH  20  21
ENDBRANCH  19  20
BRANCH  19  24
HETATM   24  O1  UNL     1      28.640  44.908  -1.097  1.00  0.00    -0.337 OA
ATOM     25  H1  UNL     1      28.950  44.928  -0.199  1.00  0.00     0.220 HD
ENDBRANCH  19  24
ENDBRANCH  18  19
ENDBRANCH  15  18
ENDBRANCH   1  14
TORSDOF 7
ENDMDL
MODEL 3
REMARK VINA RESULT: -7.164293705      2.245      2.489
REMARK  7 active torsions:
REMARK  status: ('A' for Active; 'I' for Inactive)
REMARK    1  A    between atoms: S1_2  and  S2_3 
REMARK    2  A    between atoms: S2_3  and  C2_4 
REMARK    3  A    between atoms: C2_4  and  C3_5 
REMARK    4  A    between atoms: C3_5  and  O1_6 
REMARK    5  A    between atoms: C3_5  and  N1_8 
REMARK    6  A    between atoms: N1_8  and  N2_9 
REMARK       I    between atoms: N2_9  and  C4_11 
REMARK    7  A    between atoms: C4_11  and  C5_13 
ROOT
HETATM    1  C5  UNL     1      30.377  47.295  -4.522  1.00  0.00     0.106 A 
HETATM    2  C6  UNL     1      29.265  46.561  -4.191  1.00  0.00     0.066 A 
HETATM    3  C7  UNL     1      28.810  46.599  -2.903  1.00  0.00     0.052 A 
HETATM    4  N3  UNL     1      27.725  45.940  -2.548  1.00  0.00    -0.398 N 
ATOM      5  H31 UNL     1      27.385  45.969  -1.587  1.00  0.00     0.156 HD
ATOM      6  H32 UNL     1      27.217  45.369  -3.224  1.00  0.00     0.156 HD
HETATM    7  C8  UNL     1      29.494  47.369  -1.990  1.00  0.00     0.112 A 
HETATM    8  C9  UNL     1      28.966  47.449  -0.635  1.00  0.00     0.105 C 
HETATM    9  N4  UNL     1      28.534  47.514   0.474  1.00  0.00    -0.191 NA
HETATM   10  C10 UNL     1      30.597  48.092  -2.314  1.00  0.00     0.140 A 
HETATM   11  N5  UNL     1      31.310  48.888  -1.366  1.00  0.00    -0.081 NA
HETATM   12  N6  UNL     1      31.048  48.048  -3.628  1.00  0.00    -0.339 N 
ATOM     13  H6  UNL     1      31.873  48.576  -3.911  1.00  0.00     0.167 HD
ENDROOT
BRANCH   1  14
HETATM   14  C4  UNL     1      30.672  47.368  -5.992  1.00  0.00     0.297 C 
HETATM   15  N2  UNL     1      31.029  46.187  -6.617  1.00  0.00    -0.195 N 
ATOM     16  H2  UNL     1      30.986  45.473  -5.890  1.00  0.00     0.205 HD
HETATM   17  O2  UNL     1      30.556  48.495  -6.486  1.00  0.00    -0.263 OA
BRANCH  15  18
HETATM   18  N1  UNL     1      31.398  45.553  -7.708  1.00  0.00    -0.301 NA
BRANCH  18  19
HETATM   19  C3  UNL     1      31.774  44.913  -8.822  1.00  0.00     0.224 C 
BRANCH  19  20
HETATM   20  C2  UNL     1      32.246  45.350 -10.139  1.00  0.00     0.188 C 
BRANCH  20  21
HETATM   21  S2  UNL     1      33.024  46.937 -10.246  1.00  0.00    -0.089 SA
BRANCH  21  22
HETATM   22  S1  UNL     1      34.786  47.047  -9.048  1.00  0.00    -0.102 SA
HETATM   23  C1  UNL     1      34.318  47.545  -7.370  1.00  0.00     0.102 C 
ENDBRANCH  21  22
ENDBRANCH  20  21
ENDBRANCH  19  20
BRANCH  19  24
HETATM   24  O1  UNL     1      31.727  43.562  -8.782  1.00  0.00    -0.337 OA
ATOM     25  H1  UNL     1      32.586  43.220  -8.562  1.00  0.00     0.220 HD
ENDBRANCH  19  24
ENDBRANCH  18  19
ENDBRANCH  15  18
ENDBRANCH   1  14
TORSDOF 7
ENDMDL
MODEL 4
REMARK VINA RESULT: -7.164283915      3.780      7.173
REMARK  7 active torsions:
REMARK  status: ('A' for Active; 'I' for Inactive)
REMARK    1  A    between atoms: S1_2  and  S2_3 
REMARK    2  A    between atoms: S2_3  and  C2_4 
REMARK    3  A    between atoms: C2_4  and  C3_5 
REMARK    4  A    between atoms: C3_5  and  O1_6 
REMARK    5  A    between atoms: C3_5  and  N1_8 
REMARK    6  A    between atoms: N1_8  and  N2_9 
REMARK       I    between atoms: N2_9  and  C4_11 
REMARK    7  A    between atoms: C4_11  and  C5_13 
ROOT
HETATM    1  C5  UNL     1      30.041  47.179  -6.277  1.00  0.00     0.106 A 
HETATM    2  C6  UNL     1      30.099  46.736  -7.576  1.00  0.00     0.066 A 
HETATM    3  C7  UNL     1      30.696  47.529  -8.516  1.00  0.00     0.052 A 
HETATM    4  N3  UNL     1      30.807  47.128  -9.768  1.00  0.00    -0.398 N 
ATOM      5  H31 UNL     1      31.253  47.720 -10.469  1.00  0.00     0.156 HD
ATOM      6  H32 UNL     1      30.429  46.228 -10.062  1.00  0.00     0.156 HD
HETATM    7  C8  UNL     1      31.207  48.743  -8.119  1.00  0.00     0.112 A 
HETATM    8  C9  UNL     1      31.893  49.552  -9.117  1.00  0.00     0.105 C 
HETATM    9  N4  UNL     1      32.454  50.215  -9.934  1.00  0.00    -0.191 NA
HETATM   10  C10 UNL     1      31.147  49.185  -6.837  1.00  0.00     0.140 A 
HETATM   11  N5  UNL     1      31.674  50.448  -6.425  1.00  0.00    -0.081 NA
HETATM   12  N6  UNL     1      30.540  48.369  -5.889  1.00  0.00    -0.339 N 
ATOM     13  H6  UNL     1      30.475  48.666  -4.916  1.00  0.00     0.167 HD
ENDROOT
BRANCH   1  14
HETATM   14  C4  UNL     1      29.571  46.159  -5.282  1.00  0.00     0.297 C 
HETATM   15  N2  UNL     1      29.243  46.622  -4.021  1.00  0.00    -0.195 N 
ATOM     16  H2  UNL     1      29.381  47.631  -4.059  1.00  0.00     0.205 HD
HETATM   17  O2  UNL     1      29.527  45.001  -5.713  1.00  0.00    -0.263 OA
BRANCH  15  18
HETATM   18  N1  UNL     1      28.837  46.372  -2.796  1.00  0.00    -0.301 NA
BRANCH  18  19
HETATM   19  C3  UNL     1      28.429  46.120  -1.546  1.00  0.00     0.224 C 
BRANCH  19  20
HETATM   20  C2  UNL     1      27.781  46.922  -0.504  1.00  0.00     0.188 C 
BRANCH  20  21
HETATM   21  S2  UNL     1      27.945  48.682  -0.604  1.00  0.00    -0.089 SA
BRANCH  21  22
HETATM   22  S1  UNL     1      26.427  49.559  -1.821  1.00  0.00    -0.102 SA
HETATM   23  C1  UNL     1      26.708  49.071  -3.543  1.00  0.00     0.102 C 
ENDBRANCH  21  22
ENDBRANCH  20  21
ENDBRANCH  19  20
BRANCH  19  24
HETATM   24  O1  UNL     1      28.636  44.865  -1.088  1.00  0.00    -0.337 OA
ATOM     25  H1  UNL     1      29.569  44.690  -1.050  1.00  0.00     0.220 HD
ENDBRANCH  19  24
ENDBRANCH  18  19
ENDBRANCH  15  18
ENDBRANCH   1  14
TORSDOF 7
ENDMDL
MODEL 5
REMARK VINA RESULT: -7.122803514      1.955      2.168
REMARK  7 active torsions:
REMARK  status: ('A' for Active; 'I' for Inactive)
REMARK    1  A    between atoms: S1_2  and  S2_3 
REMARK    2  A    between atoms: S2_3  and  C2_4 
REMARK    3  A    between atoms: C2_4  and  C3_5 
REMARK    4  A    between atoms: C3_5  and  O1_6 
REMARK    5  A    between atoms: C3_5  and  N1_8 
REMARK    6  A    between atoms: N1_8  and  N2_9 
REMARK       I    between atoms: N2_9  and  C4_11 
REMARK    7  A    between atoms: C4_11  and  C5_13 
ROOT
HETATM    1  C5  UNL     1      28.801  46.590  -4.385  1.00  0.00     0.106 A 
HETATM    2  C6  UNL     1      28.175  47.811  -4.445  1.00  0.00     0.066 A 
HETATM    3  C7  UNL     1      27.855  48.444  -3.277  1.00  0.00     0.052 A 
HETATM    4  N3  UNL     1      27.286  49.634  -3.285  1.00  0.00    -0.398 N 
ATOM      5  H31 UNL     1      27.048  50.106  -2.413  1.00  0.00     0.156 HD
ATOM      6  H32 UNL     1      27.053  50.094  -4.165  1.00  0.00     0.156 HD
HETATM    7  C8  UNL     1      28.169  47.824  -2.089  1.00  0.00     0.112 A 
HETATM    8  C9  UNL     1      27.877  48.535  -0.851  1.00  0.00     0.105 C 
HETATM    9  N4  UNL     1      27.637  49.116   0.161  1.00  0.00    -0.191 NA
HETATM   10  C10 UNL     1      28.784  46.615  -2.028  1.00  0.00     0.140 A 
HETATM   11  N5  UNL     1      29.107  45.969  -0.795  1.00  0.00    -0.081 NA
HETATM   12  N6  UNL     1      29.108  45.983  -3.222  1.00  0.00    -0.339 N 
ATOM     13  H6  UNL     1      29.570  45.074  -3.219  1.00  0.00     0.167 HD
ENDROOT
BRANCH   1  14
HETATM   14  C4  UNL     1      29.309  46.076  -5.701  1.00  0.00     0.297 C 
HETATM   15  N2  UNL     1      29.831  47.010  -6.577  1.00  0.00    -0.195 N 
ATOM     16  H2  UNL     1      29.772  47.903  -6.088  1.00  0.00     0.205 HD
HETATM   17  O2  UNL     1      29.204  44.854  -5.851  1.00  0.00    -0.263 OA
BRANCH  15  18
HETATM   18  N1  UNL     1      30.368  47.288  -7.744  1.00  0.00    -0.301 NA
BRANCH  18  19
HETATM   19  C3  UNL     1      30.918  47.576  -8.931  1.00  0.00     0.224 C 
BRANCH  19  20
HETATM   20  C2  UNL     1      31.242  46.787 -10.122  1.00  0.00     0.188 C 
BRANCH  20  21
HETATM   21  S2  UNL     1      32.430  45.486  -9.947  1.00  0.00    -0.089 SA
BRANCH  21  22
HETATM   22  S1  UNL     1      32.456  44.190 -11.642  1.00  0.00    -0.102 SA
HETATM   23  C1  UNL     1      33.574  42.806 -11.299  1.00  0.00     0.102 C 
ENDBRANCH  21  22
ENDBRANCH  20  21
ENDBRANCH  19  20
BRANCH  19  24
HETATM   24  O1  UNL     1      31.276  48.865  -9.128  1.00  0.00    -0.337 OA
ATOM     25  H1  UNL     1      30.546  49.434  -8.917  1.00  0.00     0.220 HD
ENDBRANCH  19  24
ENDBRANCH  18  19
ENDBRANCH  15  18
ENDBRANCH   1  14
TORSDOF 7
ENDMDL
