MODEL 1
REMARK VINA RESULT: -7.582312913      0.000      0.000
REMARK  7 active torsions:
REMARK  status: ('A' for Active; 'I' for Inactive)
REMARK    1  A    between atoms: C2_2  and  S1_3 
REMARK    2  A    between atoms: S1_3  and  C3_4 
REMARK    3  A    between atoms: C4_7  and  N2_8 
REMARK    4  A    between atoms: C5_13  and  N4_14 
REMARK    5  A    between atoms: C7_17  and  C8_18 
REMARK    6  A    between atoms: N5_19  and  N6_21 
REMARK    7  A    between atoms: N6_21  and  C9_23 
ROOT
HETATM    1  C3  UNL     1      30.659  47.807  -7.508  1.00  0.00     0.101 A 
HETATM    2  N1  UNL     1      31.528  48.544  -8.184  1.00  0.00    -0.185 N 
ATOM      3  H1  UNL     1      31.756  48.260  -9.137  1.00  0.00     0.185 HD
HETATM    4  C4  UNL     1      32.131  49.646  -7.692  1.00  0.00     0.678 A 
HETATM    5  N3  UNL     1      31.835  50.024  -6.446  1.00  0.00    -0.176 N 
ATOM      6  H3  UNL     1      32.281  50.855  -6.057  1.00  0.00     0.186 HD
HETATM    7  C5  UNL     1      30.965  49.333  -5.699  1.00  0.00     0.131 A 
HETATM    8  C7  UNL     1      30.359  48.207  -6.221  1.00  0.00     0.059 A 
ENDROOT
BRANCH   8   9
HETATM    9  C8  UNL     1      29.415  47.459  -5.397  1.00  0.00     0.125 C 
HETATM   10  N5  UNL     1      29.835  46.654  -4.486  1.00  0.00    -0.297 N 
ATOM     11  H5  UNL     1      30.840  46.548  -4.348  1.00  0.00     0.186 HD
BRANCH  10  12
HETATM   12  N6  UNL     1      28.971  45.930  -3.687  1.00  0.00    -0.133 N 
ATOM     13  H6  UNL     1      28.690  44.997  -3.987  1.00  0.00     0.205 HD
BRANCH  12  14
HETATM   14  C9  UNL     1      28.460  46.436  -2.461  1.00  0.00     0.688 C 
HETATM   15  N7  UNL     1      28.221  45.609  -1.489  1.00  0.00    -0.225 N 
HETATM   16  C10 UNL     1      27.696  46.221  -0.267  1.00  0.00     0.139 C 
ATOM     17  H7  UNL     1      28.386  44.606  -1.570  1.00  0.00     0.177 HD
HETATM   18  C11 UNL     1      28.628  47.404   0.018  1.00  0.00     0.040 C 
HETATM   19  C12 UNL     1      28.417  48.467  -1.024  1.00  0.00     0.139 C 
HETATM   20  N8  UNL     1      28.215  47.831  -2.316  1.00  0.00    -0.225 N 
ATOM     21  H8  UNL     1      27.900  48.382  -3.114  1.00  0.00     0.177 HD
ENDBRANCH  12  14
ENDBRANCH  10  12
ENDBRANCH   8   9
BRANCH   1  22
HETATM   22  S1  UNL     1      29.871  46.350  -8.164  1.00  0.00    -0.111 SA
BRANCH  22  23
HETATM   23  C2  UNL     1      30.584  44.817  -7.598  1.00  0.00     0.076 C 
HETATM   24  C1  UNL     1      29.610  43.986  -6.831  1.00  0.00     0.016 C 
ENDBRANCH  22  23
ENDBRANCH   1  22
BRANCH   7  25
HETATM   25  N4  UNL     1      30.698  49.732  -4.481  1.00  0.00    -0.379 N 
HETATM   26  C6  UNL     1      31.697  49.612  -3.453  1.00  0.00     0.147 C 
ATOM     27  H4  UNL     1      29.784  50.128  -4.261  1.00  0.00     0.160 HD
ENDBRANCH   7  25
BRANCH   4  28
HETATM   28  N2  UNL     1      32.973  50.314  -8.413  1.00  0.00    -0.234 N 
ATOM     29  H22 UNL     1      32.721  50.654  -9.341  1.00  0.00     0.174 HD
ATOM     30  H21 UNL     1      33.911  50.514  -8.064  1.00  0.00     0.174 HD
ENDBRANCH   4  28
TORSDOF 7
ENDMDL
MODEL 2
REMARK VINA RESULT: -7.572675795      1.246      1.629
REMARK  7 active torsions:
REMARK  status: ('A' for Active; 'I' for Inactive)
REMARK    1  A    between atoms: C2_2  and  S1_3 
REMARK    2  A    between atoms: S1_3  and  C3_4 
REMARK    3  A    between atoms: C4_7  and  N2_8 
REMARK    4  A    between atoms: C5_13  and  N4_14 
REMARK    5  A    between atoms: C7_17  and  C8_18 
REMARK    6  A    between atoms: N5_19  and  N6_21 
REMARK    7  A    between atoms: N6_21  and  C9_23 
ROOT
HETATM    1  C3  UNL     1      30.417  47.917  -6.777  1.00  0.00     0.101 A 
HETATM    2  N1  UNL     1      30.929  48.461  -7.872  1.00  0.00    -0.185 N 
ATOM      3  H1  UNL     1      30.804  47.965  -8.755  1.00  0.00     0.185 HD
HETATM    4  C4  UNL     1      31.604  49.628  -7.893  1.00  0.00     0.678 A 
HETATM    5  N3  UNL     1      31.769  50.282  -6.741  1.00  0.00    -0.176 N 
ATOM      6  H3  UNL     1      32.277  51.167  -6.736  1.00  0.00     0.186 HD
HETATM    7  C5  UNL     1      31.280  49.799  -5.591  1.00  0.00     0.131 A 
HETATM    8  C7  UNL     1      30.592  48.601  -5.591  1.00  0.00     0.059 A 
ENDROOT
BRANCH   8   9
HETATM    9  C8  UNL     1      30.067  48.081  -4.333  1.00  0.00     0.125 C 
HETATM   10  N5  UNL     1      30.761  47.265  -3.621  1.00  0.00    -0.297 N 
ATOM     11  H5  UNL     1      31.685  46.986  -3.950  1.00  0.00     0.186 HD
BRANCH  10  12
HETATM   12  N6  UNL     1      30.296  46.752  -2.424  1.00  0.00    -0.133 N 
ATOM     13  H6  UNL     1      30.821  46.003  -1.975  1.00  0.00     0.205 HD
BRANCH  12  14
HETATM   14  C9  UNL     1      29.114  47.230  -1.797  1.00  0.00     0.688 C 
HETATM   15  N7  UNL     1      29.147  48.371  -1.178  1.00  0.00    -0.225 N 
HETATM   16  C10 UNL     1      27.883  48.781  -0.563  1.00  0.00     0.139 C 
ATOM     17  H7  UNL     1      29.991  48.941  -1.124  1.00  0.00     0.177 HD
HETATM   18  C11 UNL     1      26.828  48.596  -1.658  1.00  0.00     0.040 C 
HETATM   19  C12 UNL     1      26.630  47.128  -1.918  1.00  0.00     0.139 C 
HETATM   20  N8  UNL     1      27.919  46.458  -1.851  1.00  0.00    -0.225 N 
ATOM     21  H8  UNL     1      27.966  45.439  -1.844  1.00  0.00     0.177 HD
ENDBRANCH  12  14
ENDBRANCH  10  12
ENDBRANCH   8   9
BRANCH   1  22
HETATM   22  S1  UNL     1      29.531  46.371  -6.758  1.00  0.00    -0.111 SA
BRANCH  22  23
HETATM   23  C2  UNL     1      30.578  44.928  -6.753  1.00  0.00     0.076 C 
HETATM   24  C1  UNL     1      31.388  44.809  -8.001  1.00  0.00     0.016 C 
ENDBRANCH  22  23
ENDBRANCH   1  22
BRANCH   7  25
HETATM   25  N4  UNL     1      31.461  50.467  -4.479  1.00  0.00    -0.379 N 
HETATM   26  C6  UNL     1      32.795  50.720  -4.005  1.00  0.00     0.147 C 
ATOM     27  H4  UNL     1      30.657  50.807  -3.951  1.00  0.00     0.160 HD
ENDBRANCH   7  25
BRANCH   4  28
HETATM   28  N2  UNL     1      32.078  50.095  -9.003  1.00  0.00    -0.234 N 
ATOM     29  H22 UNL     1      32.998  50.535  -9.040  1.00  0.00     0.174 HD
ATOM     30  H21 UNL     1      31.539  50.030  -9.866  1.00  0.00     0.174 HD
ENDBRANCH   4  28
TORSDOF 7
ENDMDL
MODEL 3
REMARK VINA RESULT: -7.563104327      1.657      2.256
REMARK  7 active torsions:
REMARK  status: ('A' for Active; 'I' for Inactive)
REMARK    1  A    between atoms: C2_2  and  S1_3 
REMARK    2  A    between atoms: S1_3  and  C3_4 
REMARK    3  A    between atoms: C4_7  and  N2_8 
REMARK    4  A    between atoms: C5_13  and  N4_14 
REMARK    5  A    between atoms: C7_17  and  C8_18 
REMARK    6  A    between atoms: N5_19  and  N6_21 
REMARK    7  A    between atoms: N6_21  and  C9_23 
ROOT
HETATM    1  C3  UNL     1      31.410  48.188  -6.218  1.00  0.00     0.101 A 
HETATM    2  N1  UNL     1      31.882  48.488  -7.419  1.00  0.00    -0.185 N 
ATOM      3  H1  UNL     1      32.111  47.719  -8.048  1.00  0.00     0.185 HD
HETATM    4  C4  UNL     1      32.079  49.747  -7.862  1.00  0.00     0.678 A 
HETATM    5  N3  UNL     1      31.779  50.758  -7.044  1.00  0.00    -0.176 N 
ATOM      6  H3  UNL     1      31.920  51.717  -7.361  1.00  0.00     0.186 HD
HETATM    7  C5  UNL     1      31.295  50.537  -5.814  1.00  0.00     0.131 A 
HETATM    8  C7  UNL     1      31.102  49.240  -5.379  1.00  0.00     0.059 A 
ENDROOT
BRANCH   8   9
HETATM    9  C8  UNL     1      30.578  49.010  -4.036  1.00  0.00     0.125 C 
HETATM   10  N5  UNL     1      31.364  49.014  -3.018  1.00  0.00    -0.297 N 
ATOM     11  H5  UNL     1      32.359  49.181  -3.163  1.00  0.00     0.186 HD
BRANCH  10  12
HETATM   12  N6  UNL     1      30.904  48.800  -1.732  1.00  0.00    -0.133 N 
ATOM     13  H6  UNL     1      31.463  49.137  -0.948  1.00  0.00     0.205 HD
BRANCH  12  14
HETATM   14  C9  UNL     1      29.682  48.128  -1.461  1.00  0.00     0.688 C 
HETATM   15  N7  UNL     1      28.647  48.823  -1.098  1.00  0.00    -0.225 N 
HETATM   16  C10 UNL     1      27.434  48.045  -0.840  1.00  0.00     0.139 C 
ATOM     17  H7  UNL     1      28.677  49.838  -0.999  1.00  0.00     0.177 HD
HETATM   18  C11 UNL     1      27.283  47.127  -2.058  1.00  0.00     0.040 C 
HETATM   19  C12 UNL     1      28.373  46.092  -2.041  1.00  0.00     0.139 C 
HETATM   20  N8  UNL     1      29.608  46.711  -1.586  1.00  0.00    -0.225 N 
ATOM     21  H8  UNL     1      30.416  46.133  -1.359  1.00  0.00     0.177 HD
ENDBRANCH  12  14
ENDBRANCH  10  12
ENDBRANCH   8   9
BRANCH   1  22
HETATM   22  S1  UNL     1      31.159  46.522  -5.638  1.00  0.00    -0.111 SA
BRANCH  22  23
HETATM   23  C2  UNL     1      29.577  45.827  -6.075  1.00  0.00     0.076 C 
HETATM   24  C1  UNL     1      29.267  45.987  -7.527  1.00  0.00     0.016 C 
ENDBRANCH  22  23
ENDBRANCH   1  22
BRANCH   7  25
HETATM   25  N4  UNL     1      31.012  51.553  -5.038  1.00  0.00    -0.379 N 
HETATM   26  C6  UNL     1      32.051  52.468  -4.648  1.00  0.00     0.147 C 
ATOM     27  H4  UNL     1      30.056  51.695  -4.711  1.00  0.00     0.160 HD
ENDBRANCH   7  25
BRANCH   4  28
HETATM   28  N2  UNL     1      32.547  49.962  -9.049  1.00  0.00    -0.234 N 
ATOM     29  H22 UNL     1      33.516  49.740  -9.282  1.00  0.00     0.174 HD
ATOM     30  H21 UNL     1      31.953  50.357  -9.779  1.00  0.00     0.174 HD
ENDBRANCH   4  28
TORSDOF 7
ENDMDL
MODEL 4
REMARK VINA RESULT: -7.484450449      1.855      3.457
REMARK  7 active torsions:
REMARK  status: ('A' for Active; 'I' for Inactive)
REMARK    1  A    between atoms: C2_2  and  S1_3 
REMARK    2  A    between atoms: S1_3  and  C3_4 
REMARK    3  A    between atoms: C4_7  and  N2_8 
REMARK    4  A    between atoms: C5_13  and  N4_14 
REMARK    5  A    between atoms: C7_17  and  C8_18 
REMARK    6  A    between atoms: N5_19  and  N6_21 
REMARK    7  A    between atoms: N6_21  and  C9_23 
ROOT
HETATM    1  C3  UNL     1      31.010  48.826  -6.372  1.00  0.00     0.101 A 
HETATM    2  N1  UNL     1      31.278  48.898  -7.667  1.00  0.00    -0.185 N 
ATOM      3  H1  UNL     1      31.824  49.694  -7.999  1.00  0.00     0.185 HD
HETATM    4  C4  UNL     1      30.874  47.987  -8.576  1.00  0.00     0.678 A 
HETATM    5  N3  UNL     1      30.160  46.942  -8.148  1.00  0.00    -0.176 N 
ATOM      6  H3  UNL     1      29.846  46.242  -8.820  1.00  0.00     0.186 HD
HETATM    7  C5  UNL     1      29.850  46.797  -6.853  1.00  0.00     0.131 A 
HETATM    8  C7  UNL     1      30.273  47.742  -5.938  1.00  0.00     0.059 A 
ENDROOT
BRANCH   8   9
HETATM    9  C8  UNL     1      29.926  47.576  -4.531  1.00  0.00     0.125 C 
HETATM   10  N5  UNL     1      30.686  46.898  -3.745  1.00  0.00    -0.297 N 
ATOM     11  H5  UNL     1      31.536  46.478  -4.122  1.00  0.00     0.186 HD
BRANCH  10  12
HETATM   12  N6  UNL     1      30.391  46.719  -2.407  1.00  0.00    -0.133 N 
ATOM     13  H6  UNL     1      31.060  46.225  -1.818  1.00  0.00     0.205 HD
BRANCH  12  14
HETATM   14  C9  UNL     1      29.188  47.198  -1.821  1.00  0.00     0.688 C 
HETATM   15  N7  UNL     1      29.170  48.390  -1.305  1.00  0.00    -0.225 N 
HETATM   16  C10 UNL     1      27.889  48.797  -0.724  1.00  0.00     0.139 C 
ATOM     17  H7  UNL     1      29.988  48.998  -1.305  1.00  0.00     0.177 HD
HETATM   18  C11 UNL     1      26.844  48.469  -1.796  1.00  0.00     0.040 C 
HETATM   19  C12 UNL     1      26.712  46.977  -1.924  1.00  0.00     0.139 C 
HETATM   20  N8  UNL     1      28.028  46.372  -1.802  1.00  0.00    -0.225 N 
ATOM     21  H8  UNL     1      28.121  45.361  -1.705  1.00  0.00     0.177 HD
ENDBRANCH  12  14
ENDBRANCH  10  12
ENDBRANCH   8   9
BRANCH   1  22
HETATM   22  S1  UNL     1      31.543  50.037  -5.179  1.00  0.00    -0.111 SA
BRANCH  22  23
HETATM   23  C2  UNL     1      33.081  49.640  -4.371  1.00  0.00     0.076 C 
HETATM   24  C1  UNL     1      33.766  48.471  -4.996  1.00  0.00     0.016 C 
ENDBRANCH  22  23
ENDBRANCH   1  22
BRANCH   7  25
HETATM   25  N4  UNL     1      29.149  45.760  -6.468  1.00  0.00    -0.379 N 
HETATM   26  C6  UNL     1      29.699  44.438  -6.592  1.00  0.00     0.147 C 
ATOM     27  H4  UNL     1      28.214  45.891  -6.082  1.00  0.00     0.160 HD
ENDBRANCH   7  25
BRANCH   4  28
HETATM   28  N2  UNL     1      31.172  48.127  -9.828  1.00  0.00    -0.234 N 
ATOM     29  H22 UNL     1      31.435  49.036 -10.209  1.00  0.00     0.174 HD
ATOM     30  H21 UNL     1      31.151  47.326 -10.460  1.00  0.00     0.174 HD
ENDBRANCH   4  28
TORSDOF 7
ENDMDL
MODEL 5
REMARK VINA RESULT: -7.474344124      2.062      3.928
REMARK  7 active torsions:
REMARK  status: ('A' for Active; 'I' for Inactive)
REMARK    1  A    between atoms: C2_2  and  S1_3 
REMARK    2  A    between atoms: S1_3  and  C3_4 
REMARK    3  A    between atoms: C4_7  and  N2_8 
REMARK    4  A    between atoms: C5_13  and  N4_14 
REMARK    5  A    between atoms: C7_17  and  C8_18 
REMARK    6  A    between atoms: N5_19  and  N6_21 
REMARK    7  A    between atoms: N6_21  and  C9_23 
ROOT
HETATM    1  C3  UNL     1      31.186  46.968  -7.322  1.00  0.00     0.101 A 
HETATM    2  N1  UNL     1      31.762  46.464  -8.403  1.00  0.00    -0.185 N 
ATOM      3  H1  UNL     1      32.247  47.108  -9.030  1.00  0.00     0.185 HD
HETATM    4  C4  UNL     1      31.749  45.155  -8.728  1.00  0.00     0.678 A 
HETATM    5  N3  UNL     1      31.118  44.309  -7.911  1.00  0.00    -0.176 N 
ATOM      6  H3  UNL     1      31.097  43.315  -8.139  1.00  0.00     0.186 HD
HETATM    7  C5  UNL     1      30.512  44.740  -6.796  1.00  0.00     0.131 A 
HETATM    8  C7  UNL     1      30.537  46.085  -6.482  1.00  0.00     0.059 A 
ENDROOT
BRANCH   8   9
HETATM    9  C8  UNL     1      29.871  46.545  -5.268  1.00  0.00     0.125 C 
HETATM   10  N5  UNL     1      28.602  46.756  -5.257  1.00  0.00    -0.297 N 
ATOM     11  H5  UNL     1      28.068  46.597  -6.112  1.00  0.00     0.186 HD
BRANCH  10  12
HETATM   12  N6  UNL     1      27.937  47.192  -4.127  1.00  0.00    -0.133 N 
ATOM     13  H6  UNL     1      27.001  47.584  -4.228  1.00  0.00     0.205 HD
BRANCH  12  14
HETATM   14  C9  UNL     1      28.509  47.114  -2.828  1.00  0.00     0.688 C 
HETATM   15  N7  UNL     1      29.067  48.172  -2.321  1.00  0.00    -0.225 N 
HETATM   16  C10 UNL     1      29.628  47.996  -0.980  1.00  0.00     0.139 C 
ATOM     17  H7  UNL     1      29.111  49.060  -2.820  1.00  0.00     0.177 HD
HETATM   18  C11 UNL     1      28.518  47.319  -0.169  1.00  0.00     0.040 C 
HETATM   19  C12 UNL     1      28.332  45.909  -0.658  1.00  0.00     0.139 C 
HETATM   20  N8  UNL     1      28.466  45.888  -2.105  1.00  0.00    -0.225 N 
ATOM     21  H8  UNL     1      28.529  44.999  -2.601  1.00  0.00     0.177 HD
ENDBRANCH  12  14
ENDBRANCH  10  12
ENDBRANCH   8   9
BRANCH   1  22
HETATM   22  S1  UNL     1      31.204  48.700  -6.903  1.00  0.00    -0.111 SA
BRANCH  22  23
HETATM   23  C2  UNL     1      32.518  49.170  -5.795  1.00  0.00     0.076 C 
HETATM   24  C1  UNL     1      33.605  48.149  -5.736  1.00  0.00     0.016 C 
ENDBRANCH  22  23
ENDBRANCH   1  22
BRANCH   7  25
HETATM   25  N4  UNL     1      29.903  43.882  -6.018  1.00  0.00    -0.379 N 
HETATM   26  C6  UNL     1      29.038  42.885  -6.590  1.00  0.00     0.147 C 
ATOM     27  H4  UNL     1      30.041  43.920  -5.008  1.00  0.00     0.160 HD
ENDBRANCH   7  25
BRANCH   4  28
HETATM   28  N2  UNL     1      32.333  44.738  -9.805  1.00  0.00    -0.234 N 
ATOM     29  H22 UNL     1      32.764  45.392 -10.459  1.00  0.00     0.174 HD
ATOM     30  H21 UNL     1      32.374  43.741 -10.020  1.00  0.00     0.174 HD
ENDBRANCH   4  28
TORSDOF 7
ENDMDL
