MODEL 1
REMARK VINA RESULT: -7.879852347      0.000      0.000
REMARK  7 active torsions:
REMARK  status: ('A' for Active; 'I' for Inactive)
REMARK    1  A    between atoms: C2_2  and  N1_3 
REMARK    2  A    between atoms: N1_3  and  N2_5 
REMARK    3  A    between atoms: N3_7  and  C4_9 
REMARK    4  A    between atoms: C4_9  and  N4_10 
REMARK    5  A    between atoms: C5_11  and  N5_12 
REMARK    6  A    between atoms: C6_17  and  N7_18 
REMARK    7  A    between atoms: N9_25  and  C9_27 
ROOT
HETATM    1  C9  UNL     1      34.147  52.412  -4.888  1.00  0.00     0.262 C 
HETATM    2  C10 UNL     1      33.562  53.753  -4.870  1.00  0.00     0.079 C 
HETATM    3  N10 UNL     1      33.086  54.818  -4.847  1.00  0.00    -0.196 NA
ENDROOT
BRANCH   1   4
HETATM    4  N9  UNL     1      33.546  51.565  -3.880  1.00  0.00    -0.214 N 
HETATM    5  C8  UNL     1      32.733  50.597  -4.165  1.00  0.00     0.681 A 
HETATM    6  N8  UNL     1      32.332  50.238  -5.399  1.00  0.00    -0.184 N 
HETATM    7  N11 UNL     1      32.154  49.792  -3.260  1.00  0.00    -0.173 N 
HETATM    8  C7  UNL     1      31.481  49.180  -5.256  1.00  0.00     0.138 A 
ATOM      9  H8  UNL     1      32.612  50.675  -6.277  1.00  0.00     0.184 HD
HETATM   10  C6  UNL     1      30.767  48.403  -6.152  1.00  0.00     0.146 A 
HETATM   11  C11 UNL     1      31.373  48.906  -3.912  1.00  0.00     0.172 A 
HETATM   12  N6  UNL     1      30.010  47.425  -5.648  1.00  0.00    -0.175 N 
HETATM   13  C5  UNL     1      29.921  47.174  -4.324  1.00  0.00     0.682 A 
ATOM     14  H6  UNL     1      29.476  46.841  -6.292  1.00  0.00     0.186 HD
HETATM   15  N4  UNL     1      30.602  47.913  -3.439  1.00  0.00    -0.148 N 
ATOM     16  H11 UNL     1      32.283  49.841  -2.250  1.00  0.00     0.186 HD
ATOM     17  H9  UNL     1      33.772  51.737  -2.902  1.00  0.00     0.178 HD
BRANCH  10  18
HETATM   18  N7  UNL     1      30.845  48.632  -7.412  1.00  0.00    -0.383 N 
ATOM     19  H72 UNL     1      31.694  48.395  -7.925  1.00  0.00     0.157 HD
ATOM     20  H71 UNL     1      30.081  49.052  -7.941  1.00  0.00     0.157 HD
ENDBRANCH  10  18
BRANCH  13  21
HETATM   21  N5  UNL     1      29.175  46.213  -3.867  1.00  0.00    -0.234 N 
ATOM     22  H52 UNL     1      29.125  46.009  -2.869  1.00  0.00     0.174 HD
ATOM     23  H51 UNL     1      28.637  45.665  -4.538  1.00  0.00     0.174 HD
ENDBRANCH  13  21
BRANCH  15  24
HETATM   24  C4  UNL     1      30.543  47.701  -1.988  1.00  0.00     0.291 C 
BRANCH  24  25
HETATM   25  N3  UNL     1      29.734  48.740  -1.451  1.00  0.00    -0.303 N 
HETATM   26  N2  UNL     1      28.537  48.795  -1.192  1.00  0.00    -0.248 N 
ATOM     27  H2  UNL     1      28.235  49.691  -0.807  1.00  0.00     0.207 HD
ATOM     28  H3  UNL     1      30.244  49.599  -1.242  1.00  0.00     0.183 HD
BRANCH  26  29
HETATM   29  N1  UNL     1      27.526  47.874  -1.324  1.00  0.00    -0.319 N 
HETATM   30  C3  UNL     1      27.517  46.658  -0.539  1.00  0.00     0.172 C 
BRANCH  29  31
HETATM   31  C2  UNL     1      26.407  48.074  -2.254  1.00  0.00     0.139 C 
HETATM   32  C1  UNL     1      26.401  49.521  -2.665  1.00  0.00     0.028 C 
ENDBRANCH  29  31
ENDBRANCH  26  29
ENDBRANCH  24  25
ENDBRANCH  15  24
ENDBRANCH   1   4
TORSDOF 7
ENDMDL
MODEL 2
REMARK VINA RESULT: -7.873257188      1.518      2.028
REMARK  7 active torsions:
REMARK  status: ('A' for Active; 'I' for Inactive)
REMARK    1  A    between atoms: C2_2  and  N1_3 
REMARK    2  A    between atoms: N1_3  and  N2_5 
REMARK    3  A    between atoms: N3_7  and  C4_9 
REMARK    4  A    between atoms: C4_9  and  N4_10 
REMARK    5  A    between atoms: C5_11  and  N5_12 
REMARK    6  A    between atoms: C6_17  and  N7_18 
REMARK    7  A    between atoms: N9_25  and  C9_27 
ROOT
HETATM    1  C9  UNL     1      33.992  53.233  -3.817  1.00  0.00     0.262 C 
HETATM    2  C10 UNL     1      33.977  54.397  -2.931  1.00  0.00     0.079 C 
HETATM    3  N10 UNL     1      33.953  55.321  -2.218  1.00  0.00    -0.196 NA
ENDROOT
BRANCH   1   4
HETATM    4  N9  UNL     1      33.040  52.233  -3.384  1.00  0.00    -0.214 N 
HETATM    5  C8  UNL     1      32.523  51.357  -4.186  1.00  0.00     0.681 A 
HETATM    6  N8  UNL     1      32.780  51.242  -5.503  1.00  0.00    -0.184 N 
HETATM    7  N11 UNL     1      31.637  50.416  -3.825  1.00  0.00    -0.173 N 
HETATM    8  C7  UNL     1      32.032  50.199  -5.971  1.00  0.00     0.138 A 
ATOM      9  H8  UNL     1      33.415  51.824  -6.049  1.00  0.00     0.184 HD
HETATM   10  C6  UNL     1      31.880  49.620  -7.219  1.00  0.00     0.146 A 
HETATM   11  C11 UNL     1      31.317  49.687  -4.914  1.00  0.00     0.172 A 
HETATM   12  N6  UNL     1      31.038  48.588  -7.317  1.00  0.00    -0.175 N 
HETATM   13  C5  UNL     1      30.347  48.101  -6.263  1.00  0.00     0.682 A 
ATOM     14  H6  UNL     1      30.912  48.147  -8.228  1.00  0.00     0.186 HD
HETATM   15  N4  UNL     1      30.478  48.646  -5.048  1.00  0.00    -0.148 N 
ATOM     16  H11 UNL     1      31.268  50.276  -2.884  1.00  0.00     0.186 HD
ATOM     17  H9  UNL     1      32.764  52.217  -2.403  1.00  0.00     0.178 HD
BRANCH  10  18
HETATM   18  N7  UNL     1      32.532  50.074  -8.226  1.00  0.00    -0.383 N 
ATOM     19  H72 UNL     1      32.346  49.715  -9.163  1.00  0.00     0.157 HD
ATOM     20  H71 UNL     1      33.247  50.795  -8.135  1.00  0.00     0.157 HD
ENDBRANCH  10  18
BRANCH  13  21
HETATM   21  N5  UNL     1      29.536  47.094  -6.394  1.00  0.00    -0.234 N 
ATOM     22  H52 UNL     1      28.526  47.229  -6.438  1.00  0.00     0.174 HD
ATOM     23  H51 UNL     1      29.941  46.159  -6.450  1.00  0.00     0.174 HD
ENDBRANCH  13  21
BRANCH  15  24
HETATM   24  C4  UNL     1      29.751  48.174  -3.863  1.00  0.00     0.291 C 
BRANCH  24  25
HETATM   25  N3  UNL     1      28.575  48.967  -3.756  1.00  0.00    -0.303 N 
HETATM   26  N2  UNL     1      27.703  49.027  -2.896  1.00  0.00    -0.248 N 
ATOM     27  H2  UNL     1      26.968  49.704  -3.096  1.00  0.00     0.207 HD
ATOM     28  H3  UNL     1      28.431  49.604  -4.539  1.00  0.00     0.183 HD
BRANCH  26  29
HETATM   29  N1  UNL     1      27.533  48.350  -1.713  1.00  0.00    -0.319 N 
HETATM   30  C3  UNL     1      27.861  48.968  -0.445  1.00  0.00     0.172 C 
BRANCH  29  31
HETATM   31  C2  UNL     1      27.009  46.978  -1.669  1.00  0.00     0.139 C 
HETATM   32  C1  UNL     1      27.643  46.278  -0.499  1.00  0.00     0.028 C 
ENDBRANCH  29  31
ENDBRANCH  26  29
ENDBRANCH  24  25
ENDBRANCH  15  24
ENDBRANCH   1   4
TORSDOF 7
ENDMDL
MODEL 3
REMARK VINA RESULT: -7.802475287      1.415      1.527
REMARK  7 active torsions:
REMARK  status: ('A' for Active; 'I' for Inactive)
REMARK    1  A    between atoms: C2_2  and  N1_3 
REMARK    2  A    between atoms: N1_3  and  N2_5 
REMARK    3  A    between atoms: N3_7  and  C4_9 
REMARK    4  A    between atoms: C4_9  and  N4_10 
REMARK    5  A    between atoms: C5_11  and  N5_12 
REMARK    6  A    between atoms: C6_17  and  N7_18 
REMARK    7  A    between atoms: N9_25  and  C9_27 
ROOT
HETATM    1  C9  UNL     1      33.368  54.129  -4.147  1.00  0.00     0.262 C 
HETATM    2  C10 UNL     1      33.910  55.181  -3.288  1.00  0.00     0.079 C 
HETATM    3  N10 UNL     1      34.338  56.015  -2.592  1.00  0.00    -0.196 NA
ENDROOT
BRANCH   1   4
HETATM    4  N9  UNL     1      33.028  52.950  -3.380  1.00  0.00    -0.214 N 
HETATM    5  C8  UNL     1      32.597  51.854  -3.921  1.00  0.00     0.681 A 
HETATM    6  N8  UNL     1      32.403  51.647  -5.237  1.00  0.00    -0.184 N 
HETATM    7  N11 UNL     1      32.269  50.743  -3.244  1.00  0.00    -0.173 N 
HETATM    8  C7  UNL     1      31.943  50.369  -5.381  1.00  0.00     0.138 A 
ATOM      9  H8  UNL     1      32.569  52.318  -5.987  1.00  0.00     0.184 HD
HETATM   10  C6  UNL     1      31.574  49.606  -6.476  1.00  0.00     0.146 A 
HETATM   11  C11 UNL     1      31.860  49.808  -4.127  1.00  0.00     0.172 A 
HETATM   12  N6  UNL     1      31.157  48.359  -6.242  1.00  0.00    -0.175 N 
HETATM   13  C5  UNL     1      31.085  47.829  -5.000  1.00  0.00     0.682 A 
ATOM     14  H6  UNL     1      30.880  47.781  -7.035  1.00  0.00     0.186 HD
HETATM   15  N4  UNL     1      31.436  48.549  -3.928  1.00  0.00    -0.148 N 
ATOM     16  H11 UNL     1      32.321  50.624  -2.233  1.00  0.00     0.186 HD
ATOM     17  H9  UNL     1      33.133  52.982  -2.366  1.00  0.00     0.178 HD
BRANCH  10  18
HETATM   18  N7  UNL     1      31.639  50.099  -7.658  1.00  0.00    -0.383 N 
ATOM     19  H72 UNL     1      32.141  49.603  -8.394  1.00  0.00     0.157 HD
ATOM     20  H71 UNL     1      31.202  50.987  -7.906  1.00  0.00     0.157 HD
ENDBRANCH  10  18
BRANCH  13  21
HETATM   21  N5  UNL     1      30.675  46.612  -4.808  1.00  0.00    -0.234 N 
ATOM     22  H52 UNL     1      31.027  46.050  -4.033  1.00  0.00     0.174 HD
ATOM     23  H51 UNL     1      29.986  46.232  -5.457  1.00  0.00     0.174 HD
ENDBRANCH  13  21
BRANCH  15  24
HETATM   24  C4  UNL     1      31.373  48.040  -2.552  1.00  0.00     0.291 C 
BRANCH  24  25
HETATM   25  N3  UNL     1      30.358  48.779  -1.883  1.00  0.00    -0.303 N 
HETATM   26  N2  UNL     1      29.139  48.655  -1.856  1.00  0.00    -0.248 N 
ATOM     27  H2  UNL     1      28.664  49.347  -1.276  1.00  0.00     0.207 HD
ATOM     28  H3  UNL     1      30.710  49.555  -1.323  1.00  0.00     0.183 HD
BRANCH  26  29
HETATM   29  N1  UNL     1      28.294  47.757  -2.461  1.00  0.00    -0.319 N 
HETATM   30  C3  UNL     1      28.248  46.373  -2.038  1.00  0.00     0.172 C 
BRANCH  29  31
HETATM   31  C2  UNL     1      27.395  48.149  -3.555  1.00  0.00     0.139 C 
HETATM   32  C1  UNL     1      26.522  49.268  -3.057  1.00  0.00     0.028 C 
ENDBRANCH  29  31
ENDBRANCH  26  29
ENDBRANCH  24  25
ENDBRANCH  15  24
ENDBRANCH   1   4
TORSDOF 7
ENDMDL
MODEL 4
REMARK VINA RESULT: -7.630602526      1.615      2.318
REMARK  7 active torsions:
REMARK  status: ('A' for Active; 'I' for Inactive)
REMARK    1  A    between atoms: C2_2  and  N1_3 
REMARK    2  A    between atoms: N1_3  and  N2_5 
REMARK    3  A    between atoms: N3_7  and  C4_9 
REMARK    4  A    between atoms: C4_9  and  N4_10 
REMARK    5  A    between atoms: C5_11  and  N5_12 
REMARK    6  A    between atoms: C6_17  and  N7_18 
REMARK    7  A    between atoms: N9_25  and  C9_27 
ROOT
HETATM    1  C9  UNL     1      32.996  51.405  -3.851  1.00  0.00     0.262 C 
HETATM    2  C10 UNL     1      32.679  52.778  -4.240  1.00  0.00     0.079 C 
HETATM    3  N10 UNL     1      32.413  53.870  -4.554  1.00  0.00    -0.196 NA
ENDROOT
BRANCH   1   4
HETATM    4  N9  UNL     1      31.802  50.590  -3.784  1.00  0.00    -0.214 N 
HETATM    5  C8  UNL     1      31.623  49.537  -4.517  1.00  0.00     0.681 A 
HETATM    6  N8  UNL     1      32.489  49.051  -5.427  1.00  0.00    -0.184 N 
HETATM    7  N11 UNL     1      30.531  48.758  -4.486  1.00  0.00    -0.173 N 
HETATM    8  C7  UNL     1      31.917  47.938  -5.975  1.00  0.00     0.138 A 
ATOM      9  H8  UNL     1      33.402  49.441  -5.663  1.00  0.00     0.184 HD
HETATM   10  C6  UNL     1      32.323  47.036  -6.943  1.00  0.00     0.146 A 
HETATM   11  C11 UNL     1      30.689  47.761  -5.381  1.00  0.00     0.172 A 
HETATM   12  N6  UNL     1      31.487  46.039  -7.242  1.00  0.00    -0.175 N 
HETATM   13  C5  UNL     1      30.285  45.885  -6.644  1.00  0.00     0.682 A 
ATOM     14  H6  UNL     1      31.767  45.364  -7.952  1.00  0.00     0.186 HD
HETATM   15  N4  UNL     1      29.872  46.745  -5.705  1.00  0.00    -0.148 N 
ATOM     16  H11 UNL     1      29.718  48.896  -3.886  1.00  0.00     0.186 HD
ATOM     17  H9  UNL     1      31.068  50.856  -3.129  1.00  0.00     0.178 HD
BRANCH  10  18
HETATM   18  N7  UNL     1      33.463  47.173  -7.516  1.00  0.00    -0.383 N 
ATOM     19  H72 UNL     1      33.811  46.450  -8.145  1.00  0.00     0.157 HD
ATOM     20  H71 UNL     1      34.054  47.991  -7.371  1.00  0.00     0.157 HD
ENDBRANCH  10  18
BRANCH  13  21
HETATM   21  N5  UNL     1      29.494  44.903  -6.958  1.00  0.00    -0.234 N 
ATOM     22  H52 UNL     1      28.923  44.436  -6.254  1.00  0.00     0.174 HD
ATOM     23  H51 UNL     1      29.462  44.610  -7.935  1.00  0.00     0.174 HD
ENDBRANCH  13  21
BRANCH  15  24
HETATM   24  C4  UNL     1      28.575  46.643  -5.023  1.00  0.00     0.291 C 
BRANCH  24  25
HETATM   25  N3  UNL     1      28.785  45.868  -3.850  1.00  0.00    -0.303 N 
HETATM   26  N2  UNL     1      28.632  46.124  -2.660  1.00  0.00    -0.248 N 
ATOM     27  H2  UNL     1      28.869  45.354  -2.035  1.00  0.00     0.207 HD
ATOM     28  H3  UNL     1      29.126  44.923  -4.031  1.00  0.00     0.183 HD
BRANCH  26  29
HETATM   29  N1  UNL     1      28.202  47.257  -2.014  1.00  0.00    -0.319 N 
HETATM   30  C3  UNL     1      29.132  48.113  -1.308  1.00  0.00     0.172 C 
BRANCH  29  31
HETATM   31  C2  UNL     1      26.790  47.662  -2.010  1.00  0.00     0.139 C 
HETATM   32  C1  UNL     1      26.692  49.005  -2.681  1.00  0.00     0.028 C 
ENDBRANCH  29  31
ENDBRANCH  26  29
ENDBRANCH  24  25
ENDBRANCH  15  24
ENDBRANCH   1   4
TORSDOF 7
ENDMDL
MODEL 5
REMARK VINA RESULT: -7.586613705      0.735      1.037
REMARK  7 active torsions:
REMARK  status: ('A' for Active; 'I' for Inactive)
REMARK    1  A    between atoms: C2_2  and  N1_3 
REMARK    2  A    between atoms: N1_3  and  N2_5 
REMARK    3  A    between atoms: N3_7  and  C4_9 
REMARK    4  A    between atoms: C4_9  and  N4_10 
REMARK    5  A    between atoms: C5_11  and  N5_12 
REMARK    6  A    between atoms: C6_17  and  N7_18 
REMARK    7  A    between atoms: N9_25  and  C9_27 
ROOT
HETATM    1  C9  UNL     1      33.776  52.872  -4.721  1.00  0.00     0.262 C 
HETATM    2  C10 UNL     1      34.868  52.253  -5.470  1.00  0.00     0.079 C 
HETATM    3  N10 UNL     1      35.740  51.748  -6.059  1.00  0.00    -0.196 NA
ENDROOT
BRANCH   1   4
HETATM    4  N9  UNL     1      33.234  51.962  -3.735  1.00  0.00    -0.214 N 
HETATM    5  C8  UNL     1      32.523  50.925  -4.046  1.00  0.00     0.681 A 
HETATM    6  N8  UNL     1      32.187  50.543  -5.293  1.00  0.00    -0.184 N 
HETATM    7  N11 UNL     1      32.001  50.060  -3.162  1.00  0.00    -0.173 N 
HETATM    8  C7  UNL     1      31.436  49.408  -5.178  1.00  0.00     0.138 A 
ATOM      9  H8  UNL     1      32.445  51.013  -6.161  1.00  0.00     0.184 HD
HETATM   10  C6  UNL     1      30.819  48.576  -6.097  1.00  0.00     0.146 A 
HETATM   11  C11 UNL     1      31.323  49.111  -3.840  1.00  0.00     0.172 A 
HETATM   12  N6  UNL     1      30.146  47.526  -5.620  1.00  0.00    -0.175 N 
HETATM   13  C5  UNL     1      30.050  47.255  -4.299  1.00  0.00     0.682 A 
ATOM     14  H6  UNL     1      29.685  46.901  -6.280  1.00  0.00     0.186 HD
HETATM   15  N4  UNL     1      30.638  48.046  -3.393  1.00  0.00    -0.148 N 
ATOM     16  H11 UNL     1      32.102  50.112  -2.149  1.00  0.00     0.186 HD
ATOM     17  H9  UNL     1      33.420  52.146  -2.750  1.00  0.00     0.178 HD
BRANCH  10  18
HETATM   18  N7  UNL     1      30.905  48.824  -7.353  1.00  0.00    -0.383 N 
ATOM     19  H72 UNL     1      30.992  49.786  -7.681  1.00  0.00     0.157 HD
ATOM     20  H71 UNL     1      30.891  48.088  -8.059  1.00  0.00     0.157 HD
ENDBRANCH  10  18
BRANCH  13  21
HETATM   21  N5  UNL     1      29.387  46.224  -3.868  1.00  0.00    -0.234 N 
ATOM     22  H52 UNL     1      29.854  45.458  -3.383  1.00  0.00     0.174 HD
ATOM     23  H51 UNL     1      28.380  46.203  -4.029  1.00  0.00     0.174 HD
ENDBRANCH  13  21
BRANCH  15  24
HETATM   24  C4  UNL     1      30.564  47.816  -1.945  1.00  0.00     0.291 C 
BRANCH  24  25
HETATM   25  N3  UNL     1      29.703  48.813  -1.410  1.00  0.00    -0.303 N 
HETATM   26  N2  UNL     1      28.499  48.816  -1.178  1.00  0.00    -0.248 N 
ATOM     27  H2  UNL     1      28.153  49.692  -0.787  1.00  0.00     0.207 HD
ATOM     28  H3  UNL     1      30.174  49.687  -1.176  1.00  0.00     0.183 HD
BRANCH  26  29
HETATM   29  N1  UNL     1      27.529  47.858  -1.349  1.00  0.00    -0.319 N 
HETATM   30  C3  UNL     1      27.555  46.626  -0.589  1.00  0.00     0.172 C 
BRANCH  29  31
HETATM   31  C2  UNL     1      26.421  48.033  -2.296  1.00  0.00     0.139 C 
HETATM   32  C1  UNL     1      26.347  49.491  -2.658  1.00  0.00     0.028 C 
ENDBRANCH  29  31
ENDBRANCH  26  29
ENDBRANCH  24  25
ENDBRANCH  15  24
ENDBRANCH   1   4
TORSDOF 7
ENDMDL
