MODEL 1
REMARK VINA RESULT: -4.366807035      0.000      0.000
REMARK  2 active torsions:
REMARK  status: ('A' for Active; 'I' for Inactive)
REMARK    1  A    between atoms: N2_5  and  N3_7 
REMARK    2  A    between atoms: N3_7  and  C4_9 
ROOT
HETATM    1  C1  UNL     1      42.666  34.464  33.058  1.00  0.00     0.082 C 
HETATM    2  C2  UNL     1      43.476  33.470  33.809  1.00  0.00     0.101 C 
HETATM    3  C3  UNL     1      43.793  32.192  33.261  1.00  0.00     0.114 C 
HETATM    4  N1  UNL     1      44.050  31.151  32.797  1.00  0.00    -0.190 NA
HETATM    5  N2  UNL     1      43.896  33.786  34.987  1.00  0.00    -0.293 N 
ATOM      6  H2  UNL     1      44.454  33.114  35.513  1.00  0.00     0.187 HD
ENDROOT
BRANCH   5   7
HETATM    7  N3  UNL     1      43.607  35.028  35.561  1.00  0.00    -0.278 N 
ATOM      8  H3  UNL     1      43.186  35.751  34.977  1.00  0.00     0.189 HD
BRANCH   7   9
HETATM    9  C4  UNL     1      43.873  35.321  36.914  1.00  0.00     0.199 C 
HETATM   10  N4  UNL     1      44.855  34.590  37.606  1.00  0.00    -0.068 NA
HETATM   11  S1  UNL     1      43.052  36.494  37.673  1.00  0.00    -0.043 SA
ENDBRANCH   7   9
ENDBRANCH   5   7
TORSDOF 2
ENDMDL
MODEL 2
REMARK VINA RESULT: -4.363633292      3.720      5.198
REMARK  2 active torsions:
REMARK  status: ('A' for Active; 'I' for Inactive)
REMARK    1  A    between atoms: N2_5  and  N3_7 
REMARK    2  A    between atoms: N3_7  and  C4_9 
ROOT
HETATM    1  C1  UNL     1      41.374  33.384  34.166  1.00  0.00     0.082 C 
HETATM    2  C2  UNL     1      42.550  34.236  33.850  1.00  0.00     0.101 C 
HETATM    3  C3  UNL     1      43.399  34.754  34.872  1.00  0.00     0.114 C 
HETATM    4  N1  UNL     1      44.089  35.166  35.720  1.00  0.00    -0.190 NA
HETATM    5  N2  UNL     1      42.796  34.505  32.613  1.00  0.00    -0.293 N 
ATOM      6  H2  UNL     1      43.601  35.088  32.381  1.00  0.00     0.187 HD
ENDROOT
BRANCH   5   7
HETATM    7  N3  UNL     1      41.989  34.018  31.580  1.00  0.00    -0.278 N 
ATOM      8  H3  UNL     1      41.208  34.590  31.258  1.00  0.00     0.189 HD
BRANCH   7   9
HETATM    9  C4  UNL     1      42.210  32.768  30.967  1.00  0.00     0.199 C 
HETATM   10  N4  UNL     1      43.034  31.818  31.596  1.00  0.00    -0.068 NA
HETATM   11  S1  UNL     1      41.518  32.423  29.543  1.00  0.00    -0.043 SA
ENDBRANCH   7   9
ENDBRANCH   5   7
TORSDOF 2
ENDMDL
MODEL 3
REMARK VINA RESULT: -4.352339525      4.470      5.466
REMARK  2 active torsions:
REMARK  status: ('A' for Active; 'I' for Inactive)
REMARK    1  A    between atoms: N2_5  and  N3_7 
REMARK    2  A    between atoms: N3_7  and  C4_9 
ROOT
HETATM    1  C1  UNL     1      43.598  35.676  37.233  1.00  0.00     0.082 C 
HETATM    2  C2  UNL     1      43.183  35.747  38.658  1.00  0.00     0.101 C 
HETATM    3  C3  UNL     1      41.914  36.270  39.047  1.00  0.00     0.114 C 
HETATM    4  N1  UNL     1      40.869  36.695  39.348  1.00  0.00    -0.190 NA
HETATM    5  N2  UNL     1      44.005  35.320  39.557  1.00  0.00    -0.293 N 
ATOM      6  H2  UNL     1      43.733  35.362  40.540  1.00  0.00     0.187 HD
ENDROOT
BRANCH   5   7
HETATM    7  N3  UNL     1      45.258  34.801  39.220  1.00  0.00    -0.278 N 
ATOM      8  H3  UNL     1      45.301  33.918  38.711  1.00  0.00     0.189 HD
BRANCH   7   9
HETATM    9  C4  UNL     1      46.465  35.448  39.555  1.00  0.00     0.199 C 
HETATM   10  N4  UNL     1      47.688  34.921  39.103  1.00  0.00    -0.068 NA
HETATM   11  S1  UNL     1      46.447  36.793  40.459  1.00  0.00    -0.043 SA
ENDBRANCH   7   9
ENDBRANCH   5   7
TORSDOF 2
ENDMDL
MODEL 4
REMARK VINA RESULT: -4.290762802      2.212      2.742
REMARK  2 active torsions:
REMARK  status: ('A' for Active; 'I' for Inactive)
REMARK    1  A    between atoms: N2_5  and  N3_7 
REMARK    2  A    between atoms: N3_7  and  C4_9 
ROOT
HETATM    1  C1  UNL     1      43.480  31.597  32.952  1.00  0.00     0.082 C 
HETATM    2  C2  UNL     1      42.639  32.660  32.343  1.00  0.00     0.101 C 
HETATM    3  C3  UNL     1      42.191  32.581  30.991  1.00  0.00     0.114 C 
HETATM    4  N1  UNL     1      41.827  32.499  29.884  1.00  0.00    -0.190 NA
HETATM    5  N2  UNL     1      42.313  33.675  33.070  1.00  0.00    -0.293 N 
ATOM      6  H2  UNL     1      41.735  34.412  32.664  1.00  0.00     0.187 HD
ENDROOT
BRANCH   5   7
HETATM    7  N3  UNL     1      42.732  33.791  34.399  1.00  0.00    -0.278 N 
ATOM      8  H3  UNL     1      42.302  33.190  35.102  1.00  0.00     0.189 HD
BRANCH   7   9
HETATM    9  C4  UNL     1      43.723  34.707  34.806  1.00  0.00     0.199 C 
HETATM   10  N4  UNL     1      44.751  35.065  33.915  1.00  0.00    -0.068 NA
HETATM   11  S1  UNL     1      43.683  35.346  36.295  1.00  0.00    -0.043 SA
ENDBRANCH   7   9
ENDBRANCH   5   7
TORSDOF 2
ENDMDL
MODEL 5
REMARK VINA RESULT: -4.177989586      1.631      1.991
REMARK  2 active torsions:
REMARK  status: ('A' for Active; 'I' for Inactive)
REMARK    1  A    between atoms: N2_5  and  N3_7 
REMARK    2  A    between atoms: N3_7  and  C4_9 
ROOT
HETATM    1  C1  UNL     1      43.964  32.842  34.036  1.00  0.00     0.082 C 
HETATM    2  C2  UNL     1      43.159  34.091  34.047  1.00  0.00     0.101 C 
HETATM    3  C3  UNL     1      42.164  34.353  33.059  1.00  0.00     0.114 C 
HETATM    4  N1  UNL     1      41.348  34.550  32.246  1.00  0.00    -0.190 NA
HETATM    5  N2  UNL     1      43.378  34.952  34.982  1.00  0.00    -0.293 N 
ATOM      6  H2  UNL     1      42.832  35.814  35.003  1.00  0.00     0.187 HD
ENDROOT
BRANCH   5   7
HETATM    7  N3  UNL     1      44.344  34.736  35.969  1.00  0.00    -0.278 N 
ATOM      8  H3  UNL     1      45.208  34.258  35.712  1.00  0.00     0.189 HD
BRANCH   7   9
HETATM    9  C4  UNL     1      44.173  35.150  37.306  1.00  0.00     0.199 C 
HETATM   10  N4  UNL     1      45.040  34.668  38.302  1.00  0.00    -0.068 NA
HETATM   11  S1  UNL     1      42.981  36.177  37.696  1.00  0.00    -0.043 SA
ENDBRANCH   7   9
ENDBRANCH   5   7
TORSDOF 2
ENDMDL
