MODEL 1
REMARK VINA RESULT: -6.392803000      0.000      0.000
REMARK  4 active torsions:
REMARK  status: ('A' for Active; 'I' for Inactive)
REMARK    1  A    between atoms: N1_1  and  N2_4 
REMARK    2  A    between atoms: N3_6  and  C1_8 
REMARK    3  A    between atoms: C2_9  and  N4_10 
REMARK    4  A    between atoms: C5_16  and  O1_17 
ROOT
HETATM    1  C1  UNL     1      42.216  32.743  32.243  1.00  0.00     0.167 C 
HETATM    2  C2  UNL     1      43.339  31.832  32.660  1.00  0.00     0.233 C 
HETATM    3  C3  UNL     1      44.072  32.609  33.687  1.00  0.00     0.006 C 
HETATM    4  C4  UNL     1      43.441  33.701  34.046  1.00  0.00     0.005 C 
HETATM    5  C5  UNL     1      42.177  33.802  33.295  1.00  0.00     0.167 C 
ENDROOT
BRANCH   1   6
HETATM    6  N3  UNL     1      42.320  33.226  30.907  1.00  0.00    -0.313 N 
HETATM    7  N2  UNL     1      41.483  33.026  30.029  1.00  0.00    -0.253 N 
ATOM      8  H2  UNL     1      40.681  33.573  30.342  1.00  0.00     0.207 HD
ATOM      9  H3  UNL     1      43.144  33.775  30.663  1.00  0.00     0.182 HD
BRANCH   7  10
HETATM   10  N1  UNL     1      41.081  32.517  28.962  1.00  0.00    -0.331 N 
ATOM     11  H12 UNL     1      41.944  32.102  28.612  1.00  0.00     0.178 HD
ATOM     12  H11 UNL     1      40.369  32.297  28.266  1.00  0.00     0.178 HD
ENDBRANCH   7  10
ENDBRANCH   1   6
BRANCH   2  13
HETATM   13  N4  UNL     1      42.828  30.621  33.253  1.00  0.00    -0.070 N 
ATOM     14  H43 UNL     1      41.998  30.799  33.817  1.00  0.00     0.275 HD
ATOM     15  H42 UNL     1      42.411  30.007  32.553  1.00  0.00     0.275 HD
ATOM     16  H41 UNL     1      43.553  30.143  33.789  1.00  0.00     0.275 HD
ENDBRANCH   2  13
BRANCH   5  17
HETATM   17  O1  UNL     1      41.088  33.627  34.164  1.00  0.00    -0.390 OA
ATOM     18  H1  UNL     1      40.503  34.375  34.146  1.00  0.00     0.210 HD
ENDBRANCH   5  17
TORSDOF 4
ENDMDL
MODEL 2
REMARK VINA RESULT: -6.299843834      1.993      2.354
REMARK  4 active torsions:
REMARK  status: ('A' for Active; 'I' for Inactive)
REMARK    1  A    between atoms: N1_1  and  N2_4 
REMARK    2  A    between atoms: N3_6  and  C1_8 
REMARK    3  A    between atoms: C2_9  and  N4_10 
REMARK    4  A    between atoms: C5_16  and  O1_17 
ROOT
HETATM    1  C1  UNL     1      42.899  33.340  32.006  1.00  0.00     0.167 C 
HETATM    2  C2  UNL     1      42.799  34.158  33.265  1.00  0.00     0.233 C 
HETATM    3  C3  UNL     1      42.285  33.203  34.276  1.00  0.00     0.006 C 
HETATM    4  C4  UNL     1      42.271  31.964  33.846  1.00  0.00     0.005 C 
HETATM    5  C5  UNL     1      42.783  31.923  32.465  1.00  0.00     0.167 C 
ENDROOT
BRANCH   1   6
HETATM    6  N3  UNL     1      41.979  33.718  30.986  1.00  0.00    -0.313 N 
HETATM    7  N2  UNL     1      41.511  32.946  30.152  1.00  0.00    -0.253 N 
ATOM      8  H2  UNL     1      40.904  32.343  30.708  1.00  0.00     0.207 HD
ATOM      9  H3  UNL     1      41.691  34.696  30.945  1.00  0.00     0.182 HD
BRANCH   7  10
HETATM   10  N1  UNL     1      41.373  32.499  28.995  1.00  0.00    -0.331 N 
ATOM     11  H12 UNL     1      42.109  33.008  28.506  1.00  0.00     0.178 HD
ATOM     12  H11 UNL     1      40.931  31.910  28.289  1.00  0.00     0.178 HD
ENDBRANCH   7  10
ENDBRANCH   1   6
BRANCH   2  13
HETATM   13  N4  UNL     1      44.096  34.636  33.675  1.00  0.00    -0.070 N 
ATOM     14  H43 UNL     1      44.379  34.236  34.569  1.00  0.00     0.275 HD
ATOM     15  H42 UNL     1      44.839  34.252  33.092  1.00  0.00     0.275 HD
ATOM     16  H41 UNL     1      44.120  35.655  33.693  1.00  0.00     0.275 HD
ENDBRANCH   2  13
BRANCH   5  17
HETATM   17  O1  UNL     1      44.024  31.267  32.434  1.00  0.00    -0.390 OA
ATOM     18  H1  UNL     1      44.274  30.951  33.295  1.00  0.00     0.210 HD
ENDBRANCH   5  17
TORSDOF 4
ENDMDL
MODEL 3
REMARK VINA RESULT: -5.603513814      1.749      1.966
REMARK  4 active torsions:
REMARK  status: ('A' for Active; 'I' for Inactive)
REMARK    1  A    between atoms: N1_1  and  N2_4 
REMARK    2  A    between atoms: N3_6  and  C1_8 
REMARK    3  A    between atoms: C2_9  and  N4_10 
REMARK    4  A    between atoms: C5_16  and  O1_17 
ROOT
HETATM    1  C1  UNL     1      42.460  34.068  32.774  1.00  0.00     0.167 C 
HETATM    2  C2  UNL     1      41.711  32.915  33.385  1.00  0.00     0.233 C 
HETATM    3  C3  UNL     1      42.768  32.096  34.024  1.00  0.00     0.006 C 
HETATM    4  C4  UNL     1      43.935  32.693  34.039  1.00  0.00     0.005 C 
HETATM    5  C5  UNL     1      43.814  34.016  33.402  1.00  0.00     0.167 C 
ENDROOT
BRANCH   1   6
HETATM    6  N3  UNL     1      42.458  34.078  31.349  1.00  0.00    -0.313 N 
HETATM    7  N2  UNL     1      41.828  33.287  30.649  1.00  0.00    -0.253 N 
ATOM      8  H2  UNL     1      40.857  33.548  30.818  1.00  0.00     0.207 HD
ATOM      9  H3  UNL     1      43.017  34.790  30.878  1.00  0.00     0.182 HD
BRANCH   7  10
HETATM   10  N1  UNL     1      41.732  32.338  29.844  1.00  0.00    -0.331 N 
ATOM     11  H12 UNL     1      42.391  32.631  29.124  1.00  0.00     0.178 HD
ATOM     12  H11 UNL     1      41.357  31.445  29.525  1.00  0.00     0.178 HD
ENDBRANCH   7  10
ENDBRANCH   1   6
BRANCH   2  13
HETATM   13  N4  UNL     1      40.789  33.375  34.393  1.00  0.00    -0.070 N 
ATOM     14  H43 UNL     1      40.778  32.756  35.204  1.00  0.00     0.275 HD
ATOM     15  H42 UNL     1      41.124  34.223  34.851  1.00  0.00     0.275 HD
ATOM     16  H41 UNL     1      39.854  33.501  34.003  1.00  0.00     0.275 HD
ENDBRANCH   2  13
BRANCH   5  17
HETATM   17  O1  UNL     1      43.977  35.027  34.362  1.00  0.00    -0.390 OA
ATOM     18  H1  UNL     1      43.270  35.661  34.324  1.00  0.00     0.210 HD
ENDBRANCH   5  17
TORSDOF 4
ENDMDL
MODEL 4
REMARK VINA RESULT: -5.337024836      2.571      3.662
REMARK  4 active torsions:
REMARK  status: ('A' for Active; 'I' for Inactive)
REMARK    1  A    between atoms: N1_1  and  N2_4 
REMARK    2  A    between atoms: N3_6  and  C1_8 
REMARK    3  A    between atoms: C2_9  and  N4_10 
REMARK    4  A    between atoms: C5_16  and  O1_17 
ROOT
HETATM    1  C1  UNL     1      42.555  34.059  32.969  1.00  0.00     0.167 C 
HETATM    2  C2  UNL     1      42.868  33.148  31.812  1.00  0.00     0.233 C 
HETATM    3  C3  UNL     1      42.825  31.789  32.401  1.00  0.00     0.006 C 
HETATM    4  C4  UNL     1      42.355  31.779  33.625  1.00  0.00     0.005 C 
HETATM    5  C5  UNL     1      42.014  33.154  34.027  1.00  0.00     0.167 C 
ENDROOT
BRANCH   1   6
HETATM    6  N3  UNL     1      43.645  34.879  33.380  1.00  0.00    -0.313 N 
HETATM    7  N2  UNL     1      44.025  34.997  34.544  1.00  0.00    -0.253 N 
ATOM      8  H2  UNL     1      44.419  34.080  34.755  1.00  0.00     0.207 HD
ATOM      9  H3  UNL     1      44.143  35.404  32.661  1.00  0.00     0.182 HD
BRANCH   7  10
HETATM   10  N1  UNL     1      44.191  35.630  35.607  1.00  0.00    -0.331 N 
ATOM     11  H12 UNL     1      45.198  35.792  35.577  1.00  0.00     0.178 HD
ATOM     12  H11 UNL     1      43.869  36.064  36.472  1.00  0.00     0.178 HD
ENDBRANCH   7  10
ENDBRANCH   1   6
BRANCH   2  13
HETATM   13  N4  UNL     1      41.862  33.256  30.785  1.00  0.00    -0.070 N 
ATOM     14  H43 UNL     1      40.934  33.030  31.142  1.00  0.00     0.275 HD
ATOM     15  H42 UNL     1      41.695  34.227  30.522  1.00  0.00     0.275 HD
ATOM     16  H41 UNL     1      42.104  32.683  29.976  1.00  0.00     0.275 HD
ENDBRANCH   2  13
BRANCH   5  17
HETATM   17  O1  UNL     1      40.622  33.284  34.154  1.00  0.00    -0.390 OA
ATOM     18  H1  UNL     1      40.163  32.831  33.456  1.00  0.00     0.210 HD
ENDBRANCH   5  17
TORSDOF 4
ENDMDL
MODEL 5
REMARK VINA RESULT: -5.138009103      7.807      8.772
REMARK  4 active torsions:
REMARK  status: ('A' for Active; 'I' for Inactive)
REMARK    1  A    between atoms: N1_1  and  N2_4 
REMARK    2  A    between atoms: N3_6  and  C1_8 
REMARK    3  A    between atoms: C2_9  and  N4_10 
REMARK    4  A    between atoms: C5_16  and  O1_17 
ROOT
HETATM    1  C1  UNL     1      42.952  37.851  38.749  1.00  0.00     0.167 C 
HETATM    2  C2  UNL     1      43.746  36.618  38.408  1.00  0.00     0.233 C 
HETATM    3  C3  UNL     1      43.226  35.586  39.336  1.00  0.00     0.006 C 
HETATM    4  C4  UNL     1      42.158  35.979  39.987  1.00  0.00     0.005 C 
HETATM    5  C5  UNL     1      41.813  37.351  39.575  1.00  0.00     0.167 C 
ENDROOT
BRANCH   1   6
HETATM    6  N3  UNL     1      43.716  38.894  39.346  1.00  0.00    -0.313 N 
HETATM    7  N2  UNL     1      44.945  38.910  39.404  1.00  0.00    -0.253 N 
ATOM      8  H2  UNL     1      45.222  39.038  38.431  1.00  0.00     0.207 HD
ATOM      9  H3  UNL     1      43.210  39.680  39.755  1.00  0.00     0.182 HD
BRANCH   7  10
HETATM   10  N1  UNL     1      46.037  38.855  40.006  1.00  0.00    -0.331 N 
ATOM     11  H12 UNL     1      45.719  38.837  40.975  1.00  0.00     0.178 HD
ATOM     12  H11 UNL     1      47.055  38.818  40.050  1.00  0.00     0.178 HD
ENDBRANCH   7  10
ENDBRANCH   1   6
BRANCH   2  13
HETATM   13  N4  UNL     1      43.502  36.206  37.049  1.00  0.00    -0.070 N 
ATOM     14  H43 UNL     1      42.619  36.574  36.697  1.00  0.00     0.275 HD
ATOM     15  H42 UNL     1      44.134  36.669  36.396  1.00  0.00     0.275 HD
ATOM     16  H41 UNL     1      43.548  35.190  36.961  1.00  0.00     0.275 HD
ENDBRANCH   2  13
BRANCH   5  17
HETATM   17  O1  UNL     1      40.612  37.345  38.850  1.00  0.00    -0.390 OA
ATOM     18  H1  UNL     1      40.199  36.489  38.863  1.00  0.00     0.210 HD
ENDBRANCH   5  17
TORSDOF 4
ENDMDL
