MODEL 1
REMARK VINA RESULT: -5.641312819      0.000      0.000
REMARK  2 active torsions:
REMARK  status: ('A' for Active; 'I' for Inactive)
REMARK    1  A    between atoms: C3_3  and  N1_4 
REMARK    2  A    between atoms: N1_4  and  C4_6 
ROOT
HETATM    1  C1  UNL     1      43.025  35.975  37.688  1.00  0.00     0.014 C 
HETATM    2  C2  UNL     1      43.555  35.592  36.688  1.00  0.00    -0.098 C 
HETATM    3  C3  UNL     1      44.197  35.141  35.452  1.00  0.00     0.216 C 
ENDROOT
BRANCH   3   4
HETATM    4  N1  UNL     1      43.155  34.857  34.485  1.00  0.00    -0.345 N 
ATOM      5  H1  UNL     1      42.423  35.550  34.330  1.00  0.00     0.164 HD
BRANCH   4   6
HETATM    6  C4  UNL     1      43.122  33.764  33.819  1.00  0.00     0.226 A 
HETATM    7  N2  UNL     1      42.679  33.609  32.584  1.00  0.00    -0.328 N 
HETATM    8  C5  UNL     1      42.817  32.322  32.264  1.00  0.00     0.144 A 
ATOM      9  H2  UNL     1      42.299  34.342  31.984  1.00  0.00     0.168 HD
HETATM   10  C6  UNL     1      43.369  31.677  33.356  1.00  0.00     0.176 A 
HETATM   11  N3  UNL     1      43.703  30.317  33.507  1.00  0.00    -0.073 NA
HETATM   12  O1  UNL     1      43.530  32.607  34.268  1.00  0.00    -0.263 OA
ENDBRANCH   4   6
ENDBRANCH   3   4
TORSDOF 2
ENDMDL
MODEL 2
REMARK VINA RESULT: -5.415423857      1.233      1.393
REMARK  2 active torsions:
REMARK  status: ('A' for Active; 'I' for Inactive)
REMARK    1  A    between atoms: C3_3  and  N1_4 
REMARK    2  A    between atoms: N1_4  and  C4_6 
ROOT
HETATM    1  C1  UNL     1      44.959  34.844  38.512  1.00  0.00     0.014 C 
HETATM    2  C2  UNL     1      44.273  35.275  37.633  1.00  0.00    -0.098 C 
HETATM    3  C3  UNL     1      43.425  35.781  36.553  1.00  0.00     0.216 C 
ENDROOT
BRANCH   3   4
HETATM    4  N1  UNL     1      43.923  35.243  35.303  1.00  0.00    -0.345 N 
ATOM      5  H1  UNL     1      44.698  35.715  34.837  1.00  0.00     0.164 HD
BRANCH   4   6
HETATM    6  C4  UNL     1      43.423  34.195  34.763  1.00  0.00     0.226 A 
HETATM    7  N2  UNL     1      42.317  34.133  34.043  1.00  0.00    -0.328 N 
HETATM    8  C5  UNL     1      42.148  32.864  33.671  1.00  0.00     0.144 A 
ATOM      9  H2  UNL     1      41.703  34.915  33.813  1.00  0.00     0.168 HD
HETATM   10  C6  UNL     1      43.200  32.133  34.192  1.00  0.00     0.176 A 
HETATM   11  N3  UNL     1      43.466  30.754  34.075  1.00  0.00    -0.073 NA
HETATM   12  O1  UNL     1      43.939  32.998  34.846  1.00  0.00    -0.263 OA
ENDBRANCH   4   6
ENDBRANCH   3   4
TORSDOF 2
ENDMDL
MODEL 3
REMARK VINA RESULT: -5.343817764      1.279      1.762
REMARK  2 active torsions:
REMARK  status: ('A' for Active; 'I' for Inactive)
REMARK    1  A    between atoms: C3_3  and  N1_4 
REMARK    2  A    between atoms: N1_4  and  C4_6 
ROOT
HETATM    1  C1  UNL     1      43.256  36.073  37.699  1.00  0.00     0.014 C 
HETATM    2  C2  UNL     1      43.579  35.599  36.651  1.00  0.00    -0.098 C 
HETATM    3  C3  UNL     1      43.963  35.034  35.356  1.00  0.00     0.216 C 
ENDROOT
BRANCH   3   4
HETATM    4  N1  UNL     1      42.774  34.474  34.742  1.00  0.00    -0.345 N 
ATOM      5  H1  UNL     1      41.859  34.768  35.082  1.00  0.00     0.164 HD
BRANCH   4   6
HETATM    6  C4  UNL     1      42.835  33.622  33.788  1.00  0.00     0.226 A 
HETATM    7  N2  UNL     1      43.449  32.452  33.817  1.00  0.00    -0.328 N 
HETATM    8  C5  UNL     1      43.276  31.877  32.627  1.00  0.00     0.144 A 
ATOM      9  H2  UNL     1      43.962  32.060  34.607  1.00  0.00     0.168 HD
HETATM   10  C6  UNL     1      42.525  32.741  31.850  1.00  0.00     0.176 A 
HETATM   11  N3  UNL     1      42.082  32.584  30.522  1.00  0.00    -0.073 NA
HETATM   12  O1  UNL     1      42.290  33.784  32.612  1.00  0.00    -0.263 OA
ENDBRANCH   4   6
ENDBRANCH   3   4
TORSDOF 2
ENDMDL
MODEL 4
REMARK VINA RESULT: -5.195617926      1.689      4.803
REMARK  2 active torsions:
REMARK  status: ('A' for Active; 'I' for Inactive)
REMARK    1  A    between atoms: C3_3  and  N1_4 
REMARK    2  A    between atoms: N1_4  and  C4_6 
ROOT
HETATM    1  C1  UNL     1      41.699  32.584  29.843  1.00  0.00     0.014 C 
HETATM    2  C2  UNL     1      42.204  32.515  30.923  1.00  0.00    -0.098 C 
HETATM    3  C3  UNL     1      42.802  32.425  32.256  1.00  0.00     0.216 C 
ENDROOT
BRANCH   3   4
HETATM    4  N1  UNL     1      42.252  33.493  33.067  1.00  0.00    -0.345 N 
ATOM      5  H1  UNL     1      41.264  33.729  32.968  1.00  0.00     0.164 HD
BRANCH   4   6
HETATM    6  C4  UNL     1      42.963  34.152  33.903  1.00  0.00     0.226 A 
HETATM    7  N2  UNL     1      44.199  34.582  33.717  1.00  0.00    -0.328 N 
HETATM    8  C5  UNL     1      44.576  35.219  34.825  1.00  0.00     0.144 A 
ATOM      9  H2  UNL     1      44.762  34.451  32.876  1.00  0.00     0.168 HD
HETATM   10  C6  UNL     1      43.518  35.168  35.716  1.00  0.00     0.176 A 
HETATM   11  N3  UNL     1      43.430  35.697  37.019  1.00  0.00    -0.073 NA
HETATM   12  O1  UNL     1      42.569  34.506  35.097  1.00  0.00    -0.263 OA
ENDBRANCH   4   6
ENDBRANCH   3   4
TORSDOF 2
ENDMDL
MODEL 5
REMARK VINA RESULT: -5.155024900      2.280      5.080
REMARK  2 active torsions:
REMARK  status: ('A' for Active; 'I' for Inactive)
REMARK    1  A    between atoms: C3_3  and  N1_4 
REMARK    2  A    between atoms: N1_4  and  C4_6 
ROOT
HETATM    1  C1  UNL     1      40.961  32.361  28.789  1.00  0.00     0.014 C 
HETATM    2  C2  UNL     1      41.622  32.383  29.784  1.00  0.00    -0.098 C 
HETATM    3  C3  UNL     1      42.413  32.415  31.016  1.00  0.00     0.216 C 
ENDROOT
BRANCH   3   4
HETATM    4  N1  UNL     1      42.347  33.759  31.556  1.00  0.00    -0.345 N 
ATOM      5  H1  UNL     1      42.168  34.537  30.921  1.00  0.00     0.164 HD
BRANCH   4   6
HETATM    6  C4  UNL     1      42.508  34.002  32.802  1.00  0.00     0.226 A 
HETATM    7  N2  UNL     1      41.659  33.720  33.774  1.00  0.00    -0.328 N 
HETATM    8  C5  UNL     1      42.202  34.138  34.918  1.00  0.00     0.144 A 
ATOM      9  H2  UNL     1      40.752  33.265  33.669  1.00  0.00     0.168 HD
HETATM   10  C6  UNL     1      43.432  34.695  34.617  1.00  0.00     0.176 A 
HETATM   11  N3  UNL     1      44.380  35.272  35.485  1.00  0.00    -0.073 NA
HETATM   12  O1  UNL     1      43.559  34.583  33.316  1.00  0.00    -0.263 OA
ENDBRANCH   4   6
ENDBRANCH   3   4
TORSDOF 2
ENDMDL
