MODEL 1
REMARK VINA RESULT: -4.628857722      0.000      0.000
REMARK  3 active torsions:
REMARK  status: ('A' for Active; 'I' for Inactive)
REMARK    1  A    between atoms: N1_2  and  C2_4 
REMARK    2  A    between atoms: C2_4  and  N2_6 
REMARK    3  A    between atoms: N2_6  and  N3_8 
ROOT
HETATM    1  N2  UNL     1      44.106  35.023  35.103  1.00  0.00    -0.277 N 
ATOM      2  H2  UNL     1      45.106  35.218  35.140  1.00  0.00     0.189 HD
ENDROOT
BRANCH   1   3
HETATM    3  C2  UNL     1      43.628  34.200  34.067  1.00  0.00     0.186 C 
HETATM    4  S1  UNL     1      43.694  32.588  34.228  1.00  0.00    -0.040 SA
BRANCH   3   5
HETATM    5  N1  UNL     1      43.095  34.759  32.894  1.00  0.00    -0.370 N 
HETATM    6  C1  UNL     1      42.295  34.022  31.952  1.00  0.00     0.148 C 
ATOM      7  H1  UNL     1      43.284  35.742  32.699  1.00  0.00     0.161 HD
ENDBRANCH   3   5
ENDBRANCH   1   3
BRANCH   1   8
HETATM    8  N3  UNL     1      43.288  35.588  36.085  1.00  0.00    -0.307 N 
HETATM    9  C3  UNL     1      43.546  35.563  37.333  1.00  0.00    -0.004 C 
HETATM   10  C4  UNL     1      44.753  34.930  37.931  1.00  0.00     0.064 C 
HETATM   11  C5  UNL     1      42.569  36.214  38.253  1.00  0.00     0.064 C 
ATOM     12  H3  UNL     1      42.430  36.051  35.783  1.00  0.00     0.186 HD
ENDBRANCH   1   8
TORSDOF 3
ENDMDL
MODEL 2
REMARK VINA RESULT: -4.352530029      1.500      1.655
REMARK  3 active torsions:
REMARK  status: ('A' for Active; 'I' for Inactive)
REMARK    1  A    between atoms: N1_2  and  C2_4 
REMARK    2  A    between atoms: C2_4  and  N2_6 
REMARK    3  A    between atoms: N2_6  and  N3_8 
ROOT
HETATM    1  N2  UNL     1      43.986  34.918  35.047  1.00  0.00    -0.277 N 
ATOM      2  H2  UNL     1      44.956  35.212  34.934  1.00  0.00     0.189 HD
ENDROOT
BRANCH   1   3
HETATM    3  C2  UNL     1      43.495  33.909  34.197  1.00  0.00     0.186 C 
HETATM    4  S1  UNL     1      42.685  34.318  32.854  1.00  0.00    -0.040 SA
BRANCH   3   5
HETATM    5  N1  UNL     1      43.699  32.553  34.499  1.00  0.00    -0.370 N 
HETATM    6  C1  UNL     1      43.734  31.512  33.507  1.00  0.00     0.148 C 
ATOM      7  H1  UNL     1      43.829  32.292  35.477  1.00  0.00     0.161 HD
ENDBRANCH   3   5
ENDBRANCH   1   3
BRANCH   1   8
HETATM    8  N3  UNL     1      43.221  35.539  36.037  1.00  0.00    -0.307 N 
HETATM    9  C3  UNL     1      43.527  35.555  37.275  1.00  0.00    -0.004 C 
HETATM   10  C4  UNL     1      44.741  34.915  37.850  1.00  0.00     0.064 C 
HETATM   11  C5  UNL     1      42.602  36.263  38.205  1.00  0.00     0.064 C 
ATOM     12  H3  UNL     1      42.362  36.011  35.752  1.00  0.00     0.186 HD
ENDBRANCH   1   8
TORSDOF 3
ENDMDL
MODEL 3
REMARK VINA RESULT: -4.319908794      1.798      2.593
REMARK  3 active torsions:
REMARK  status: ('A' for Active; 'I' for Inactive)
REMARK    1  A    between atoms: N1_2  and  C2_4 
REMARK    2  A    between atoms: C2_4  and  N2_6 
REMARK    3  A    between atoms: N2_6  and  N3_8 
ROOT
HETATM    1  N2  UNL     1      42.412  33.646  33.296  1.00  0.00    -0.277 N 
ATOM      2  H2  UNL     1      42.002  34.259  32.591  1.00  0.00     0.189 HD
ENDROOT
BRANCH   1   3
HETATM    3  C2  UNL     1      42.768  32.340  32.914  1.00  0.00     0.186 C 
HETATM    4  S1  UNL     1      43.308  31.297  34.030  1.00  0.00    -0.040 SA
BRANCH   3   5
HETATM    5  N1  UNL     1      42.660  31.928  31.575  1.00  0.00    -0.370 N 
HETATM    6  C1  UNL     1      42.031  32.716  30.548  1.00  0.00     0.148 C 
ATOM      7  H1  UNL     1      43.049  31.021  31.317  1.00  0.00     0.161 HD
ENDBRANCH   3   5
ENDBRANCH   1   3
BRANCH   1   8
HETATM    8  N3  UNL     1      42.590  34.153  34.585  1.00  0.00    -0.307 N 
HETATM    9  C3  UNL     1      43.612  34.816  34.960  1.00  0.00    -0.004 C 
HETATM   10  C4  UNL     1      44.768  35.149  34.083  1.00  0.00     0.064 C 
HETATM   11  C5  UNL     1      43.649  35.288  36.374  1.00  0.00     0.064 C 
ATOM     12  H3  UNL     1      41.854  33.983  35.271  1.00  0.00     0.186 HD
ENDBRANCH   1   8
TORSDOF 3
ENDMDL
MODEL 4
REMARK VINA RESULT: -4.188353426      1.989      4.461
REMARK  3 active torsions:
REMARK  status: ('A' for Active; 'I' for Inactive)
REMARK    1  A    between atoms: N1_2  and  C2_4 
REMARK    2  A    between atoms: C2_4  and  N2_6 
REMARK    3  A    between atoms: N2_6  and  N3_8 
ROOT
HETATM    1  N2  UNL     1      44.321  34.867  36.037  1.00  0.00    -0.277 N 
ATOM      2  H2  UNL     1      45.209  34.370  35.970  1.00  0.00     0.189 HD
ENDROOT
BRANCH   1   3
HETATM    3  C2  UNL     1      43.919  35.340  37.300  1.00  0.00     0.186 C 
HETATM    4  S1  UNL     1      44.831  35.023  38.601  1.00  0.00    -0.040 SA
BRANCH   3   5
HETATM    5  N1  UNL     1      42.737  36.084  37.445  1.00  0.00    -0.370 N 
HETATM    6  C1  UNL     1      42.077  36.293  38.706  1.00  0.00     0.148 C 
ATOM      7  H1  UNL     1      42.324  36.500  36.610  1.00  0.00     0.161 HD
ENDBRANCH   3   5
ENDBRANCH   1   3
BRANCH   1   8
HETATM    8  N3  UNL     1      43.573  35.040  34.870  1.00  0.00    -0.307 N 
HETATM    9  C3  UNL     1      43.255  34.095  34.076  1.00  0.00    -0.004 C 
HETATM   10  C4  UNL     1      43.632  32.668  34.273  1.00  0.00     0.064 C 
HETATM   11  C5  UNL     1      42.452  34.446  32.870  1.00  0.00     0.064 C 
ATOM     12  H3  UNL     1      43.262  35.983  34.637  1.00  0.00     0.186 HD
ENDBRANCH   1   8
TORSDOF 3
ENDMDL
MODEL 5
REMARK VINA RESULT: -4.036853651      2.186      2.908
REMARK  3 active torsions:
REMARK  status: ('A' for Active; 'I' for Inactive)
REMARK    1  A    between atoms: N1_2  and  C2_4 
REMARK    2  A    between atoms: C2_4  and  N2_6 
REMARK    3  A    between atoms: N2_6  and  N3_8 
ROOT
HETATM    1  N2  UNL     1      41.901  34.161  33.593  1.00  0.00    -0.277 N 
ATOM      2  H2  UNL     1      41.288  34.835  33.134  1.00  0.00     0.189 HD
ENDROOT
BRANCH   1   3
HETATM    3  C2  UNL     1      42.218  32.976  32.905  1.00  0.00     0.186 C 
HETATM    4  S1  UNL     1      42.269  32.979  31.285  1.00  0.00    -0.040 SA
BRANCH   3   5
HETATM    5  N1  UNL     1      42.491  31.789  33.605  1.00  0.00    -0.370 N 
HETATM    6  C1  UNL     1      43.675  30.998  33.400  1.00  0.00     0.148 C 
ATOM      7  H1  UNL     1      41.813  31.472  34.298  1.00  0.00     0.161 HD
ENDBRANCH   3   5
ENDBRANCH   1   3
BRANCH   1   8
HETATM    8  N3  UNL     1      42.378  34.468  34.870  1.00  0.00    -0.307 N 
HETATM    9  C3  UNL     1      43.570  34.848  35.117  1.00  0.00    -0.004 C 
HETATM   10  C4  UNL     1      44.629  35.020  34.086  1.00  0.00     0.064 C 
HETATM   11  C5  UNL     1      43.921  35.138  36.537  1.00  0.00     0.064 C 
ATOM     12  H3  UNL     1      41.731  34.384  35.654  1.00  0.00     0.186 HD
ENDBRANCH   1   8
TORSDOF 3
ENDMDL
