MODEL 1
REMARK VINA RESULT: -5.212333545      0.000      0.000
REMARK  1 active torsions:
REMARK  status: ('A' for Active; 'I' for Inactive)
REMARK       I    between atoms: C1_4  and  N3_6 
REMARK    1  A    between atoms: N3_6  and  N4_8 
ROOT
HETATM    1  N4  UNL     1      44.048  34.079  35.241  1.00  0.00    -0.279 N 
ATOM      2  H4  UNL     1      44.209  33.390  35.975  1.00  0.00     0.189 HD
HETATM    3  C2  UNL     1      43.723  33.658  34.073  1.00  0.00     0.157 C 
HETATM    4  C3  UNL     1      43.600  32.192  33.863  1.00  0.00     0.253 C 
HETATM    5  O1  UNL     1      43.724  31.961  32.504  1.00  0.00    -0.381 OA
HETATM    6  C4  UNL     1      42.624  32.489  31.840  1.00  0.00     0.195 C 
HETATM    7  C5  UNL     1      42.475  33.974  32.061  1.00  0.00     0.203 C 
HETATM    8  O2  UNL     1      43.470  34.464  32.973  1.00  0.00    -0.334 OA
ENDROOT
BRANCH   1   9
HETATM    9  N3  UNL     1      44.194  35.427  35.560  1.00  0.00    -0.272 N 
HETATM   10  C1  UNL     1      44.262  35.882  36.896  1.00  0.00     0.200 C 
HETATM   11  N1  UNL     1      43.295  36.597  37.354  1.00  0.00    -0.372 N 
HETATM   12  N2  UNL     1      45.354  35.570  37.726  1.00  0.00    -0.062 NA
ATOM     13  H12 UNL     1      43.343  36.924  38.318  1.00  0.00     0.158 HD
ATOM     14  H11 UNL     1      42.503  36.822  36.752  1.00  0.00     0.158 HD
ATOM     15  H3  UNL     1      44.253  36.110  34.804  1.00  0.00     0.189 HD
ENDBRANCH   1   9
TORSDOF 1
ENDMDL
MODEL 2
REMARK VINA RESULT: -5.021364761      1.217      1.872
REMARK  1 active torsions:
REMARK  status: ('A' for Active; 'I' for Inactive)
REMARK       I    between atoms: C1_4  and  N3_6 
REMARK    1  A    between atoms: N3_6  and  N4_8 
ROOT
HETATM    1  N4  UNL     1      43.854  35.304  34.991  1.00  0.00    -0.279 N 
ATOM      2  H4  UNL     1      43.678  36.209  34.554  1.00  0.00     0.189 HD
HETATM    3  C2  UNL     1      43.547  34.244  34.338  1.00  0.00     0.157 C 
HETATM    4  C3  UNL     1      42.952  34.401  32.984  1.00  0.00     0.253 C 
HETATM    5  O1  UNL     1      42.284  33.224  32.692  1.00  0.00    -0.381 OA
HETATM    6  C4  UNL     1      43.201  32.193  32.539  1.00  0.00     0.195 C 
HETATM    7  C5  UNL     1      44.035  31.974  33.777  1.00  0.00     0.203 C 
HETATM    8  O2  UNL     1      43.724  32.945  34.789  1.00  0.00    -0.334 OA
ENDROOT
BRANCH   1   9
HETATM    9  N3  UNL     1      44.417  35.286  36.265  1.00  0.00    -0.272 N 
HETATM   10  C1  UNL     1      43.994  36.164  37.288  1.00  0.00     0.200 C 
HETATM   11  N1  UNL     1      44.809  37.069  37.701  1.00  0.00    -0.372 N 
HETATM   12  N2  UNL     1      42.710  36.069  37.857  1.00  0.00    -0.062 NA
ATOM     13  H12 UNL     1      44.504  37.703  38.439  1.00  0.00     0.158 HD
ATOM     14  H11 UNL     1      45.740  37.138  37.289  1.00  0.00     0.158 HD
ATOM     15  H3  UNL     1      45.161  34.617  36.467  1.00  0.00     0.189 HD
ENDBRANCH   1   9
TORSDOF 1
ENDMDL
MODEL 3
REMARK VINA RESULT: -4.792933593      1.139      1.873
REMARK  1 active torsions:
REMARK  status: ('A' for Active; 'I' for Inactive)
REMARK       I    between atoms: C1_4  and  N3_6 
REMARK    1  A    between atoms: N3_6  and  N4_8 
ROOT
HETATM    1  N4  UNL     1      43.472  35.103  34.605  1.00  0.00    -0.279 N 
ATOM      2  H4  UNL     1      43.708  36.013  34.209  1.00  0.00     0.189 HD
HETATM    3  C2  UNL     1      43.079  34.177  33.809  1.00  0.00     0.157 C 
HETATM    4  C3  UNL     1      42.993  34.488  32.357  1.00  0.00     0.253 C 
HETATM    5  O1  UNL     1      42.131  33.565  31.791  1.00  0.00    -0.381 OA
HETATM    6  C4  UNL     1      42.707  32.302  31.832  1.00  0.00     0.195 C 
HETATM    7  C5  UNL     1      43.027  31.858  33.238  1.00  0.00     0.203 C 
HETATM    8  O2  UNL     1      42.724  32.892  34.188  1.00  0.00    -0.334 OA
ENDROOT
BRANCH   1   9
HETATM    9  N3  UNL     1      43.592  34.933  35.983  1.00  0.00    -0.272 N 
HETATM   10  C1  UNL     1      44.340  35.820  36.788  1.00  0.00     0.200 C 
HETATM   11  N1  UNL     1      45.418  35.390  37.344  1.00  0.00    -0.372 N 
HETATM   12  N2  UNL     1      43.935  37.153  36.991  1.00  0.00    -0.062 NA
ATOM     13  H12 UNL     1      45.958  36.030  37.925  1.00  0.00     0.158 HD
ATOM     14  H11 UNL     1      45.712  34.424  37.197  1.00  0.00     0.158 HD
ATOM     15  H3  UNL     1      43.125  34.141  36.425  1.00  0.00     0.189 HD
ENDBRANCH   1   9
TORSDOF 1
ENDMDL
MODEL 4
REMARK VINA RESULT: -4.727904201      2.883      5.561
REMARK  1 active torsions:
REMARK  status: ('A' for Active; 'I' for Inactive)
REMARK       I    between atoms: C1_4  and  N3_6 
REMARK    1  A    between atoms: N3_6  and  N4_8 
ROOT
HETATM    1  N4  UNL     1      44.193  35.996  35.447  1.00  0.00    -0.279 N 
ATOM      2  H4  UNL     1      43.591  36.709  35.036  1.00  0.00     0.189 HD
HETATM    3  C2  UNL     1      44.456  36.071  36.700  1.00  0.00     0.157 C 
HETATM    4  C3  UNL     1      43.865  37.194  37.475  1.00  0.00     0.253 C 
HETATM    5  O1  UNL     1      44.632  37.351  38.617  1.00  0.00    -0.381 OA
HETATM    6  C4  UNL     1      44.469  36.248  39.444  1.00  0.00     0.195 C 
HETATM    7  C5  UNL     1      44.870  34.958  38.773  1.00  0.00     0.203 C 
HETATM    8  O2  UNL     1      45.252  35.183  37.407  1.00  0.00    -0.334 OA
ENDROOT
BRANCH   1   9
HETATM    9  N3  UNL     1      44.687  34.992  34.616  1.00  0.00    -0.272 N 
HETATM   10  C1  UNL     1      43.836  34.099  33.927  1.00  0.00     0.200 C 
HETATM   11  N1  UNL     1      43.841  32.857  34.264  1.00  0.00    -0.372 N 
HETATM   12  N2  UNL     1      42.992  34.538  32.890  1.00  0.00    -0.062 NA
ATOM     13  H12 UNL     1      43.227  32.213  33.767  1.00  0.00     0.158 HD
ATOM     14  H11 UNL     1      44.454  32.540  35.016  1.00  0.00     0.158 HD
ATOM     15  H3  UNL     1      45.696  34.897  34.503  1.00  0.00     0.189 HD
ENDBRANCH   1   9
TORSDOF 1
ENDMDL
MODEL 5
REMARK VINA RESULT: -4.679685571      3.421      5.681
REMARK  1 active torsions:
REMARK  status: ('A' for Active; 'I' for Inactive)
REMARK       I    between atoms: C1_4  and  N3_6 
REMARK    1  A    between atoms: N3_6  and  N4_8 
ROOT
HETATM    1  N4  UNL     1      44.647  35.717  37.173  1.00  0.00    -0.279 N 
ATOM      2  H4  UNL     1      45.588  35.387  37.386  1.00  0.00     0.189 HD
HETATM    3  C2  UNL     1      43.799  35.797  38.132  1.00  0.00     0.157 C 
HETATM    4  C3  UNL     1      44.241  35.401  39.495  1.00  0.00     0.253 C 
HETATM    5  O1  UNL     1      43.102  35.110  40.227  1.00  0.00    -0.381 OA
HETATM    6  C4  UNL     1      42.371  36.272  40.434  1.00  0.00     0.195 C 
HETATM    7  C5  UNL     1      41.954  36.930  39.142  1.00  0.00     0.203 C 
HETATM    8  O2  UNL     1      42.487  36.227  38.008  1.00  0.00    -0.334 OA
ENDROOT
BRANCH   1   9
HETATM    9  N3  UNL     1      44.351  36.059  35.855  1.00  0.00    -0.272 N 
HETATM   10  C1  UNL     1      44.070  35.087  34.870  1.00  0.00     0.200 C 
HETATM   11  N1  UNL     1      44.906  34.926  33.905  1.00  0.00    -0.372 N 
HETATM   12  N2  UNL     1      42.906  34.298  34.923  1.00  0.00    -0.062 NA
ATOM     13  H12 UNL     1      44.704  34.223  33.194  1.00  0.00     0.158 HD
ATOM     14  H11 UNL     1      45.750  35.497  33.866  1.00  0.00     0.158 HD
ATOM     15  H3  UNL     1      44.338  37.045  35.592  1.00  0.00     0.189 HD
ENDBRANCH   1   9
TORSDOF 1
ENDMDL
