MODEL 1
REMARK VINA RESULT: -5.338397433      0.000      0.000
REMARK  2 active torsions:
REMARK  status: ('A' for Active; 'I' for Inactive)
REMARK    1  A    between atoms: C1_4  and  C2_6 
REMARK    2  A    between atoms: N5_13  and  O1_14 
ROOT
HETATM    1  C2  UNL     1      43.582  33.835  33.717  1.00  0.00     0.120 A 
HETATM    2  C3  UNL     1      42.947  34.203  32.555  1.00  0.00     0.123 A 
HETATM    3  N3  UNL     1      42.519  33.285  31.639  1.00  0.00    -0.370 N 
ATOM      4  H3  UNL     1      42.048  33.563  30.779  1.00  0.00     0.164 HD
HETATM    5  C4  UNL     1      42.754  31.996  31.934  1.00  0.00     0.135 A 
HETATM    6  C5  UNL     1      43.388  31.617  33.093  1.00  0.00     0.160 A 
HETATM    7  N4  UNL     1      43.619  30.255  33.371  1.00  0.00    -0.079 NA
HETATM    8  N5  UNL     1      43.801  32.529  33.980  1.00  0.00    -0.205 N 
ENDROOT
BRANCH   1   9
HETATM    9  C1  UNL     1      44.051  34.794  34.714  1.00  0.00     0.140 C 
HETATM   10  N1  UNL     1      45.155  35.438  34.590  1.00  0.00    -0.386 N 
ATOM     11  H12 UNL     1      45.482  36.108  35.286  1.00  0.00     0.157 HD
ATOM     12  H11 UNL     1      45.735  35.278  33.766  1.00  0.00     0.157 HD
HETATM   13  N2  UNL     1      43.232  35.021  35.880  1.00  0.00    -0.081 NA
ENDBRANCH   1   9
BRANCH   8  14
HETATM   14  O1  UNL     1      44.447  32.125  35.157  1.00  0.00    -0.281 OA
ATOM     15  H1  UNL     1      44.367  31.235  35.481  1.00  0.00     0.245 HD
ENDBRANCH   8  14
TORSDOF 2
ENDMDL
MODEL 2
REMARK VINA RESULT: -5.315474300      1.545      2.307
REMARK  2 active torsions:
REMARK  status: ('A' for Active; 'I' for Inactive)
REMARK    1  A    between atoms: C1_4  and  C2_6 
REMARK    2  A    between atoms: N5_13  and  O1_14 
ROOT
HETATM    1  C2  UNL     1      43.765  33.518  34.143  1.00  0.00     0.120 A 
HETATM    2  C3  UNL     1      43.949  32.248  34.635  1.00  0.00     0.123 A 
HETATM    3  N3  UNL     1      43.582  31.136  33.933  1.00  0.00    -0.370 N 
ATOM      4  H3  UNL     1      43.722  30.196  34.302  1.00  0.00     0.164 HD
HETATM    5  C4  UNL     1      43.026  31.350  32.729  1.00  0.00     0.135 A 
HETATM    6  C5  UNL     1      42.836  32.615  32.228  1.00  0.00     0.160 A 
HETATM    7  N4  UNL     1      42.249  32.802  30.961  1.00  0.00    -0.079 NA
HETATM    8  N5  UNL     1      43.202  33.694  32.928  1.00  0.00    -0.205 N 
ENDROOT
BRANCH   1   9
HETATM    9  C1  UNL     1      44.147  34.725  34.871  1.00  0.00     0.140 C 
HETATM   10  N1  UNL     1      45.174  35.429  34.555  1.00  0.00    -0.386 N 
ATOM     11  H12 UNL     1      45.441  36.271  35.064  1.00  0.00     0.157 HD
ATOM     12  H11 UNL     1      45.752  35.139  33.766  1.00  0.00     0.157 HD
HETATM   13  N2  UNL     1      43.331  35.135  35.988  1.00  0.00    -0.081 NA
ENDBRANCH   1   9
BRANCH   8  14
HETATM   14  O1  UNL     1      43.001  34.978  32.402  1.00  0.00    -0.281 OA
ATOM     15  H1  UNL     1      43.339  35.216  31.546  1.00  0.00     0.245 HD
ENDBRANCH   8  14
TORSDOF 2
ENDMDL
MODEL 3
REMARK VINA RESULT: -4.649485676      4.787      6.897
REMARK  2 active torsions:
REMARK  status: ('A' for Active; 'I' for Inactive)
REMARK    1  A    between atoms: C1_4  and  C2_6 
REMARK    2  A    between atoms: N5_13  and  O1_14 
ROOT
HETATM    1  C2  UNL     1      43.869  35.668  38.547  1.00  0.00     0.120 A 
HETATM    2  C3  UNL     1      44.890  34.962  39.139  1.00  0.00     0.123 A 
HETATM    3  N3  UNL     1      44.825  34.541  40.435  1.00  0.00    -0.370 N 
ATOM      4  H3  UNL     1      45.585  34.017  40.869  1.00  0.00     0.164 HD
HETATM    5  C4  UNL     1      43.706  34.854  41.108  1.00  0.00     0.135 A 
HETATM    6  C5  UNL     1      42.680  35.559  40.526  1.00  0.00     0.160 A 
HETATM    7  N4  UNL     1      41.519  35.871  41.262  1.00  0.00    -0.079 NA
HETATM    8  N5  UNL     1      42.759  35.965  39.255  1.00  0.00    -0.205 N 
ENDROOT
BRANCH   1   9
HETATM    9  C1  UNL     1      43.911  36.132  37.162  1.00  0.00     0.140 C 
HETATM   10  N1  UNL     1      43.803  35.335  36.161  1.00  0.00    -0.386 N 
ATOM     11  H12 UNL     1      43.832  35.659  35.195  1.00  0.00     0.157 HD
ATOM     12  H11 UNL     1      43.685  34.336  36.331  1.00  0.00     0.157 HD
HETATM   13  N2  UNL     1      44.078  37.545  36.922  1.00  0.00    -0.081 NA
ENDBRANCH   1   9
BRANCH   8  14
HETATM   14  O1  UNL     1      41.702  36.684  38.677  1.00  0.00    -0.281 OA
ATOM     15  H1  UNL     1      40.953  36.957  39.195  1.00  0.00     0.245 HD
ENDBRANCH   8  14
TORSDOF 2
ENDMDL
MODEL 4
REMARK VINA RESULT: -4.387311732      0.869      3.596
REMARK  2 active torsions:
REMARK  status: ('A' for Active; 'I' for Inactive)
REMARK    1  A    between atoms: C1_4  and  C2_6 
REMARK    2  A    between atoms: N5_13  and  O1_14 
ROOT
HETATM    1  C2  UNL     1      43.089  32.105  32.961  1.00  0.00     0.120 A 
HETATM    2  C3  UNL     1      42.542  32.631  31.814  1.00  0.00     0.123 A 
HETATM    3  N3  UNL     1      42.409  33.976  31.624  1.00  0.00    -0.370 N 
ATOM      4  H3  UNL     1      42.003  34.361  30.771  1.00  0.00     0.164 HD
HETATM    5  C4  UNL     1      42.841  34.764  32.621  1.00  0.00     0.135 A 
HETATM    6  C5  UNL     1      43.389  34.249  33.772  1.00  0.00     0.160 A 
HETATM    7  N4  UNL     1      43.833  35.106  34.799  1.00  0.00    -0.079 NA
HETATM    8  N5  UNL     1      43.512  32.929  33.942  1.00  0.00    -0.205 N 
ENDROOT
BRANCH   1   9
HETATM    9  C1  UNL     1      43.243  30.671  33.192  1.00  0.00     0.140 C 
HETATM   10  N1  UNL     1      42.245  29.864  33.228  1.00  0.00    -0.386 N 
ATOM     11  H12 UNL     1      42.352  28.863  33.389  1.00  0.00     0.157 HD
ATOM     12  H11 UNL     1      41.303  30.231  33.093  1.00  0.00     0.157 HD
HETATM   13  N2  UNL     1      44.575  30.151  33.384  1.00  0.00    -0.081 NA
ENDBRANCH   1   9
BRANCH   8  14
HETATM   14  O1  UNL     1      44.073  32.420  35.123  1.00  0.00    -0.281 OA
ATOM     15  H1  UNL     1      44.083  31.485  35.298  1.00  0.00     0.245 HD
ENDBRANCH   8  14
TORSDOF 2
ENDMDL
MODEL 5
REMARK VINA RESULT: -4.338972164      6.407      7.779
REMARK  2 active torsions:
REMARK  status: ('A' for Active; 'I' for Inactive)
REMARK    1  A    between atoms: C1_4  and  C2_6 
REMARK    2  A    between atoms: N5_13  and  O1_14 
ROOT
HETATM    1  C2  UNL     1      43.743  38.335  38.522  1.00  0.00     0.120 A 
HETATM    2  C3  UNL     1      43.369  37.303  37.694  1.00  0.00     0.123 A 
HETATM    3  N3  UNL     1      42.478  36.345  38.084  1.00  0.00    -0.370 N 
ATOM      4  H3  UNL     1      42.203  35.582  37.465  1.00  0.00     0.164 HD
HETATM    5  C4  UNL     1      41.983  36.463  39.327  1.00  0.00     0.135 A 
HETATM    6  C5  UNL     1      42.350  37.490  40.163  1.00  0.00     0.160 A 
HETATM    7  N4  UNL     1      41.811  37.583  41.461  1.00  0.00    -0.079 NA
HETATM    8  N5  UNL     1      43.224  38.420  39.765  1.00  0.00    -0.205 N 
ENDROOT
BRANCH   1   9
HETATM    9  C1  UNL     1      44.694  39.373  38.132  1.00  0.00     0.140 C 
HETATM   10  N1  UNL     1      44.452  40.217  37.195  1.00  0.00    -0.386 N 
ATOM     11  H12 UNL     1      45.115  40.942  36.923  1.00  0.00     0.157 HD
ATOM     12  H11 UNL     1      43.563  40.167  36.697  1.00  0.00     0.157 HD
HETATM   13  N2  UNL     1      45.951  39.444  38.836  1.00  0.00    -0.081 NA
ENDBRANCH   1   9
BRANCH   8  14
HETATM   14  O1  UNL     1      43.588  39.462  40.632  1.00  0.00    -0.281 OA
ATOM     15  H1  UNL     1      44.331  39.375  41.218  1.00  0.00     0.245 HD
ENDBRANCH   8  14
TORSDOF 2
ENDMDL
