MODEL 1
REMARK VINA RESULT: -6.868708198      0.000      0.000
REMARK  2 active torsions:
REMARK  status: ('A' for Active; 'I' for Inactive)
REMARK    1  A    between atoms: C3_4  and  C4_5 
REMARK    2  A    between atoms: C5_9  and  N3_10 
ROOT
HETATM    1  N1  UNL     1      43.731  34.765  35.337  1.00  0.00    -0.191 NA
HETATM    2  C1  UNL     1      43.422  34.206  34.360  1.00  0.00     0.107 C 
HETATM    3  C2  UNL     1      43.027  33.547  33.148  1.00  0.00     0.143 A 
HETATM    4  C3  UNL     1      43.339  32.235  32.899  1.00  0.00     0.113 A 
HETATM    5  N2  UNL     1      42.955  31.620  31.739  1.00  0.00    -0.187 N 
ATOM      6  H2  UNL     1      43.194  30.644  31.566  1.00  0.00     0.184 HD
HETATM    7  C5  UNL     1      42.261  32.321  30.834  1.00  0.00     0.679 A 
HETATM    8  N4  UNL     1      41.952  33.603  31.068  1.00  0.00    -0.155 N 
ATOM      9  H4  UNL     1      41.422  34.110  30.359  1.00  0.00     0.187 HD
HETATM   10  C6  UNL     1      42.299  34.249  32.178  1.00  0.00     0.282 A 
HETATM   11  O2  UNL     1      42.028  35.441  32.426  1.00  0.00    -0.266 OA
ENDROOT
BRANCH   4  12
HETATM   12  C4  UNL     1      44.096  31.462  33.884  1.00  0.00     0.290 C 
HETATM   13  O1  UNL     1      43.635  30.482  34.473  1.00  0.00    -0.300 OA
ENDBRANCH   4  12
BRANCH   7  14
HETATM   14  N3  UNL     1      41.896  31.750  29.739  1.00  0.00    -0.234 N 
ATOM     15  H32 UNL     1      41.981  32.238  28.847  1.00  0.00     0.174 HD
ATOM     16  H31 UNL     1      41.520  30.802  29.772  1.00  0.00     0.174 HD
ENDBRANCH   7  14
TORSDOF 2
ENDMDL
MODEL 2
REMARK VINA RESULT: -5.843195607      0.953      3.535
REMARK  2 active torsions:
REMARK  status: ('A' for Active; 'I' for Inactive)
REMARK    1  A    between atoms: C3_4  and  C4_5 
REMARK    2  A    between atoms: C5_9  and  N3_10 
ROOT
HETATM    1  N1  UNL     1      42.056  32.088  30.316  1.00  0.00    -0.191 NA
HETATM    2  C1  UNL     1      42.430  32.542  31.323  1.00  0.00     0.107 C 
HETATM    3  C2  UNL     1      42.875  33.130  32.555  1.00  0.00     0.143 A 
HETATM    4  C3  UNL     1      43.652  32.440  33.450  1.00  0.00     0.113 A 
HETATM    5  N2  UNL     1      44.068  33.014  34.620  1.00  0.00    -0.187 N 
ATOM      6  H2  UNL     1      44.645  32.490  35.278  1.00  0.00     0.184 HD
HETATM    7  C5  UNL     1      43.706  34.275  34.888  1.00  0.00     0.679 A 
HETATM    8  N4  UNL     1      42.949  34.956  34.019  1.00  0.00    -0.155 N 
ATOM      9  H4  UNL     1      42.690  35.915  34.251  1.00  0.00     0.187 HD
HETATM   10  C6  UNL     1      42.516  34.447  32.868  1.00  0.00     0.282 A 
HETATM   11  O2  UNL     1      41.809  35.054  32.038  1.00  0.00    -0.266 OA
ENDROOT
BRANCH   4  12
HETATM   12  C4  UNL     1      44.052  31.062  33.165  1.00  0.00     0.290 C 
HETATM   13  O1  UNL     1      43.705  30.102  33.855  1.00  0.00    -0.300 OA
ENDBRANCH   4  12
BRANCH   7  14
HETATM   14  N3  UNL     1      44.094  34.822  35.986  1.00  0.00    -0.234 N 
ATOM     15  H32 UNL     1      44.275  35.826  36.029  1.00  0.00     0.174 HD
ATOM     16  H31 UNL     1      44.221  34.243  36.816  1.00  0.00     0.174 HD
ENDBRANCH   7  14
TORSDOF 2
ENDMDL
MODEL 3
REMARK VINA RESULT: -4.947884197      5.969      7.493
REMARK  2 active torsions:
REMARK  status: ('A' for Active; 'I' for Inactive)
REMARK    1  A    between atoms: C3_4  and  C4_5 
REMARK    2  A    between atoms: C5_9  and  N3_10 
ROOT
HETATM    1  N1  UNL     1      43.244  39.201  41.207  1.00  0.00    -0.191 NA
HETATM    2  C1  UNL     1      43.403  38.568  40.240  1.00  0.00     0.107 C 
HETATM    3  C2  UNL     1      43.610  37.816  39.035  1.00  0.00     0.143 A 
HETATM    4  C3  UNL     1      43.298  36.483  38.947  1.00  0.00     0.113 A 
HETATM    5  N2  UNL     1      43.502  35.780  37.791  1.00  0.00    -0.187 N 
ATOM      6  H2  UNL     1      43.265  34.789  37.738  1.00  0.00     0.184 HD
HETATM    7  C5  UNL     1      44.015  36.414  36.729  1.00  0.00     0.679 A 
HETATM    8  N4  UNL     1      44.323  37.715  36.806  1.00  0.00    -0.155 N 
ATOM      9  H4  UNL     1      44.712  38.170  35.980  1.00  0.00     0.187 HD
HETATM   10  C6  UNL     1      44.146  38.446  37.904  1.00  0.00     0.282 A 
HETATM   11  O2  UNL     1      44.422  39.658  38.008  1.00  0.00    -0.266 OA
ENDROOT
BRANCH   4  12
HETATM   12  C4  UNL     1      42.736  35.784  40.101  1.00  0.00     0.290 C 
HETATM   13  O1  UNL     1      41.568  35.921  40.471  1.00  0.00    -0.300 OA
ENDBRANCH   4  12
BRANCH   7  14
HETATM   14  N3  UNL     1      44.209  35.759  35.637  1.00  0.00    -0.234 N 
ATOM     15  H32 UNL     1      43.572  35.011  35.362  1.00  0.00     0.174 HD
ATOM     16  H31 UNL     1      45.008  35.996  35.049  1.00  0.00     0.174 HD
ENDBRANCH   7  14
TORSDOF 2
ENDMDL
MODEL 4
REMARK VINA RESULT: -4.921110340      5.770      7.781
REMARK  2 active torsions:
REMARK  status: ('A' for Active; 'I' for Inactive)
REMARK    1  A    between atoms: C3_4  and  C4_5 
REMARK    2  A    between atoms: C5_9  and  N3_10 
ROOT
HETATM    1  N1  UNL     1      42.919  38.844  41.184  1.00  0.00    -0.191 NA
HETATM    2  C1  UNL     1      43.171  38.310  40.178  1.00  0.00     0.107 C 
HETATM    3  C2  UNL     1      43.466  37.625  38.952  1.00  0.00     0.143 A 
HETATM    4  C3  UNL     1      44.093  38.249  37.903  1.00  0.00     0.113 A 
HETATM    5  N2  UNL     1      44.368  37.582  36.741  1.00  0.00    -0.187 N 
ATOM      6  H2  UNL     1      44.834  38.057  35.968  1.00  0.00     0.184 HD
HETATM    7  C5  UNL     1      44.016  36.295  36.634  1.00  0.00     0.679 A 
HETATM    8  N4  UNL     1      43.404  35.677  37.653  1.00  0.00    -0.155 N 
ATOM      9  H4  UNL     1      43.149  34.696  37.541  1.00  0.00     0.187 HD
HETATM   10  C6  UNL     1      43.113  36.277  38.804  1.00  0.00     0.282 A 
HETATM   11  O2  UNL     1      42.544  35.732  39.771  1.00  0.00    -0.266 OA
ENDROOT
BRANCH   4  12
HETATM   12  C4  UNL     1      44.481  39.654  38.013  1.00  0.00     0.290 C 
HETATM   13  O1  UNL     1      44.762  40.355  37.038  1.00  0.00    -0.300 OA
ENDBRANCH   4  12
BRANCH   7  14
HETATM   14  N3  UNL     1      44.272  35.660  35.543  1.00  0.00    -0.234 N 
ATOM     15  H32 UNL     1      43.749  34.818  35.300  1.00  0.00     0.174 HD
ATOM     16  H31 UNL     1      45.004  36.007  34.924  1.00  0.00     0.174 HD
ENDBRANCH   7  14
TORSDOF 2
ENDMDL
MODEL 5
REMARK VINA RESULT: -4.774005808      5.629      7.451
REMARK  2 active torsions:
REMARK  status: ('A' for Active; 'I' for Inactive)
REMARK    1  A    between atoms: C3_4  and  C4_5 
REMARK    2  A    between atoms: C5_9  and  N3_10 
ROOT
HETATM    1  N1  UNL     1      47.449  35.016  38.765  1.00  0.00    -0.191 NA
HETATM    2  C1  UNL     1      46.324  35.325  38.761  1.00  0.00     0.107 C 
HETATM    3  C2  UNL     1      44.941  35.707  38.791  1.00  0.00     0.143 A 
HETATM    4  C3  UNL     1      44.187  35.796  37.649  1.00  0.00     0.113 A 
HETATM    5  N2  UNL     1      42.869  36.162  37.693  1.00  0.00    -0.187 N 
ATOM      6  H2  UNL     1      42.319  36.224  36.836  1.00  0.00     0.184 HD
HETATM    7  C5  UNL     1      42.313  36.436  38.879  1.00  0.00     0.679 A 
HETATM    8  N4  UNL     1      43.041  36.352  40.000  1.00  0.00    -0.155 N 
ATOM      9  H4  UNL     1      42.589  36.567  40.889  1.00  0.00     0.187 HD
HETATM   10  C6  UNL     1      44.325  36.002  40.015  1.00  0.00     0.282 A 
HETATM   11  O2  UNL     1      45.031  35.915  41.039  1.00  0.00    -0.266 OA
ENDROOT
BRANCH   4  12
HETATM   12  C4  UNL     1      44.786  35.497  36.349  1.00  0.00     0.290 C 
HETATM   13  O1  UNL     1      44.123  35.265  35.336  1.00  0.00    -0.300 OA
ENDBRANCH   4  12
BRANCH   7  14
HETATM   14  N3  UNL     1      41.073  36.781  38.930  1.00  0.00    -0.234 N 
ATOM     15  H32 UNL     1      40.808  37.766  38.902  1.00  0.00     0.174 HD
ATOM     16  H31 UNL     1      40.357  36.059  38.999  1.00  0.00     0.174 HD
ENDBRANCH   7  14
TORSDOF 2
ENDMDL
