MODEL 1
REMARK VINA RESULT: -5.364653756      0.000      0.000
REMARK  3 active torsions:
REMARK  status: ('A' for Active; 'I' for Inactive)
REMARK    1  A    between atoms: N2_4  and  O2_5 
REMARK    2  A    between atoms: C3_8  and  S1_9 
REMARK    3  A    between atoms: S1_9  and  O3_10 
ROOT
HETATM    1  N1  UNL     1      44.096  33.858  35.202  1.00  0.00    -0.071 NA
HETATM    2  C1  UNL     1      43.659  32.828  34.324  1.00  0.00     0.203 A 
HETATM    3  O1  UNL     1      43.815  31.552  34.588  1.00  0.00    -0.194 OA
HETATM    4  N2  UNL     1      43.317  30.845  33.604  1.00  0.00    -0.130 N 
HETATM    5  C2  UNL     1      42.818  31.673  32.664  1.00  0.00     0.176 A 
HETATM    6  C3  UNL     1      43.026  32.967  33.102  1.00  0.00     0.098 A 
ENDROOT
BRANCH   6   7
HETATM    7  S1  UNL     1      42.625  34.473  32.374  1.00  0.00     0.031 SA
BRANCH   7   8
HETATM    8  O3  UNL     1      41.019  34.711  32.122  1.00  0.00    -0.325 OA
ATOM      9  H3  UNL     1      40.767  35.616  31.984  1.00  0.00     0.228 HD
ENDBRANCH   7   8
ENDBRANCH   6   7
BRANCH   4  10
HETATM   10  O2  UNL     1      43.299  29.472  33.527  1.00  0.00    -0.263 OA
ATOM     11  H2  UNL     1      43.722  28.946  32.859  1.00  0.00     0.247 HD
ENDBRANCH   4  10
TORSDOF 3
ENDMDL
MODEL 2
REMARK VINA RESULT: -5.198338120      2.194      2.499
REMARK  3 active torsions:
REMARK  status: ('A' for Active; 'I' for Inactive)
REMARK    1  A    between atoms: N2_4  and  O2_5 
REMARK    2  A    between atoms: C3_8  and  S1_9 
REMARK    3  A    between atoms: S1_9  and  O3_10 
ROOT
HETATM    1  N1  UNL     1      42.566  33.882  31.748  1.00  0.00    -0.071 NA
HETATM    2  C1  UNL     1      42.955  32.867  32.666  1.00  0.00     0.203 A 
HETATM    3  O1  UNL     1      42.857  31.587  32.398  1.00  0.00    -0.194 OA
HETATM    4  N2  UNL     1      43.288  30.897  33.425  1.00  0.00    -0.130 N 
HETATM    5  C2  UNL     1      43.682  31.742  34.398  1.00  0.00     0.176 A 
HETATM    6  C3  UNL     1      43.478  33.028  33.936  1.00  0.00     0.098 A 
ENDROOT
BRANCH   6   7
HETATM    7  S1  UNL     1      43.773  34.548  34.687  1.00  0.00     0.031 SA
BRANCH   7   8
HETATM    8  O3  UNL     1      45.138  35.311  34.183  1.00  0.00    -0.325 OA
ATOM      9  H3  UNL     1      45.399  35.114  33.290  1.00  0.00     0.228 HD
ENDBRANCH   7   8
ENDBRANCH   6   7
BRANCH   4  10
HETATM   10  O2  UNL     1      43.337  29.526  33.512  1.00  0.00    -0.263 OA
ATOM     11  H2  UNL     1      43.977  29.021  33.999  1.00  0.00     0.247 HD
ENDBRANCH   4  10
TORSDOF 3
ENDMDL
MODEL 3
REMARK VINA RESULT: -5.095775717      2.422      3.067
REMARK  3 active torsions:
REMARK  status: ('A' for Active; 'I' for Inactive)
REMARK    1  A    between atoms: N2_4  and  O2_5 
REMARK    2  A    between atoms: C3_8  and  S1_9 
REMARK    3  A    between atoms: S1_9  and  O3_10 
ROOT
HETATM    1  N1  UNL     1      43.998  31.413  34.389  1.00  0.00    -0.071 NA
HETATM    2  C1  UNL     1      43.442  32.308  33.434  1.00  0.00     0.203 A 
HETATM    3  O1  UNL     1      42.999  31.918  32.262  1.00  0.00    -0.194 OA
HETATM    4  N2  UNL     1      42.548  32.956  31.603  1.00  0.00    -0.130 N 
HETATM    5  C2  UNL     1      42.695  34.064  32.357  1.00  0.00     0.176 A 
HETATM    6  C3  UNL     1      43.274  33.676  33.551  1.00  0.00     0.098 A 
ENDROOT
BRANCH   6   7
HETATM    7  S1  UNL     1      43.720  34.602  34.931  1.00  0.00     0.031 SA
BRANCH   7   8
HETATM    8  O3  UNL     1      45.017  35.587  34.710  1.00  0.00    -0.325 OA
ATOM      9  H3  UNL     1      45.741  35.192  34.238  1.00  0.00     0.228 HD
ENDBRANCH   7   8
ENDBRANCH   6   7
BRANCH   4  10
HETATM   10  O2  UNL     1      42.006  32.936  30.340  1.00  0.00    -0.263 OA
ATOM     11  H2  UNL     1      42.390  33.324  29.563  1.00  0.00     0.247 HD
ENDBRANCH   4  10
TORSDOF 3
ENDMDL
MODEL 4
REMARK VINA RESULT: -4.950382392      2.352      3.723
REMARK  3 active torsions:
REMARK  status: ('A' for Active; 'I' for Inactive)
REMARK    1  A    between atoms: N2_4  and  O2_5 
REMARK    2  A    between atoms: C3_8  and  S1_9 
REMARK    3  A    between atoms: S1_9  and  O3_10 
ROOT
HETATM    1  N1  UNL     1      43.100  34.328  33.643  1.00  0.00    -0.071 NA
HETATM    2  C1  UNL     1      42.811  33.469  32.546  1.00  0.00     0.203 A 
HETATM    3  O1  UNL     1      42.350  33.907  31.399  1.00  0.00    -0.194 OA
HETATM    4  N2  UNL     1      42.182  32.893  30.586  1.00  0.00    -0.130 N 
HETATM    5  C2  UNL     1      42.541  31.753  31.212  1.00  0.00     0.176 A 
HETATM    6  C3  UNL     1      42.954  32.095  32.485  1.00  0.00     0.098 A 
ENDROOT
BRANCH   6   7
HETATM    7  S1  UNL     1      43.532  31.114  33.775  1.00  0.00     0.031 SA
BRANCH   7   8
HETATM    8  O3  UNL     1      43.271  29.503  33.586  1.00  0.00    -0.325 OA
ATOM      9  H3  UNL     1      42.402  29.208  33.832  1.00  0.00     0.228 HD
ENDBRANCH   7   8
ENDBRANCH   6   7
BRANCH   4  10
HETATM   10  O2  UNL     1      41.713  32.962  29.296  1.00  0.00    -0.263 OA
ATOM     11  H2  UNL     1      40.833  32.747  29.010  1.00  0.00     0.247 HD
ENDBRANCH   4  10
TORSDOF 3
ENDMDL
MODEL 5
REMARK VINA RESULT: -4.824792283      2.011      3.107
REMARK  3 active torsions:
REMARK  status: ('A' for Active; 'I' for Inactive)
REMARK    1  A    between atoms: N2_4  and  O2_5 
REMARK    2  A    between atoms: C3_8  and  S1_9 
REMARK    3  A    between atoms: S1_9  and  O3_10 
ROOT
HETATM    1  N1  UNL     1      44.084  31.045  32.763  1.00  0.00    -0.071 NA
HETATM    2  C1  UNL     1      43.772  32.337  33.270  1.00  0.00     0.203 A 
HETATM    3  O1  UNL     1      44.201  32.771  34.431  1.00  0.00    -0.194 OA
HETATM    4  N2  UNL     1      43.758  33.988  34.628  1.00  0.00    -0.130 N 
HETATM    5  C2  UNL     1      43.015  34.371  33.569  1.00  0.00     0.176 A 
HETATM    6  C3  UNL     1      43.005  33.320  32.671  1.00  0.00     0.098 A 
ENDROOT
BRANCH   6   7
HETATM    7  S1  UNL     1      42.247  33.168  31.134  1.00  0.00     0.031 SA
BRANCH   7   8
HETATM    8  O3  UNL     1      42.307  31.661  30.483  1.00  0.00    -0.325 OA
ATOM      9  H3  UNL     1      41.826  31.559  29.670  1.00  0.00     0.228 HD
ENDBRANCH   7   8
ENDBRANCH   6   7
BRANCH   4  10
HETATM   10  O2  UNL     1      44.002  34.766  35.734  1.00  0.00    -0.263 OA
ATOM     11  H2  UNL     1      43.344  35.135  36.312  1.00  0.00     0.247 HD
ENDBRANCH   4  10
TORSDOF 3
ENDMDL
