MODEL 1
REMARK VINA RESULT: -6.323937454      0.000      0.000
REMARK  8 active torsions:
REMARK  status: ('A' for Active; 'I' for Inactive)
REMARK    1  A    between atoms: C1_2  and  O1_3 
REMARK    2  A    between atoms: C1_2  and  N2_5 
REMARK    3  A    between atoms: N2_5  and  N3_6 
REMARK    4  A    between atoms: N3_6  and  C2_8 
REMARK    5  A    between atoms: C2_8  and  N4_10 
REMARK    6  A    between atoms: N4_10  and  N5_12 
REMARK    7  A    between atoms: N5_12  and  S2_14 
REMARK    8  A    between atoms: S2_14  and  N6_15 
ROOT
HETATM    1  N4  UNL     1      27.573  47.483  -4.101  1.00  0.00    -0.264 N 
ATOM      2  H4  UNL     1      26.689  47.207  -4.530  1.00  0.00     0.190 HD
ENDROOT
BRANCH   1   3
HETATM    3  C2  UNL     1      28.753  46.696  -4.327  1.00  0.00     0.216 C 
HETATM    4  S1  UNL     1      28.937  46.009  -5.791  1.00  0.00    -0.037 SA
BRANCH   3   5
HETATM    5  N3  UNL     1      29.730  46.482  -3.322  1.00  0.00    -0.204 N 
ATOM      6  H3  UNL     1      30.720  46.462  -3.569  1.00  0.00     0.204 HD
BRANCH   5   7
HETATM    7  N2  UNL     1      29.334  46.296  -1.977  1.00  0.00    -0.281 NA
BRANCH   7   8
HETATM    8  C1  UNL     1      28.952  46.138  -0.731  1.00  0.00     0.327 C 
HETATM    9  N1  UNL     1      29.358  46.805   0.451  1.00  0.00    -0.040 NA
BRANCH   8  10
HETATM   10  O1  UNL     1      28.041  45.193  -0.485  1.00  0.00    -0.323 OA
ATOM     11  H1  UNL     1      28.220  44.393  -0.965  1.00  0.00     0.221 HD
ENDBRANCH   8  10
ENDBRANCH   7   8
ENDBRANCH   5   7
ENDBRANCH   3   5
ENDBRANCH   1   3
BRANCH   1  12
HETATM   12  N5  UNL     1      27.629  48.612  -3.305  1.00  0.00    -0.208 N 
ATOM     13  H5  UNL     1      28.278  49.382  -3.471  1.00  0.00     0.201 HD
BRANCH  12  14
HETATM   14  S2  UNL     1      26.510  48.591  -2.018  1.00  0.00     0.330 S 
HETATM   15  O2  UNL     1      26.012  47.231  -1.719  1.00  0.00    -0.181 OA
HETATM   16  O3  UNL     1      25.390  49.577  -2.347  1.00  0.00    -0.181 OA
BRANCH  14  17
HETATM   17  N6  UNL     1      27.334  49.163  -0.580  1.00  0.00    -0.310 N 
ATOM     18  H62 UNL     1      27.902  50.008  -0.522  1.00  0.00     0.170 HD
ATOM     19  H61 UNL     1      27.143  48.502   0.173  1.00  0.00     0.170 HD
ENDBRANCH  14  17
ENDBRANCH  12  14
ENDBRANCH   1  12
TORSDOF 8
ENDMDL
MODEL 2
REMARK VINA RESULT: -6.169198127      2.059      2.285
REMARK  8 active torsions:
REMARK  status: ('A' for Active; 'I' for Inactive)
REMARK    1  A    between atoms: C1_2  and  O1_3 
REMARK    2  A    between atoms: C1_2  and  N2_5 
REMARK    3  A    between atoms: N2_5  and  N3_6 
REMARK    4  A    between atoms: N3_6  and  C2_8 
REMARK    5  A    between atoms: C2_8  and  N4_10 
REMARK    6  A    between atoms: N4_10  and  N5_12 
REMARK    7  A    between atoms: N5_12  and  S2_14 
REMARK    8  A    between atoms: S2_14  and  N6_15 
ROOT
HETATM    1  N4  UNL     1      27.468  47.363  -4.089  1.00  0.00    -0.264 N 
ATOM      2  H4  UNL     1      26.620  47.013  -4.535  1.00  0.00     0.190 HD
ENDROOT
BRANCH   1   3
HETATM    3  C2  UNL     1      28.667  46.573  -4.115  1.00  0.00     0.216 C 
HETATM    4  S1  UNL     1      28.997  45.738  -5.472  1.00  0.00    -0.037 SA
BRANCH   3   5
HETATM    5  N3  UNL     1      29.542  46.479  -3.002  1.00  0.00    -0.204 N 
ATOM      6  H3  UNL     1      29.587  45.615  -2.460  1.00  0.00     0.204 HD
BRANCH   5   7
HETATM    7  N2  UNL     1      30.350  47.582  -2.641  1.00  0.00    -0.281 NA
BRANCH   7   8
HETATM    8  C1  UNL     1      31.105  48.609  -2.325  1.00  0.00     0.327 C 
HETATM    9  N1  UNL     1      32.297  49.094  -2.916  1.00  0.00    -0.040 NA
BRANCH   8  10
HETATM   10  O1  UNL     1      30.735  49.339  -1.270  1.00  0.00    -0.323 OA
ATOM     11  H1  UNL     1      29.795  49.320  -1.136  1.00  0.00     0.221 HD
ENDBRANCH   8  10
ENDBRANCH   7   8
ENDBRANCH   5   7
ENDBRANCH   3   5
ENDBRANCH   1   3
BRANCH   1  12
HETATM   12  N5  UNL     1      27.458  48.595  -3.462  1.00  0.00    -0.208 N 
ATOM     13  H5  UNL     1      27.881  49.432  -3.865  1.00  0.00     0.201 HD
BRANCH  12  14
HETATM   14  S2  UNL     1      26.669  48.581  -1.950  1.00  0.00     0.330 S 
HETATM   15  O2  UNL     1      26.030  47.280  -1.655  1.00  0.00    -0.181 OA
HETATM   16  O3  UNL     1      25.685  49.749  -1.916  1.00  0.00    -0.181 OA
BRANCH  14  17
HETATM   17  N6  UNL     1      27.879  48.850  -0.710  1.00  0.00    -0.310 N 
ATOM     18  H62 UNL     1      28.766  48.351  -0.634  1.00  0.00     0.170 HD
ATOM     19  H61 UNL     1      27.535  49.584  -0.091  1.00  0.00     0.170 HD
ENDBRANCH  14  17
ENDBRANCH  12  14
ENDBRANCH   1  12
TORSDOF 8
ENDMDL
MODEL 3
REMARK VINA RESULT: -6.075952346      2.539      3.292
REMARK  8 active torsions:
REMARK  status: ('A' for Active; 'I' for Inactive)
REMARK    1  A    between atoms: C1_2  and  O1_3 
REMARK    2  A    between atoms: C1_2  and  N2_5 
REMARK    3  A    between atoms: N2_5  and  N3_6 
REMARK    4  A    between atoms: N3_6  and  C2_8 
REMARK    5  A    between atoms: C2_8  and  N4_10 
REMARK    6  A    between atoms: N4_10  and  N5_12 
REMARK    7  A    between atoms: N5_12  and  S2_14 
REMARK    8  A    between atoms: S2_14  and  N6_15 
ROOT
HETATM    1  N4  UNL     1      28.386  45.834  -3.435  1.00  0.00    -0.264 N 
ATOM      2  H4  UNL     1      27.620  45.179  -3.595  1.00  0.00     0.190 HD
ENDROOT
BRANCH   1   3
HETATM    3  C2  UNL     1      28.853  46.665  -4.509  1.00  0.00     0.216 C 
HETATM    4  S1  UNL     1      29.035  45.980  -5.974  1.00  0.00    -0.037 SA
BRANCH   3   5
HETATM    5  N3  UNL     1      29.180  48.033  -4.328  1.00  0.00    -0.204 N 
ATOM      6  H3  UNL     1      28.662  48.753  -4.831  1.00  0.00     0.204 HD
BRANCH   5   7
HETATM    7  N2  UNL     1      30.226  48.401  -3.449  1.00  0.00    -0.281 NA
BRANCH   7   8
HETATM    8  C1  UNL     1      31.190  48.728  -2.620  1.00  0.00     0.327 C 
HETATM    9  N1  UNL     1      32.595  48.590  -2.738  1.00  0.00    -0.040 NA
BRANCH   8  10
HETATM   10  O1  UNL     1      30.836  49.270  -1.453  1.00  0.00    -0.323 OA
ATOM     11  H1  UNL     1      30.641  48.610  -0.798  1.00  0.00     0.221 HD
ENDBRANCH   8  10
ENDBRANCH   7   8
ENDBRANCH   5   7
ENDBRANCH   3   5
ENDBRANCH   1   3
BRANCH   1  12
HETATM   12  N5  UNL     1      28.972  45.917  -2.185  1.00  0.00    -0.208 N 
ATOM     13  H5  UNL     1      29.926  45.613  -1.992  1.00  0.00     0.201 HD
BRANCH  12  14
HETATM   14  S2  UNL     1      27.941  46.578  -0.997  1.00  0.00     0.330 S 
HETATM   15  O2  UNL     1      28.342  47.943  -0.591  1.00  0.00    -0.181 OA
HETATM   16  O3  UNL     1      27.882  45.602   0.177  1.00  0.00    -0.181 OA
BRANCH  14  17
HETATM   17  N6  UNL     1      26.334  46.700  -1.687  1.00  0.00    -0.310 N 
ATOM     18  H62 UNL     1      25.592  47.311  -1.347  1.00  0.00     0.170 HD
ATOM     19  H61 UNL     1      26.284  46.058  -2.478  1.00  0.00     0.170 HD
ENDBRANCH  14  17
ENDBRANCH  12  14
ENDBRANCH   1  12
TORSDOF 8
ENDMDL
MODEL 4
REMARK VINA RESULT: -5.994653005      3.648      5.048
REMARK  8 active torsions:
REMARK  status: ('A' for Active; 'I' for Inactive)
REMARK    1  A    between atoms: C1_2  and  O1_3 
REMARK    2  A    between atoms: C1_2  and  N2_5 
REMARK    3  A    between atoms: N2_5  and  N3_6 
REMARK    4  A    between atoms: N3_6  and  C2_8 
REMARK    5  A    between atoms: C2_8  and  N4_10 
REMARK    6  A    between atoms: N4_10  and  N5_12 
REMARK    7  A    between atoms: N5_12  and  S2_14 
REMARK    8  A    between atoms: S2_14  and  N6_15 
ROOT
HETATM    1  N4  UNL     1      28.918  45.188  -4.981  1.00  0.00    -0.264 N 
ATOM      2  H4  UNL     1      28.121  44.553  -5.042  1.00  0.00     0.190 HD
ENDROOT
BRANCH   1   3
HETATM    3  C2  UNL     1      28.783  46.440  -4.291  1.00  0.00     0.216 C 
HETATM    4  S1  UNL     1      29.822  47.633  -4.673  1.00  0.00    -0.037 SA
BRANCH   3   5
HETATM    5  N3  UNL     1      27.807  46.653  -3.283  1.00  0.00    -0.204 N 
ATOM      6  H3  UNL     1      26.879  46.993  -3.536  1.00  0.00     0.204 HD
BRANCH   5   7
HETATM    7  N2  UNL     1      28.120  46.396  -1.928  1.00  0.00    -0.281 NA
BRANCH   7   8
HETATM    8  C1  UNL     1      28.405  46.137  -0.673  1.00  0.00     0.327 C 
HETATM    9  N1  UNL     1      29.322  46.757   0.212  1.00  0.00    -0.040 NA
BRANCH   8  10
HETATM   10  O1  UNL     1      27.760  45.121  -0.096  1.00  0.00    -0.323 OA
ATOM     11  H1  UNL     1      27.054  44.792  -0.639  1.00  0.00     0.221 HD
ENDBRANCH   8  10
ENDBRANCH   7   8
ENDBRANCH   5   7
ENDBRANCH   3   5
ENDBRANCH   1   3
BRANCH   1  12
HETATM   12  N5  UNL     1      30.122  44.839  -5.564  1.00  0.00    -0.208 N 
ATOM     13  H5  UNL     1      31.027  45.156  -5.213  1.00  0.00     0.201 HD
BRANCH  12  14
HETATM   14  S2  UNL     1      29.949  43.826  -6.925  1.00  0.00     0.330 S 
HETATM   15  O2  UNL     1      31.246  43.331  -7.434  1.00  0.00    -0.181 OA
HETATM   16  O3  UNL     1      29.144  44.581  -7.980  1.00  0.00    -0.181 OA
BRANCH  14  17
HETATM   17  N6  UNL     1      29.022  42.420  -6.434  1.00  0.00    -0.310 N 
ATOM     18  H62 UNL     1      29.047  41.992  -5.508  1.00  0.00     0.170 HD
ATOM     19  H61 UNL     1      28.466  42.118  -7.233  1.00  0.00     0.170 HD
ENDBRANCH  14  17
ENDBRANCH  12  14
ENDBRANCH   1  12
TORSDOF 8
ENDMDL
MODEL 5
REMARK VINA RESULT: -5.989918187      2.319      2.961
REMARK  8 active torsions:
REMARK  status: ('A' for Active; 'I' for Inactive)
REMARK    1  A    between atoms: C1_2  and  O1_3 
REMARK    2  A    between atoms: C1_2  and  N2_5 
REMARK    3  A    between atoms: N2_5  and  N3_6 
REMARK    4  A    between atoms: N3_6  and  C2_8 
REMARK    5  A    between atoms: C2_8  and  N4_10 
REMARK    6  A    between atoms: N4_10  and  N5_12 
REMARK    7  A    between atoms: N5_12  and  S2_14 
REMARK    8  A    between atoms: S2_14  and  N6_15 
ROOT
HETATM    1  N4  UNL     1      28.234  45.821  -3.375  1.00  0.00    -0.264 N 
ATOM      2  H4  UNL     1      27.469  45.172  -3.559  1.00  0.00     0.190 HD
ENDROOT
BRANCH   1   3
HETATM    3  C2  UNL     1      28.797  46.585  -4.453  1.00  0.00     0.216 C 
HETATM    4  S1  UNL     1      29.060  45.823  -5.867  1.00  0.00    -0.037 SA
BRANCH   3   5
HETATM    5  N3  UNL     1      29.149  47.953  -4.315  1.00  0.00    -0.204 N 
ATOM      6  H3  UNL     1      28.641  48.666  -4.840  1.00  0.00     0.204 HD
BRANCH   5   7
HETATM    7  N2  UNL     1      30.203  48.329  -3.451  1.00  0.00    -0.281 NA
BRANCH   7   8
HETATM    8  C1  UNL     1      31.196  48.675  -2.664  1.00  0.00     0.327 C 
HETATM    9  N1  UNL     1      32.594  48.506  -2.813  1.00  0.00    -0.040 NA
BRANCH   8  10
HETATM   10  O1  UNL     1      30.883  49.275  -1.513  1.00  0.00    -0.323 OA
ATOM     11  H1  UNL     1      31.619  49.299  -0.913  1.00  0.00     0.221 HD
ENDBRANCH   8  10
ENDBRANCH   7   8
ENDBRANCH   5   7
ENDBRANCH   3   5
ENDBRANCH   1   3
BRANCH   1  12
HETATM   12  N5  UNL     1      28.725  45.962  -2.090  1.00  0.00    -0.208 N 
ATOM     13  H5  UNL     1      29.640  45.618  -1.800  1.00  0.00     0.201 HD
BRANCH  12  14
HETATM   14  S2  UNL     1      27.650  46.767  -1.038  1.00  0.00     0.330 S 
HETATM   15  O2  UNL     1      27.748  46.282   0.355  1.00  0.00    -0.181 OA
HETATM   16  O3  UNL     1      26.241  46.644  -1.614  1.00  0.00    -0.181 OA
BRANCH  14  17
HETATM   17  N6  UNL     1      28.086  48.465  -1.021  1.00  0.00    -0.310 N 
ATOM     18  H62 UNL     1      27.651  49.179  -0.436  1.00  0.00     0.170 HD
ATOM     19  H61 UNL     1      28.841  48.601  -1.693  1.00  0.00     0.170 HD
ENDBRANCH  14  17
ENDBRANCH  12  14
ENDBRANCH   1  12
TORSDOF 8
ENDMDL
