MODEL 1
REMARK VINA RESULT: -8.625981608      0.000      0.000
REMARK  10 active torsions:
REMARK  status: ('A' for Active; 'I' for Inactive)
REMARK    1  A    between atoms: N2_5  and  C4_6 
REMARK    2  A    between atoms: C4_6  and  C5_7 
REMARK    3  A    between atoms: N3_8  and  C6_10 
REMARK    4  A    between atoms: C7_13  and  N5_14 
REMARK    5  A    between atoms: C9_16  and  C10_17 
REMARK    6  A    between atoms: C10_17  and  C11_18 
REMARK    7  A    between atoms: C11_18  and  N6_19 
REMARK    8  A    between atoms: N6_19  and  C12_21 
REMARK    9  A    between atoms: C20_39  and  O1_40 
REMARK   10  A    between atoms: C21_42  and  O2_43 
ROOT
HETATM    1  C6  UNL     1      46.086  25.365 -28.237  1.00  0.00     0.136 A 
HETATM    2  N4  UNL     1      45.226  24.289 -28.223  1.00  0.00    -0.325 N 
ATOM      3  H4  UNL     1      44.310  24.391 -28.662  1.00  0.00     0.169 HD
HETATM    4  C7  UNL     1      45.538  23.107 -27.656  1.00  0.00     0.130 A 
HETATM    5  C15 UNL     1      46.763  22.944 -27.049  1.00  0.00     0.067 A 
HETATM    6  C16 UNL     1      47.621  23.983 -27.056  1.00  0.00     0.030 A 
HETATM    7  C17 UNL     1      48.948  24.010 -26.575  1.00  0.00     0.085 A 
HETATM    8  C18 UNL     1      49.609  23.074 -25.742  1.00  0.00     0.066 C 
HETATM    9  N11 UNL     1      49.215  22.818 -24.393  1.00  0.00    -0.387 N 
ATOM     10  H11 UNL     1      48.318  22.953 -23.926  1.00  0.00     0.159 HD
HETATM   11  C19 UNL     1      50.507  22.294 -23.878  1.00  0.00     0.154 C 
HETATM   12  C20 UNL     1      51.058  21.426 -25.019  1.00  0.00     0.170 C 
HETATM   13  C21 UNL     1      50.188  21.796 -26.204  1.00  0.00     0.200 C 
HETATM   14  N12 UNL     1      49.363  25.245 -26.910  1.00  0.00    -0.297 N 
ATOM     15  H12 UNL     1      50.298  25.599 -26.708  1.00  0.00     0.187 HD
HETATM   16  N13 UNL     1      48.433  25.952 -27.528  1.00  0.00    -0.296 N 
ATOM     17  H13 UNL     1      48.534  26.909 -27.868  1.00  0.00     0.187 HD
HETATM   18  C22 UNL     1      47.339  25.196 -27.630  1.00  0.00     0.104 A 
ENDROOT
BRANCH   4  19
HETATM   19  N5  UNL     1      44.645  22.004 -27.741  1.00  0.00    -0.235 N 
HETATM   20  C8  UNL     1      43.422  21.919 -28.266  1.00  0.00     0.146 A 
HETATM   21  C9  UNL     1      42.912  20.622 -28.057  1.00  0.00     0.046 A 
HETATM   22  N9  UNL     1      43.902  20.011 -27.402  1.00  0.00    -0.289 N 
HETATM   23  N10 UNL     1      44.921  20.805 -27.212  1.00  0.00    -0.235 N 
ATOM     24  H9  UNL     1      43.867  19.041 -27.088  1.00  0.00     0.188 HD
ATOM     25  H10 UNL     1      45.787  20.554 -26.738  1.00  0.00     0.209 HD
BRANCH  21  26
HETATM   26  C10 UNL     1      41.600  20.136 -28.496  1.00  0.00     0.080 C 
BRANCH  26  27
HETATM   27  C11 UNL     1      40.556  21.221 -28.559  1.00  0.00     0.128 C 
BRANCH  27  28
HETATM   28  N6  UNL     1      39.341  20.674 -29.113  1.00  0.00    -0.362 N 
ATOM     29  H6  UNL     1      38.469  20.853 -28.614  1.00  0.00     0.162 HD
BRANCH  28  30
HETATM   30  C12 UNL     1      39.272  19.907 -30.297  1.00  0.00     0.171 C 
HETATM   31  N7  UNL     1      39.651  20.402 -31.454  1.00  0.00    -0.361 N 
HETATM   32  C13 UNL     1      39.487  19.439 -32.508  1.00  0.00     0.142 C 
ATOM     33  H7  UNL     1      40.013  21.345 -31.587  1.00  0.00     0.162 HD
HETATM   34  C14 UNL     1      39.463  18.103 -31.730  1.00  0.00     0.142 C 
HETATM   35  N8  UNL     1      38.829  18.580 -30.501  1.00  0.00    -0.361 N 
ATOM     36  H8  UNL     1      38.188  18.055 -29.905  1.00  0.00     0.162 HD
ENDBRANCH  28  30
ENDBRANCH  27  28
ENDBRANCH  26  27
ENDBRANCH  21  26
ENDBRANCH   4  19
BRANCH   1  37
HETATM   37  N3  UNL     1      45.720  26.429 -28.720  1.00  0.00    -0.352 N 
HETATM   38  C5  UNL     1      45.237  27.292 -29.611  1.00  0.00     0.082 C 
ATOM     39  H3  UNL     1      45.903  27.058 -27.938  1.00  0.00     0.166 HD
BRANCH  38  40
HETATM   40  C4  UNL     1      43.742  27.132 -29.936  1.00  0.00     0.161 C 
BRANCH  40  41
HETATM   41  N2  UNL     1      43.542  26.134 -30.937  1.00  0.00    -0.405 N 
HETATM   42  C3  UNL     1      42.844  24.971 -30.536  1.00  0.00     0.147 C 
HETATM   43  C2  UNL     1      42.658  24.070 -31.747  1.00  0.00     0.291 C 
HETATM   44  N1  UNL     1      43.949  23.529 -32.093  1.00  0.00     0.087 N 
HETATM   45  C1  UNL     1      43.970  22.806 -33.321  1.00  0.00     0.310 C 
HETATM   46  C24 UNL     1      45.031  24.426 -31.882  1.00  0.00     0.291 C 
HETATM   47  C23 UNL     1      44.630  25.873 -31.808  1.00  0.00     0.147 C 
ENDBRANCH  40  41
ENDBRANCH  38  40
ENDBRANCH   1  37
BRANCH  13  48
HETATM   48  O2  UNL     1      50.906  21.783 -27.350  1.00  0.00    -0.387 OA
ATOM     49  H2  UNL     1      50.803  21.050 -27.947  1.00  0.00     0.210 HD
ENDBRANCH  13  48
BRANCH  12  50
HETATM   50  O1  UNL     1      50.930  20.085 -24.676  1.00  0.00    -0.391 OA
ATOM     51  H1  UNL     1      51.775  19.659 -24.759  1.00  0.00     0.210 HD
ENDBRANCH  12  50
TORSDOF 10
ENDMDL
MODEL 2
REMARK VINA RESULT: -8.438637840      2.791      6.629
REMARK  10 active torsions:
REMARK  status: ('A' for Active; 'I' for Inactive)
REMARK    1  A    between atoms: N2_5  and  C4_6 
REMARK    2  A    between atoms: C4_6  and  C5_7 
REMARK    3  A    between atoms: N3_8  and  C6_10 
REMARK    4  A    between atoms: C7_13  and  N5_14 
REMARK    5  A    between atoms: C9_16  and  C10_17 
REMARK    6  A    between atoms: C10_17  and  C11_18 
REMARK    7  A    between atoms: C11_18  and  N6_19 
REMARK    8  A    between atoms: N6_19  and  C12_21 
REMARK    9  A    between atoms: C20_39  and  O1_40 
REMARK   10  A    between atoms: C21_42  and  O2_43 
ROOT
HETATM    1  C6  UNL     1      46.219  21.675 -26.284  1.00  0.00     0.136 A 
HETATM    2  N4  UNL     1      45.034  21.147 -26.748  1.00  0.00    -0.325 N 
ATOM      3  H4  UNL     1      44.717  20.254 -26.368  1.00  0.00     0.169 HD
HETATM    4  C7  UNL     1      44.276  21.754 -27.681  1.00  0.00     0.130 A 
HETATM    5  C15 UNL     1      44.684  22.955 -28.217  1.00  0.00     0.067 A 
HETATM    6  C16 UNL     1      45.837  23.491 -27.773  1.00  0.00     0.030 A 
HETATM    7  C17 UNL     1      46.396  24.741 -28.117  1.00  0.00     0.085 A 
HETATM    8  C18 UNL     1      46.048  25.607 -29.183  1.00  0.00     0.066 C 
HETATM    9  N11 UNL     1      46.209  25.252 -30.557  1.00  0.00    -0.387 N 
ATOM     10  H11 UNL     1      46.259  24.338 -31.006  1.00  0.00     0.159 HD
HETATM   11  C19 UNL     1      46.281  26.621 -31.133  1.00  0.00     0.154 C 
HETATM   12  C20 UNL     1      45.238  27.430 -30.348  1.00  0.00     0.170 C 
HETATM   13  C21 UNL     1      44.897  26.533 -29.174  1.00  0.00     0.200 C 
HETATM   14  N12 UNL     1      47.484  24.810 -27.328  1.00  0.00    -0.297 N 
ATOM     15  H12 UNL     1      48.126  25.603 -27.321  1.00  0.00     0.187 HD
HETATM   16  N13 UNL     1      47.635  23.742 -26.564  1.00  0.00    -0.296 N 
ATOM     17  H13 UNL     1      48.389  23.586 -25.894  1.00  0.00     0.187 HD
HETATM   18  C22 UNL     1      46.630  22.904 -26.820  1.00  0.00     0.104 A 
ENDROOT
BRANCH   4  19
HETATM   19  N5  UNL     1      43.021  21.205 -28.065  1.00  0.00    -0.235 N 
HETATM   20  C8  UNL     1      42.025  21.735 -28.774  1.00  0.00     0.146 A 
HETATM   21  C9  UNL     1      40.958  20.817 -28.843  1.00  0.00     0.046 A 
HETATM   22  N9  UNL     1      41.414  19.772 -28.147  1.00  0.00    -0.289 N 
HETATM   23  N10 UNL     1      42.618  19.984 -27.689  1.00  0.00    -0.235 N 
ATOM     24  H9  UNL     1      40.886  18.914 -27.992  1.00  0.00     0.188 HD
ATOM     25  H10 UNL     1      43.164  19.327 -27.133  1.00  0.00     0.209 HD
BRANCH  21  26
HETATM   26  C10 UNL     1      39.687  21.030 -29.543  1.00  0.00     0.080 C 
BRANCH  26  27
HETATM   27  C11 UNL     1      39.578  20.244 -30.824  1.00  0.00     0.128 C 
BRANCH  27  28
HETATM   28  N6  UNL     1      39.664  21.152 -31.942  1.00  0.00    -0.362 N 
ATOM     29  H6  UNL     1      38.909  21.829 -32.062  1.00  0.00     0.162 HD
BRANCH  28  30
HETATM   30  C12 UNL     1      40.718  21.173 -32.882  1.00  0.00     0.171 C 
HETATM   31  N7  UNL     1      41.401  20.086 -33.166  1.00  0.00    -0.361 N 
HETATM   32  C13 UNL     1      42.418  20.355 -34.145  1.00  0.00     0.142 C 
ATOM     33  H7  UNL     1      41.231  19.173 -32.747  1.00  0.00     0.162 HD
HETATM   34  C14 UNL     1      41.897  21.647 -34.814  1.00  0.00     0.142 C 
HETATM   35  N8  UNL     1      41.235  22.241 -33.651  1.00  0.00    -0.361 N 
ATOM     36  H8  UNL     1      41.161  23.235 -33.436  1.00  0.00     0.162 HD
ENDBRANCH  28  30
ENDBRANCH  27  28
ENDBRANCH  26  27
ENDBRANCH  21  26
ENDBRANCH   4  19
BRANCH   1  37
HETATM   37  N3  UNL     1      46.890  21.046 -25.475  1.00  0.00    -0.352 N 
HETATM   38  C5  UNL     1      47.961  20.607 -24.819  1.00  0.00     0.082 C 
ATOM     39  H3  UNL     1      46.156  20.521 -24.999  1.00  0.00     0.166 HD
BRANCH  38  40
HETATM   40  C4  UNL     1      48.655  21.647 -23.925  1.00  0.00     0.161 C 
BRANCH  40  41
HETATM   41  N2  UNL     1      50.028  21.796 -24.285  1.00  0.00    -0.405 N 
HETATM   42  C3  UNL     1      50.513  23.121 -24.378  1.00  0.00     0.147 C 
HETATM   43  C2  UNL     1      52.002  23.076 -24.689  1.00  0.00     0.291 C 
HETATM   44  N1  UNL     1      52.152  22.616 -26.047  1.00  0.00     0.087 N 
HETATM   45  C1  UNL     1      53.498  22.347 -26.428  1.00  0.00     0.310 C 
HETATM   46  C24 UNL     1      51.190  21.648 -26.443  1.00  0.00     0.291 C 
HETATM   47  C23 UNL     1      50.521  20.937 -25.299  1.00  0.00     0.147 C 
ENDBRANCH  40  41
ENDBRANCH  38  40
ENDBRANCH   1  37
BRANCH  13  48
HETATM   48  O2  UNL     1      44.658  27.266 -28.064  1.00  0.00    -0.387 OA
ATOM     49  H2  UNL     1      44.425  26.816 -27.259  1.00  0.00     0.210 HD
ENDBRANCH  13  48
BRANCH  12  50
HETATM   50  O1  UNL     1      44.136  27.666 -31.162  1.00  0.00    -0.391 OA
ATOM     51  H1  UNL     1      44.184  28.552 -31.503  1.00  0.00     0.210 HD
ENDBRANCH  12  50
TORSDOF 10
ENDMDL
MODEL 3
REMARK VINA RESULT: -8.265830622      2.588      7.332
REMARK  10 active torsions:
REMARK  status: ('A' for Active; 'I' for Inactive)
REMARK    1  A    between atoms: N2_5  and  C4_6 
REMARK    2  A    between atoms: C4_6  and  C5_7 
REMARK    3  A    between atoms: N3_8  and  C6_10 
REMARK    4  A    between atoms: C7_13  and  N5_14 
REMARK    5  A    between atoms: C9_16  and  C10_17 
REMARK    6  A    between atoms: C10_17  and  C11_18 
REMARK    7  A    between atoms: C11_18  and  N6_19 
REMARK    8  A    between atoms: N6_19  and  C12_21 
REMARK    9  A    between atoms: C20_39  and  O1_40 
REMARK   10  A    between atoms: C21_42  and  O2_43 
ROOT
HETATM    1  C6  UNL     1      41.581  21.962 -30.454  1.00  0.00     0.136 A 
HETATM    2  N4  UNL     1      42.072  21.175 -29.435  1.00  0.00    -0.325 N 
ATOM      3  H4  UNL     1      41.643  20.263 -29.274  1.00  0.00     0.169 HD
HETATM    4  C7  UNL     1      43.091  21.556 -28.641  1.00  0.00     0.130 A 
HETATM    5  C15 UNL     1      43.681  22.785 -28.830  1.00  0.00     0.067 A 
HETATM    6  C16 UNL     1      43.220  23.568 -29.824  1.00  0.00     0.030 A 
HETATM    7  C17 UNL     1      43.728  24.815 -30.248  1.00  0.00     0.085 A 
HETATM    8  C18 UNL     1      44.648  25.668 -29.590  1.00  0.00     0.066 C 
HETATM    9  N11 UNL     1      44.364  26.303 -28.342  1.00  0.00    -0.387 N 
ATOM     10  H11 UNL     1      43.710  26.050 -27.602  1.00  0.00     0.159 HD
HETATM   11  C19 UNL     1      45.313  27.442 -28.451  1.00  0.00     0.154 C 
HETATM   12  C20 UNL     1      46.574  26.839 -29.088  1.00  0.00     0.170 C 
HETATM   13  C21 UNL     1      46.113  25.484 -29.585  1.00  0.00     0.200 C 
HETATM   14  N12 UNL     1      42.961  25.103 -31.316  1.00  0.00    -0.297 N 
ATOM     15  H12 UNL     1      43.068  25.951 -31.872  1.00  0.00     0.187 HD
HETATM   16  N13 UNL     1      42.056  24.173 -31.567  1.00  0.00    -0.296 N 
ATOM     17  H13 UNL     1      41.374  24.190 -32.326  1.00  0.00     0.187 HD
HETATM   18  C22 UNL     1      42.190  23.209 -30.656  1.00  0.00     0.104 A 
ENDROOT
BRANCH   4  19
HETATM   19  N5  UNL     1      43.611  20.671 -27.656  1.00  0.00    -0.235 N 
HETATM   20  C8  UNL     1      44.720  20.751 -26.921  1.00  0.00     0.146 A 
HETATM   21  C9  UNL     1      44.836  19.596 -26.120  1.00  0.00     0.046 A 
HETATM   22  N9  UNL     1      43.749  18.892 -26.449  1.00  0.00    -0.289 N 
HETATM   23  N10 UNL     1      43.025  19.509 -27.343  1.00  0.00    -0.235 N 
ATOM     24  H9  UNL     1      43.515  17.984 -26.050  1.00  0.00     0.188 HD
ATOM     25  H10 UNL     1      42.152  19.161 -27.739  1.00  0.00     0.209 HD
BRANCH  21  26
HETATM   26  C10 UNL     1      45.916  19.317 -25.169  1.00  0.00     0.080 C 
BRANCH  26  27
HETATM   27  C11 UNL     1      46.706  20.545 -24.793  1.00  0.00     0.128 C 
BRANCH  27  28
HETATM   28  N6  UNL     1      48.022  20.142 -24.357  1.00  0.00    -0.362 N 
ATOM     29  H6  UNL     1      48.092  19.316 -23.762  1.00  0.00     0.162 HD
BRANCH  28  30
HETATM   30  C12 UNL     1      49.220  20.809 -24.694  1.00  0.00     0.171 C 
HETATM   31  N7  UNL     1      50.311  20.142 -25.000  1.00  0.00    -0.361 N 
HETATM   32  C13 UNL     1      51.395  21.034 -25.304  1.00  0.00     0.142 C 
ATOM     33  H7  UNL     1      50.378  19.125 -25.019  1.00  0.00     0.162 HD
HETATM   34  C14 UNL     1      50.653  22.341 -25.666  1.00  0.00     0.142 C 
HETATM   35  N8  UNL     1      49.504  22.192 -24.772  1.00  0.00    -0.361 N 
ATOM     36  H8  UNL     1      49.004  22.943 -24.296  1.00  0.00     0.162 HD
ENDBRANCH  28  30
ENDBRANCH  27  28
ENDBRANCH  26  27
ENDBRANCH  21  26
ENDBRANCH   4  19
BRANCH   1  37
HETATM   37  N3  UNL     1      40.616  21.581 -31.105  1.00  0.00    -0.352 N 
HETATM   38  C5  UNL     1      39.885  21.230 -32.160  1.00  0.00     0.082 C 
ATOM     39  H3  UNL     1      39.934  21.447 -30.358  1.00  0.00     0.166 HD
BRANCH  38  40
HETATM   40  C4  UNL     1      40.311  19.922 -32.847  1.00  0.00     0.161 C 
BRANCH  40  41
HETATM   41  N2  UNL     1      41.465  20.126 -33.663  1.00  0.00    -0.405 N 
HETATM   42  C3  UNL     1      42.702  19.715 -33.116  1.00  0.00     0.147 C 
HETATM   43  C2  UNL     1      43.793  19.935 -34.153  1.00  0.00     0.291 C 
HETATM   44  N1  UNL     1      43.992  21.357 -34.283  1.00  0.00     0.087 N 
HETATM   45  C1  UNL     1      44.858  21.731 -35.352  1.00  0.00     0.310 C 
HETATM   46  C24 UNL     1      42.805  22.126 -34.150  1.00  0.00     0.291 C 
HETATM   47  C23 UNL     1      41.537  21.350 -34.376  1.00  0.00     0.147 C 
ENDBRANCH  40  41
ENDBRANCH  38  40
ENDBRANCH   1  37
BRANCH  13  48
HETATM   48  O2  UNL     1      46.734  25.159 -30.741  1.00  0.00    -0.387 OA
ATOM     49  H2  UNL     1      46.348  24.492 -31.297  1.00  0.00     0.210 HD
ENDBRANCH  13  48
BRANCH  12  50
HETATM   50  O1  UNL     1      47.567  26.731 -28.120  1.00  0.00    -0.391 OA
ATOM     51  H1  UNL     1      48.015  25.900 -28.225  1.00  0.00     0.210 HD
ENDBRANCH  12  50
TORSDOF 10
ENDMDL
MODEL 4
REMARK VINA RESULT: -8.175740315      2.785      6.769
REMARK  10 active torsions:
REMARK  status: ('A' for Active; 'I' for Inactive)
REMARK    1  A    between atoms: N2_5  and  C4_6 
REMARK    2  A    between atoms: C4_6  and  C5_7 
REMARK    3  A    between atoms: N3_8  and  C6_10 
REMARK    4  A    between atoms: C7_13  and  N5_14 
REMARK    5  A    between atoms: C9_16  and  C10_17 
REMARK    6  A    between atoms: C10_17  and  C11_18 
REMARK    7  A    between atoms: C11_18  and  N6_19 
REMARK    8  A    between atoms: N6_19  and  C12_21 
REMARK    9  A    between atoms: C20_39  and  O1_40 
REMARK   10  A    between atoms: C21_42  and  O2_43 
ROOT
HETATM    1  C6  UNL     1      47.393  22.181 -26.057  1.00  0.00     0.136 A 
HETATM    2  N4  UNL     1      46.288  21.432 -26.397  1.00  0.00    -0.325 N 
ATOM      3  H4  UNL     1      46.153  20.529 -25.942  1.00  0.00     0.169 HD
HETATM    4  C7  UNL     1      45.378  21.837 -27.304  1.00  0.00     0.130 A 
HETATM    5  C15 UNL     1      45.540  23.048 -27.940  1.00  0.00     0.067 A 
HETATM    6  C16 UNL     1      46.611  23.798 -27.618  1.00  0.00     0.030 A 
HETATM    7  C17 UNL     1      46.926  25.096 -28.076  1.00  0.00     0.085 A 
HETATM    8  C18 UNL     1      46.366  25.814 -29.162  1.00  0.00     0.066 C 
HETATM    9  N11 UNL     1      46.496  25.394 -30.521  1.00  0.00    -0.387 N 
ATOM     10  H11 UNL     1      46.672  24.471 -30.917  1.00  0.00     0.159 HD
HETATM   11  C19 UNL     1      46.297  26.711 -31.181  1.00  0.00     0.154 C 
HETATM   12  C20 UNL     1      45.184  27.389 -30.368  1.00  0.00     0.170 C 
HETATM   13  C21 UNL     1      45.078  26.534 -29.121  1.00  0.00     0.200 C 
HETATM   14  N12 UNL     1      48.035  25.400 -27.377  1.00  0.00    -0.297 N 
ATOM     15  H12 UNL     1      48.531  26.287 -27.467  1.00  0.00     0.187 HD
HETATM   16  N13 UNL     1      48.415  24.429 -26.565  1.00  0.00    -0.296 N 
ATOM     17  H13 UNL     1      49.226  24.448 -25.946  1.00  0.00     0.187 HD
HETATM   18  C22 UNL     1      47.552  23.420 -26.695  1.00  0.00     0.104 A 
ENDROOT
BRANCH   4  19
HETATM   19  N5  UNL     1      44.213  21.062 -27.559  1.00  0.00    -0.235 N 
HETATM   20  C8  UNL     1      43.139  21.332 -28.301  1.00  0.00     0.146 A 
HETATM   21  C9  UNL     1      42.219  20.269 -28.196  1.00  0.00     0.046 A 
HETATM   22  N9  UNL     1      42.835  19.417 -27.373  1.00  0.00    -0.289 N 
HETATM   23  N10 UNL     1      44.001  19.866 -26.994  1.00  0.00    -0.235 N 
ATOM     24  H9  UNL     1      42.442  18.524 -27.076  1.00  0.00     0.188 HD
ATOM     25  H10 UNL     1      44.646  19.384 -26.369  1.00  0.00     0.209 HD
BRANCH  21  26
HETATM   26  C10 UNL     1      40.920  20.190 -28.873  1.00  0.00     0.080 C 
BRANCH  26  27
HETATM   27  C11 UNL     1      40.821  21.098 -30.073  1.00  0.00     0.128 C 
BRANCH  27  28
HETATM   28  N6  UNL     1      41.254  20.376 -31.245  1.00  0.00    -0.362 N 
ATOM     29  H6  UNL     1      40.633  19.656 -31.615  1.00  0.00     0.162 HD
BRANCH  28  30
HETATM   30  C12 UNL     1      42.477  20.596 -31.918  1.00  0.00     0.171 C 
HETATM   31  N7  UNL     1      42.792  21.781 -32.392  1.00  0.00    -0.361 N 
HETATM   32  C13 UNL     1      44.077  21.756 -33.034  1.00  0.00     0.142 C 
ATOM     33  H7  UNL     1      42.201  22.608 -32.315  1.00  0.00     0.162 HD
HETATM   34  C14 UNL     1      44.736  20.508 -32.402  1.00  0.00     0.142 C 
HETATM   35  N8  UNL     1      43.530  19.700 -32.213  1.00  0.00    -0.361 N 
ATOM     36  H8  UNL     1      43.463  18.685 -32.281  1.00  0.00     0.162 HD
ENDBRANCH  28  30
ENDBRANCH  27  28
ENDBRANCH  26  27
ENDBRANCH  21  26
ENDBRANCH   4  19
BRANCH   1  37
HETATM   37  N3  UNL     1      48.212  21.731 -25.266  1.00  0.00    -0.352 N 
HETATM   38  C5  UNL     1      49.144  20.927 -24.761  1.00  0.00     0.082 C 
ATOM     39  H3  UNL     1      48.121  22.405 -24.505  1.00  0.00     0.166 HD
BRANCH  38  40
HETATM   40  C4  UNL     1      50.508  20.977 -25.470  1.00  0.00     0.161 C 
BRANCH  40  41
HETATM   41  N2  UNL     1      51.031  22.305 -25.476  1.00  0.00    -0.405 N 
HETATM   42  C3  UNL     1      51.665  22.726 -26.669  1.00  0.00     0.147 C 
HETATM   43  C2  UNL     1      52.080  24.181 -26.515  1.00  0.00     0.291 C 
HETATM   44  N1  UNL     1      53.172  24.227 -25.575  1.00  0.00     0.087 N 
HETATM   45  C1  UNL     1      53.554  25.544 -25.186  1.00  0.00     0.310 C 
HETATM   46  C24 UNL     1      53.077  23.275 -24.525  1.00  0.00     0.291 C 
HETATM   47  C23 UNL     1      51.690  22.740 -24.299  1.00  0.00     0.147 C 
ENDBRANCH  40  41
ENDBRANCH  38  40
ENDBRANCH   1  37
BRANCH  13  48
HETATM   48  O2  UNL     1      44.790  27.295 -28.040  1.00  0.00    -0.387 OA
ATOM     49  H2  UNL     1      44.426  26.875 -27.269  1.00  0.00     0.210 HD
ENDBRANCH  13  48
BRANCH  12  50
HETATM   50  O1  UNL     1      44.007  27.381 -31.109  1.00  0.00    -0.391 OA
ATOM     51  H1  UNL     1      43.272  27.536 -30.528  1.00  0.00     0.210 HD
ENDBRANCH  12  50
TORSDOF 10
ENDMDL
MODEL 5
REMARK VINA RESULT: -8.114378187      2.855      8.233
REMARK  10 active torsions:
REMARK  status: ('A' for Active; 'I' for Inactive)
REMARK    1  A    between atoms: N2_5  and  C4_6 
REMARK    2  A    between atoms: C4_6  and  C5_7 
REMARK    3  A    between atoms: N3_8  and  C6_10 
REMARK    4  A    between atoms: C7_13  and  N5_14 
REMARK    5  A    between atoms: C9_16  and  C10_17 
REMARK    6  A    between atoms: C10_17  and  C11_18 
REMARK    7  A    between atoms: C11_18  and  N6_19 
REMARK    8  A    between atoms: N6_19  and  C12_21 
REMARK    9  A    between atoms: C20_39  and  O1_40 
REMARK   10  A    between atoms: C21_42  and  O2_43 
ROOT
HETATM    1  C6  UNL     1      46.022  21.221 -26.089  1.00  0.00     0.136 A 
HETATM    2  N4  UNL     1      46.204  22.526 -26.492  1.00  0.00    -0.325 N 
ATOM      3  H4  UNL     1      46.988  23.050 -26.104  1.00  0.00     0.169 HD
HETATM    4  C7  UNL     1      45.393  23.141 -27.374  1.00  0.00     0.130 A 
HETATM    5  C15 UNL     1      44.321  22.459 -27.906  1.00  0.00     0.067 A 
HETATM    6  C16 UNL     1      44.128  21.181 -27.529  1.00  0.00     0.030 A 
HETATM    7  C17 UNL     1      43.156  20.276 -28.009  1.00  0.00     0.085 A 
HETATM    8  C18 UNL     1      41.999  20.544 -28.781  1.00  0.00     0.066 C 
HETATM    9  N11 UNL     1      40.908  21.330 -28.300  1.00  0.00    -0.387 N 
ATOM     10  H11 UNL     1      40.873  22.044 -27.572  1.00  0.00     0.159 HD
HETATM   11  C19 UNL     1      39.839  20.792 -29.181  1.00  0.00     0.154 C 
HETATM   12  C20 UNL     1      40.515  20.616 -30.549  1.00  0.00     0.170 C 
HETATM   13  C21 UNL     1      41.992  20.760 -30.241  1.00  0.00     0.200 C 
HETATM   14  N12 UNL     1      43.469  19.134 -27.370  1.00  0.00    -0.297 N 
ATOM     15  H12 UNL     1      42.956  18.261 -27.494  1.00  0.00     0.187 HD
HETATM   16  N13 UNL     1      44.509  19.261 -26.565  1.00  0.00    -0.296 N 
ATOM     17  H13 UNL     1      44.914  18.524 -25.987  1.00  0.00     0.187 HD
HETATM   18  C22 UNL     1      44.938  20.522 -26.640  1.00  0.00     0.104 A 
ENDROOT
BRANCH   4  19
HETATM   19  N5  UNL     1      45.673  24.463 -27.817  1.00  0.00    -0.235 N 
HETATM   20  C8  UNL     1      44.867  25.393 -28.329  1.00  0.00     0.146 A 
HETATM   21  C9  UNL     1      45.625  26.532 -28.672  1.00  0.00     0.046 A 
HETATM   22  N9  UNL     1      46.867  26.182 -28.326  1.00  0.00    -0.289 N 
HETATM   23  N10 UNL     1      46.909  24.978 -27.824  1.00  0.00    -0.235 N 
ATOM     24  H9  UNL     1      47.682  26.784 -28.441  1.00  0.00     0.188 HD
ATOM     25  H10 UNL     1      47.749  24.505 -27.491  1.00  0.00     0.209 HD
BRANCH  21  26
HETATM   26  C10 UNL     1      45.096  27.770 -29.254  1.00  0.00     0.080 C 
BRANCH  26  27
HETATM   27  C11 UNL     1      43.799  27.569 -29.996  1.00  0.00     0.128 C 
BRANCH  27  28
HETATM   28  N6  UNL     1      44.092  27.178 -31.355  1.00  0.00    -0.362 N 
ATOM     29  H6  UNL     1      44.309  27.916 -32.024  1.00  0.00     0.162 HD
BRANCH  28  30
HETATM   30  C12 UNL     1      44.099  25.845 -31.824  1.00  0.00     0.171 C 
HETATM   31  N7  UNL     1      45.121  25.362 -32.493  1.00  0.00    -0.361 N 
HETATM   32  C13 UNL     1      44.897  23.992 -32.864  1.00  0.00     0.142 C 
ATOM     33  H7  UNL     1      45.963  25.891 -32.719  1.00  0.00     0.162 HD
HETATM   34  C14 UNL     1      43.816  23.551 -31.850  1.00  0.00     0.142 C 
HETATM   35  N8  UNL     1      43.122  24.830 -31.704  1.00  0.00    -0.361 N 
ATOM     36  H8  UNL     1      42.123  24.964 -31.546  1.00  0.00     0.162 HD
ENDBRANCH  28  30
ENDBRANCH  27  28
ENDBRANCH  26  27
ENDBRANCH  21  26
ENDBRANCH   4  19
BRANCH   1  37
HETATM   37  N3  UNL     1      46.762  20.738 -25.241  1.00  0.00    -0.352 N 
HETATM   38  C5  UNL     1      47.885  20.442 -24.591  1.00  0.00     0.082 C 
ATOM     39  H3  UNL     1      46.081  20.248 -24.661  1.00  0.00     0.166 HD
BRANCH  38  40
HETATM   40  C4  UNL     1      48.563  21.625 -23.880  1.00  0.00     0.161 C 
BRANCH  40  41
HETATM   41  N2  UNL     1      49.952  21.685 -24.201  1.00  0.00    -0.405 N 
HETATM   42  C3  UNL     1      50.520  22.977 -24.296  1.00  0.00     0.147 C 
HETATM   43  C2  UNL     1      52.012  22.837 -24.561  1.00  0.00     0.291 C 
HETATM   44  N1  UNL     1      52.173  22.350 -25.908  1.00  0.00     0.087 N 
HETATM   45  C1  UNL     1      53.511  21.994 -26.245  1.00  0.00     0.310 C 
HETATM   46  C24 UNL     1      51.166  21.436 -26.321  1.00  0.00     0.291 C 
HETATM   47  C23 UNL     1      50.421  20.784 -25.189  1.00  0.00     0.147 C 
ENDBRANCH  40  41
ENDBRANCH  38  40
ENDBRANCH   1  37
BRANCH  13  48
HETATM   48  O2  UNL     1      42.728  19.941 -31.026  1.00  0.00    -0.387 OA
ATOM     49  H2  UNL     1      43.157  20.304 -31.792  1.00  0.00     0.210 HD
ENDBRANCH  13  48
BRANCH  12  50
HETATM   50  O1  UNL     1      40.062  21.606 -31.414  1.00  0.00    -0.391 OA
ATOM     51  H1  UNL     1      39.795  21.207 -32.234  1.00  0.00     0.210 HD
ENDBRANCH  12  50
TORSDOF 10
ENDMDL
