MODEL 1
REMARK VINA RESULT: -7.677519218      0.000      0.000
REMARK  15 active torsions:
REMARK  status: ('A' for Active; 'I' for Inactive)
REMARK    1  A    between atoms: C4_6  and  N2_7 
REMARK    2  A    between atoms: N3_10  and  C5_11 
REMARK    3  A    between atoms: C5_11  and  C6_12 
REMARK    4  A    between atoms: C5_11  and  C7_19 
REMARK    5  A    between atoms: C6_12  and  N4_13 
REMARK    6  A    between atoms: C6_12  and  O3_17 
REMARK    7  A    between atoms: C7_19  and  O4_20 
REMARK    8  A    between atoms: C7_19  and  C8_22 
REMARK    9  A    between atoms: C8_22  and  C11_36 
REMARK       I    between atoms: N5_23  and  C9_25 
REMARK   10  A    between atoms: N7_27  and  C10_29 
REMARK   11  A    between atoms: C10_29  and  O5_30 
REMARK   12  A    between atoms: N8_32  and  O6_34 
REMARK       I    between atoms: C11_36  and  N9_38 
REMARK   13  A    between atoms: N9_38  and  S1_40 
REMARK   14  A    between atoms: S1_40  and  C12_43 
REMARK   15  A    between atoms: C15_46  and  O10_47 
ROOT
HETATM    1  C8  UNL     1      44.513  23.338 -30.310  1.00  0.00     0.115 C 
HETATM    2  N5  UNL     1      44.965  22.420 -29.607  1.00  0.00    -0.327 N 
ATOM      3  H5  UNL     1      45.905  22.583 -29.247  1.00  0.00     0.168 HD
HETATM    4  C9  UNL     1      44.402  21.212 -29.232  1.00  0.00     0.196 C 
HETATM    5  N6  UNL     1      44.459  20.030 -30.019  1.00  0.00    -0.063 NA
HETATM    6  N7  UNL     1      43.783  21.125 -28.080  1.00  0.00    -0.295 N 
ATOM      7  H7  UNL     1      43.723  21.945 -27.477  1.00  0.00     0.172 HD
ENDROOT
BRANCH   1   8
HETATM    8  C7  UNL     1      45.192  24.578 -30.649  1.00  0.00     0.224 C 
BRANCH   8   9
HETATM    9  C5  UNL     1      45.382  25.693 -29.716  1.00  0.00     0.087 C 
BRANCH   9  10
HETATM   10  N3  UNL     1      46.679  25.852 -29.092  1.00  0.00    -0.281 N 
HETATM   11  C2  UNL     1      47.627  26.777 -29.250  1.00  0.00     0.085 A 
HETATM   12  C1  UNL     1      47.686  27.878 -30.216  1.00  0.00     0.089 C 
HETATM   13  N1  UNL     1      48.680  26.526 -28.409  1.00  0.00    -0.352 N 
HETATM   14  C3  UNL     1      48.419  25.434 -27.706  1.00  0.00     0.144 A 
ATOM     15  H1  UNL     1      49.528  27.089 -28.337  1.00  0.00     0.166 HD
HETATM   16  C4  UNL     1      47.160  24.989 -28.126  1.00  0.00     0.197 A 
BRANCH  16  17
HETATM   17  N2  UNL     1      46.634  23.789 -27.600  1.00  0.00    -0.096 N 
HETATM   18  O1  UNL     1      47.326  22.720 -27.781  1.00  0.00    -0.530 OA
HETATM   19  O2  UNL     1      45.473  23.598 -26.910  1.00  0.00    -0.530 OA
ENDBRANCH  16  17
ENDBRANCH   9  10
BRANCH   9  20
HETATM   20  C6  UNL     1      44.240  26.038 -28.795  1.00  0.00     0.366 C 
BRANCH  20  21
HETATM   21  N4  UNL     1      43.118  26.508 -29.586  1.00  0.00    -0.048 N 
ATOM     22  H43 UNL     1      42.875  25.862 -30.337  1.00  0.00     0.277 HD
ATOM     23  H42 UNL     1      42.238  26.469 -29.072  1.00  0.00     0.277 HD
ATOM     24  H41 UNL     1      43.323  27.445 -29.933  1.00  0.00     0.277 HD
ENDBRANCH  20  21
BRANCH  20  25
HETATM   25  O3  UNL     1      44.614  27.117 -27.992  1.00  0.00    -0.365 OA
ATOM     26  H3  UNL     1      43.876  27.708 -27.905  1.00  0.00     0.212 HD
ENDBRANCH  20  25
ENDBRANCH   9  20
ENDBRANCH   8   9
BRANCH   8  27
HETATM   27  O4  UNL     1      44.522  25.073 -31.818  1.00  0.00    -0.383 OA
ATOM     28  H4  UNL     1      43.912  25.751 -31.550  1.00  0.00     0.211 HD
ENDBRANCH   8  27
ENDBRANCH   1   8
BRANCH   1  29
HETATM   29  C11 UNL     1      43.143  23.190 -30.825  1.00  0.00     0.280 C 
HETATM   30  O7  UNL     1      42.180  23.720 -30.219  1.00  0.00    -0.265 OA
HETATM   31  N9  UNL     1      42.829  22.471 -31.984  1.00  0.00    -0.245 N 
ATOM     32  H9  UNL     1      43.602  22.033 -32.485  1.00  0.00     0.182 HD
BRANCH  31  33
HETATM   33  S1  UNL     1      41.247  22.265 -32.636  1.00  0.00     0.265 S 
HETATM   34  O8  UNL     1      41.433  22.041 -34.131  1.00  0.00    -0.200 OA
HETATM   35  O9  UNL     1      40.464  23.567 -32.545  1.00  0.00    -0.200 OA
BRANCH  33  36
HETATM   36  C12 UNL     1      40.342  20.983 -31.904  1.00  0.00     0.080 A 
HETATM   37  C13 UNL     1      40.318  19.719 -32.476  1.00  0.00     0.028 A 
HETATM   38  C14 UNL     1      39.603  18.679 -31.926  1.00  0.00     0.038 A 
HETATM   39  C15 UNL     1      38.877  18.863 -30.773  1.00  0.00     0.065 A 
HETATM   40  C16 UNL     1      38.883  20.102 -30.186  1.00  0.00     0.038 A 
HETATM   41  C17 UNL     1      39.604  21.129 -30.752  1.00  0.00     0.028 A 
BRANCH  39  42
HETATM   42  O10 UNL     1      38.142  17.804 -30.203  1.00  0.00    -0.361 OA
ATOM     43  H10 UNL     1      37.272  17.590 -30.517  1.00  0.00     0.217 HD
ENDBRANCH  39  42
ENDBRANCH  33  36
ENDBRANCH  31  33
ENDBRANCH   1  29
BRANCH   6  44
HETATM   44  C10 UNL     1      43.192  19.899 -27.660  1.00  0.00     0.243 C 
HETATM   45  N8  UNL     1      43.798  19.059 -26.917  1.00  0.00    -0.233 N 
ATOM     46  H8  UNL     1      44.747  19.267 -26.607  1.00  0.00     0.198 HD
BRANCH  44  47
HETATM   47  O5  UNL     1      41.891  19.640 -28.099  1.00  0.00    -0.331 OA
ATOM     48  H5  UNL     1      41.799  19.124 -28.891  1.00  0.00     0.221 HD
ENDBRANCH  44  47
BRANCH  45  49
HETATM   49  O6  UNL     1      43.209  17.877 -26.521  1.00  0.00    -0.287 OA
ATOM     50  H6  UNL     1      43.306  17.538 -25.639  1.00  0.00     0.244 HD
ENDBRANCH  45  49
ENDBRANCH   6  44
TORSDOF 15
ENDMDL
MODEL 2
REMARK VINA RESULT: -7.644493539      1.425      2.256
REMARK  15 active torsions:
REMARK  status: ('A' for Active; 'I' for Inactive)
REMARK    1  A    between atoms: C4_6  and  N2_7 
REMARK    2  A    between atoms: N3_10  and  C5_11 
REMARK    3  A    between atoms: C5_11  and  C6_12 
REMARK    4  A    between atoms: C5_11  and  C7_19 
REMARK    5  A    between atoms: C6_12  and  N4_13 
REMARK    6  A    between atoms: C6_12  and  O3_17 
REMARK    7  A    between atoms: C7_19  and  O4_20 
REMARK    8  A    between atoms: C7_19  and  C8_22 
REMARK    9  A    between atoms: C8_22  and  C11_36 
REMARK       I    between atoms: N5_23  and  C9_25 
REMARK   10  A    between atoms: N7_27  and  C10_29 
REMARK   11  A    between atoms: C10_29  and  O5_30 
REMARK   12  A    between atoms: N8_32  and  O6_34 
REMARK       I    between atoms: C11_36  and  N9_38 
REMARK   13  A    between atoms: N9_38  and  S1_40 
REMARK   14  A    between atoms: S1_40  and  C12_43 
REMARK   15  A    between atoms: C15_46  and  O10_47 
ROOT
HETATM    1  C8  UNL     1      44.728  23.010 -31.014  1.00  0.00     0.115 C 
HETATM    2  N5  UNL     1      45.155  22.118 -30.265  1.00  0.00    -0.327 N 
ATOM      3  H5  UNL     1      46.139  22.208 -30.011  1.00  0.00     0.168 HD
HETATM    4  C9  UNL     1      44.514  21.019 -29.716  1.00  0.00     0.196 C 
HETATM    5  N6  UNL     1      44.370  19.770 -30.378  1.00  0.00    -0.063 NA
HETATM    6  N7  UNL     1      44.011  21.109 -28.509  1.00  0.00    -0.295 N 
ATOM      7  H7  UNL     1      44.097  21.984 -27.991  1.00  0.00     0.172 HD
ENDROOT
BRANCH   1   8
HETATM    8  C7  UNL     1      45.491  24.131 -31.541  1.00  0.00     0.224 C 
BRANCH   8   9
HETATM    9  C5  UNL     1      45.926  25.278 -30.738  1.00  0.00     0.087 C 
BRANCH   9  10
HETATM   10  N3  UNL     1      44.969  25.889 -29.839  1.00  0.00    -0.281 N 
HETATM   11  C2  UNL     1      44.078  26.863 -30.028  1.00  0.00     0.085 A 
HETATM   12  C1  UNL     1      43.873  27.707 -31.208  1.00  0.00     0.089 C 
HETATM   13  N1  UNL     1      43.363  27.082 -28.879  1.00  0.00    -0.352 N 
HETATM   14  C3  UNL     1      43.794  26.253 -27.939  1.00  0.00     0.144 A 
ATOM     15  H1  UNL     1      42.621  27.772 -28.765  1.00  0.00     0.166 HD
HETATM   16  C4  UNL     1      44.813  25.493 -28.524  1.00  0.00     0.197 A 
BRANCH  16  17
HETATM   17  N2  UNL     1      45.522  24.557 -27.740  1.00  0.00    -0.096 N 
HETATM   18  O1  UNL     1      44.877  23.514 -27.352  1.00  0.00    -0.530 OA
HETATM   19  O2  UNL     1      46.822  24.601 -27.328  1.00  0.00    -0.530 OA
ENDBRANCH  16  17
ENDBRANCH   9  10
BRANCH   9  20
HETATM   20  C6  UNL     1      46.845  26.279 -31.388  1.00  0.00     0.366 C 
BRANCH  20  21
HETATM   21  N4  UNL     1      47.637  25.609 -32.402  1.00  0.00    -0.048 N 
ATOM     22  H43 UNL     1      47.522  24.596 -32.377  1.00  0.00     0.277 HD
ATOM     23  H42 UNL     1      47.280  25.772 -33.343  1.00  0.00     0.277 HD
ATOM     24  H41 UNL     1      48.613  25.890 -32.304  1.00  0.00     0.277 HD
ENDBRANCH  20  21
BRANCH  20  25
HETATM   25  O3  UNL     1      47.760  26.739 -30.438  1.00  0.00    -0.365 OA
ATOM     26  H3  UNL     1      48.562  26.993 -30.878  1.00  0.00     0.212 HD
ENDBRANCH  20  25
ENDBRANCH   9  20
ENDBRANCH   8   9
BRANCH   8  27
HETATM   27  O4  UNL     1      44.731  24.618 -32.656  1.00  0.00    -0.383 OA
ATOM     28  H4  UNL     1      44.861  24.028 -33.390  1.00  0.00     0.211 HD
ENDBRANCH   8  27
ENDBRANCH   1   8
BRANCH   1  29
HETATM   29  C11 UNL     1      43.304  22.967 -31.382  1.00  0.00     0.280 C 
HETATM   30  O7  UNL     1      42.469  23.660 -30.752  1.00  0.00    -0.265 OA
HETATM   31  N9  UNL     1      42.802  22.178 -32.423  1.00  0.00    -0.245 N 
ATOM     32  H9  UNL     1      43.470  21.608 -32.941  1.00  0.00     0.182 HD
BRANCH  31  33
HETATM   33  S1  UNL     1      41.148  22.088 -32.901  1.00  0.00     0.265 S 
HETATM   34  O8  UNL     1      41.155  21.925 -34.415  1.00  0.00    -0.200 OA
HETATM   35  O9  UNL     1      40.457  23.424 -32.669  1.00  0.00    -0.200 OA
BRANCH  33  36
HETATM   36  C12 UNL     1      40.255  20.823 -32.125  1.00  0.00     0.080 A 
HETATM   37  C13 UNL     1      39.245  21.122 -31.223  1.00  0.00     0.028 A 
HETATM   38  C14 UNL     1      38.520  20.143 -30.582  1.00  0.00     0.038 A 
HETATM   39  C15 UNL     1      38.780  18.814 -30.819  1.00  0.00     0.065 A 
HETATM   40  C16 UNL     1      39.773  18.488 -31.707  1.00  0.00     0.038 A 
HETATM   41  C17 UNL     1      40.486  19.483 -32.337  1.00  0.00     0.028 A 
BRANCH  39  42
HETATM   42  O10 UNL     1      38.044  17.804 -30.168  1.00  0.00    -0.361 OA
ATOM     43  H10 UNL     1      37.781  17.900 -29.261  1.00  0.00     0.217 HD
ENDBRANCH  39  42
ENDBRANCH  33  36
ENDBRANCH  31  33
ENDBRANCH   1  29
BRANCH   6  44
HETATM   44  C10 UNL     1      43.346  20.000 -27.912  1.00  0.00     0.243 C 
HETATM   45  N8  UNL     1      43.921  19.205 -27.099  1.00  0.00    -0.233 N 
ATOM     46  H8  UNL     1      44.901  19.363 -26.863  1.00  0.00     0.198 HD
BRANCH  44  47
HETATM   47  O5  UNL     1      42.005  19.808 -28.253  1.00  0.00    -0.331 OA
ATOM     48  H5  UNL     1      41.751  20.027 -29.141  1.00  0.00     0.221 HD
ENDBRANCH  44  47
BRANCH  45  49
HETATM   49  O6  UNL     1      43.260  18.137 -26.531  1.00  0.00    -0.287 OA
ATOM     50  H6  UNL     1      43.710  17.493 -25.998  1.00  0.00     0.244 HD
ENDBRANCH  45  49
ENDBRANCH   6  44
TORSDOF 15
ENDMDL
MODEL 3
REMARK VINA RESULT: -7.531127451      3.326      7.931
REMARK  15 active torsions:
REMARK  status: ('A' for Active; 'I' for Inactive)
REMARK    1  A    between atoms: C4_6  and  N2_7 
REMARK    2  A    between atoms: N3_10  and  C5_11 
REMARK    3  A    between atoms: C5_11  and  C6_12 
REMARK    4  A    between atoms: C5_11  and  C7_19 
REMARK    5  A    between atoms: C6_12  and  N4_13 
REMARK    6  A    between atoms: C6_12  and  O3_17 
REMARK    7  A    between atoms: C7_19  and  O4_20 
REMARK    8  A    between atoms: C7_19  and  C8_22 
REMARK    9  A    between atoms: C8_22  and  C11_36 
REMARK       I    between atoms: N5_23  and  C9_25 
REMARK   10  A    between atoms: N7_27  and  C10_29 
REMARK   11  A    between atoms: C10_29  and  O5_30 
REMARK   12  A    between atoms: N8_32  and  O6_34 
REMARK       I    between atoms: C11_36  and  N9_38 
REMARK   13  A    between atoms: N9_38  and  S1_40 
REMARK   14  A    between atoms: S1_40  and  C12_43 
REMARK   15  A    between atoms: C15_46  and  O10_47 
ROOT
HETATM    1  C8  UNL     1      44.480  22.371 -32.066  1.00  0.00     0.115 C 
HETATM    2  N5  UNL     1      45.197  22.377 -33.079  1.00  0.00    -0.327 N 
ATOM      3  H5  UNL     1      44.859  21.795 -33.845  1.00  0.00     0.168 HD
HETATM    4  C9  UNL     1      46.383  23.045 -33.338  1.00  0.00     0.196 C 
HETATM    5  N6  UNL     1      47.667  22.553 -32.981  1.00  0.00    -0.063 NA
HETATM    6  N7  UNL     1      46.343  24.198 -33.961  1.00  0.00    -0.295 N 
ATOM      7  H7  UNL     1      45.445  24.587 -34.244  1.00  0.00     0.172 HD
ENDROOT
BRANCH   1   8
HETATM    8  C7  UNL     1      43.242  21.626 -31.892  1.00  0.00     0.224 C 
BRANCH   8   9
HETATM    9  C5  UNL     1      42.014  22.196 -31.330  1.00  0.00     0.087 C 
BRANCH   9  10
HETATM   10  N3  UNL     1      41.324  21.454 -30.295  1.00  0.00    -0.281 N 
HETATM   11  C2  UNL     1      41.243  21.645 -28.978  1.00  0.00     0.085 A 
HETATM   12  C1  UNL     1      41.943  22.628 -28.145  1.00  0.00     0.089 C 
HETATM   13  N1  UNL     1      40.440  20.692 -28.407  1.00  0.00    -0.352 N 
HETATM   14  C3  UNL     1      40.001  19.876 -29.355  1.00  0.00     0.144 A 
ATOM     15  H1  UNL     1      40.217  20.621 -27.415  1.00  0.00     0.166 HD
HETATM   16  C4  UNL     1      40.553  20.338 -30.556  1.00  0.00     0.197 A 
BRANCH  16  17
HETATM   17  N2  UNL     1      40.319  19.622 -31.750  1.00  0.00    -0.096 N 
HETATM   18  O1  UNL     1      41.175  18.714 -32.063  1.00  0.00    -0.530 OA
HETATM   19  O2  UNL     1      39.293  19.758 -32.639  1.00  0.00    -0.530 OA
ENDBRANCH  16  17
ENDBRANCH   9  10
BRANCH   9  20
HETATM   20  C6  UNL     1      41.074  22.902 -32.273  1.00  0.00     0.366 C 
BRANCH  20  21
HETATM   21  N4  UNL     1      41.145  22.270 -33.577  1.00  0.00    -0.048 N 
ATOM     22  H43 UNL     1      42.074  21.901 -33.779  1.00  0.00     0.277 HD
ATOM     23  H42 UNL     1      40.631  21.390 -33.609  1.00  0.00     0.277 HD
ATOM     24  H41 UNL     1      40.828  22.930 -34.286  1.00  0.00     0.277 HD
ENDBRANCH  20  21
BRANCH  20  25
HETATM   25  O3  UNL     1      41.522  24.211 -32.464  1.00  0.00    -0.365 OA
ATOM     26  H3  UNL     1      40.835  24.715 -32.884  1.00  0.00     0.212 HD
ENDBRANCH  20  25
ENDBRANCH   9  20
ENDBRANCH   8   9
BRANCH   8  27
HETATM   27  O4  UNL     1      43.599  20.468 -31.123  1.00  0.00    -0.383 OA
ATOM     28  H4  UNL     1      43.861  19.778 -31.722  1.00  0.00     0.211 HD
ENDBRANCH   8  27
ENDBRANCH   1   8
BRANCH   1  29
HETATM   29  C11 UNL     1      44.884  23.225 -30.939  1.00  0.00     0.280 C 
HETATM   30  O7  UNL     1      44.738  24.469 -31.006  1.00  0.00    -0.265 OA
HETATM   31  N9  UNL     1      45.441  22.726 -29.756  1.00  0.00    -0.245 N 
ATOM     32  H9  UNL     1      45.568  21.717 -29.689  1.00  0.00     0.182 HD
BRANCH  31  33
HETATM   33  S1  UNL     1      45.931  23.675 -28.403  1.00  0.00     0.265 S 
HETATM   34  O8  UNL     1      44.693  24.437 -27.951  1.00  0.00    -0.200 OA
HETATM   35  O9  UNL     1      46.902  24.762 -28.843  1.00  0.00    -0.200 OA
BRANCH  33  36
HETATM   36  C12 UNL     1      46.626  22.757 -27.110  1.00  0.00     0.080 A 
HETATM   37  C13 UNL     1      45.932  21.698 -26.543  1.00  0.00     0.028 A 
HETATM   38  C14 UNL     1      46.449  20.951 -25.508  1.00  0.00     0.038 A 
HETATM   39  C15 UNL     1      47.692  21.237 -24.995  1.00  0.00     0.065 A 
HETATM   40  C16 UNL     1      48.401  22.278 -25.536  1.00  0.00     0.038 A 
HETATM   41  C17 UNL     1      47.866  23.012 -26.569  1.00  0.00     0.028 A 
BRANCH  39  42
HETATM   42  O10 UNL     1      48.229  20.479 -23.935  1.00  0.00    -0.361 OA
ATOM     43  H10 UNL     1      48.522  20.897 -23.135  1.00  0.00     0.217 HD
ENDBRANCH  39  42
ENDBRANCH  33  36
ENDBRANCH  31  33
ENDBRANCH   1  29
BRANCH   6  44
HETATM   44  C10 UNL     1      47.542  24.914 -34.246  1.00  0.00     0.243 C 
HETATM   45  N8  UNL     1      48.060  25.745 -33.431  1.00  0.00    -0.233 N 
ATOM     46  H8  UNL     1      47.602  25.911 -32.534  1.00  0.00     0.198 HD
BRANCH  44  47
HETATM   47  O5  UNL     1      48.148  24.667 -35.480  1.00  0.00    -0.331 OA
ATOM     48  H5  UNL     1      48.972  24.194 -35.468  1.00  0.00     0.221 HD
ENDBRANCH  44  47
BRANCH  45  49
HETATM   49  O6  UNL     1      49.221  26.428 -33.725  1.00  0.00    -0.287 OA
ATOM     50  H6  UNL     1      49.368  27.319 -33.431  1.00  0.00     0.244 HD
ENDBRANCH  45  49
ENDBRANCH   6  44
TORSDOF 15
ENDMDL
MODEL 4
REMARK VINA RESULT: -7.526503964      1.220      2.013
REMARK  15 active torsions:
REMARK  status: ('A' for Active; 'I' for Inactive)
REMARK    1  A    between atoms: C4_6  and  N2_7 
REMARK    2  A    between atoms: N3_10  and  C5_11 
REMARK    3  A    between atoms: C5_11  and  C6_12 
REMARK    4  A    between atoms: C5_11  and  C7_19 
REMARK    5  A    between atoms: C6_12  and  N4_13 
REMARK    6  A    between atoms: C6_12  and  O3_17 
REMARK    7  A    between atoms: C7_19  and  O4_20 
REMARK    8  A    between atoms: C7_19  and  C8_22 
REMARK    9  A    between atoms: C8_22  and  C11_36 
REMARK       I    between atoms: N5_23  and  C9_25 
REMARK   10  A    between atoms: N7_27  and  C10_29 
REMARK   11  A    between atoms: C10_29  and  O5_30 
REMARK   12  A    between atoms: N8_32  and  O6_34 
REMARK       I    between atoms: C11_36  and  N9_38 
REMARK   13  A    between atoms: N9_38  and  S1_40 
REMARK   14  A    between atoms: S1_40  and  C12_43 
REMARK   15  A    between atoms: C15_46  and  O10_47 
ROOT
HETATM    1  C8  UNL     1      44.521  23.384 -30.216  1.00  0.00     0.115 C 
HETATM    2  N5  UNL     1      44.972  22.463 -29.518  1.00  0.00    -0.327 N 
ATOM      3  H5  UNL     1      45.903  22.632 -29.137  1.00  0.00     0.168 HD
HETATM    4  C9  UNL     1      44.417  21.242 -29.170  1.00  0.00     0.196 C 
HETATM    5  N6  UNL     1      44.503  20.073 -29.971  1.00  0.00    -0.063 NA
HETATM    6  N7  UNL     1      43.777  21.132 -28.031  1.00  0.00    -0.295 N 
ATOM      7  H7  UNL     1      43.696  21.943 -27.418  1.00  0.00     0.172 HD
ENDROOT
BRANCH   1   8
HETATM    8  C7  UNL     1      45.191  24.638 -30.525  1.00  0.00     0.224 C 
BRANCH   8   9
HETATM    9  C5  UNL     1      45.384  25.725 -29.561  1.00  0.00     0.087 C 
BRANCH   9  10
HETATM   10  N3  UNL     1      46.642  25.793 -28.846  1.00  0.00    -0.281 N 
HETATM   11  C2  UNL     1      47.153  25.023 -27.885  1.00  0.00     0.085 A 
HETATM   12  C1  UNL     1      46.526  23.909 -27.167  1.00  0.00     0.089 C 
HETATM   13  N1  UNL     1      48.403  25.465 -27.536  1.00  0.00    -0.352 N 
HETATM   14  C3  UNL     1      48.703  26.528 -28.268  1.00  0.00     0.144 A 
ATOM     15  H1  UNL     1      49.004  25.044 -26.828  1.00  0.00     0.166 HD
HETATM   16  C4  UNL     1      47.600  26.756 -29.100  1.00  0.00     0.197 A 
BRANCH  16  17
HETATM   17  N2  UNL     1      47.594  27.877 -29.957  1.00  0.00    -0.096 N 
HETATM   18  O1  UNL     1      46.796  28.840 -29.653  1.00  0.00    -0.530 OA
HETATM   19  O2  UNL     1      48.330  28.092 -31.086  1.00  0.00    -0.530 OA
ENDBRANCH  16  17
ENDBRANCH   9  10
BRANCH   9  20
HETATM   20  C6  UNL     1      44.204  26.131 -28.717  1.00  0.00     0.366 C 
BRANCH  20  21
HETATM   21  N4  UNL     1      43.139  26.601 -29.583  1.00  0.00    -0.048 N 
ATOM     22  H43 UNL     1      43.244  26.269 -30.541  1.00  0.00     0.277 HD
ATOM     23  H42 UNL     1      42.245  26.158 -29.373  1.00  0.00     0.277 HD
ATOM     24  H41 UNL     1      43.090  27.619 -29.530  1.00  0.00     0.277 HD
ENDBRANCH  20  21
BRANCH  20  25
HETATM   25  O3  UNL     1      44.564  27.228 -27.931  1.00  0.00    -0.365 OA
ATOM     26  H3  UNL     1      43.791  27.754 -27.762  1.00  0.00     0.212 HD
ENDBRANCH  20  25
ENDBRANCH   9  20
ENDBRANCH   8   9
BRANCH   8  27
HETATM   27  O4  UNL     1      44.507  25.163 -31.672  1.00  0.00    -0.383 OA
ATOM     28  H4  UNL     1      44.948  25.959 -31.947  1.00  0.00     0.211 HD
ENDBRANCH   8  27
ENDBRANCH   1   8
BRANCH   1  29
HETATM   29  C11 UNL     1      43.163  23.227 -30.758  1.00  0.00     0.280 C 
HETATM   30  O7  UNL     1      42.185  23.749 -30.172  1.00  0.00    -0.265 OA
HETATM   31  N9  UNL     1      42.879  22.507 -31.925  1.00  0.00    -0.245 N 
ATOM     32  H9  UNL     1      43.664  22.075 -32.410  1.00  0.00     0.182 HD
BRANCH  31  33
HETATM   33  S1  UNL     1      41.311  22.290 -32.609  1.00  0.00     0.265 S 
HETATM   34  O8  UNL     1      41.530  22.058 -34.099  1.00  0.00    -0.200 OA
HETATM   35  O9  UNL     1      40.520  23.588 -32.542  1.00  0.00    -0.200 OA
BRANCH  33  36
HETATM   36  C12 UNL     1      40.397  21.008 -31.889  1.00  0.00     0.080 A 
HETATM   37  C13 UNL     1      40.383  19.743 -32.459  1.00  0.00     0.028 A 
HETATM   38  C14 UNL     1      39.661  18.702 -31.919  1.00  0.00     0.038 A 
HETATM   39  C15 UNL     1      38.918  18.887 -30.777  1.00  0.00     0.065 A 
HETATM   40  C16 UNL     1      38.913  20.128 -30.191  1.00  0.00     0.038 A 
HETATM   41  C17 UNL     1      39.642  21.154 -30.748  1.00  0.00     0.028 A 
BRANCH  39  42
HETATM   42  O10 UNL     1      38.175  17.829 -30.217  1.00  0.00    -0.361 OA
ATOM     43  H10 UNL     1      38.497  17.354 -29.460  1.00  0.00     0.217 HD
ENDBRANCH  39  42
ENDBRANCH  33  36
ENDBRANCH  31  33
ENDBRANCH   1  29
BRANCH   6  44
HETATM   44  C10 UNL     1      43.194  19.893 -27.639  1.00  0.00     0.243 C 
HETATM   45  N8  UNL     1      43.789  19.058 -26.882  1.00  0.00    -0.233 N 
ATOM     46  H8  UNL     1      44.724  19.280 -26.539  1.00  0.00     0.198 HD
BRANCH  44  47
HETATM   47  O5  UNL     1      41.914  19.614 -28.123  1.00  0.00    -0.331 OA
ATOM     48  H5  UNL     1      41.217  19.543 -27.481  1.00  0.00     0.221 HD
ENDBRANCH  44  47
BRANCH  45  49
HETATM   49  O6  UNL     1      43.208  17.864 -26.513  1.00  0.00    -0.287 OA
ATOM     50  H6  UNL     1      43.714  17.065 -26.424  1.00  0.00     0.244 HD
ENDBRANCH  45  49
ENDBRANCH   6  44
TORSDOF 15
ENDMDL
MODEL 5
REMARK VINA RESULT: -7.424968985      1.813      3.128
REMARK  15 active torsions:
REMARK  status: ('A' for Active; 'I' for Inactive)
REMARK    1  A    between atoms: C4_6  and  N2_7 
REMARK    2  A    between atoms: N3_10  and  C5_11 
REMARK    3  A    between atoms: C5_11  and  C6_12 
REMARK    4  A    between atoms: C5_11  and  C7_19 
REMARK    5  A    between atoms: C6_12  and  N4_13 
REMARK    6  A    between atoms: C6_12  and  O3_17 
REMARK    7  A    between atoms: C7_19  and  O4_20 
REMARK    8  A    between atoms: C7_19  and  C8_22 
REMARK    9  A    between atoms: C8_22  and  C11_36 
REMARK       I    between atoms: N5_23  and  C9_25 
REMARK   10  A    between atoms: N7_27  and  C10_29 
REMARK   11  A    between atoms: C10_29  and  O5_30 
REMARK   12  A    between atoms: N8_32  and  O6_34 
REMARK       I    between atoms: C11_36  and  N9_38 
REMARK   13  A    between atoms: N9_38  and  S1_40 
REMARK   14  A    between atoms: S1_40  and  C12_43 
REMARK   15  A    between atoms: C15_46  and  O10_47 
ROOT
HETATM    1  C8  UNL     1      44.589  23.115 -30.868  1.00  0.00     0.115 C 
HETATM    2  N5  UNL     1      45.057  22.239 -30.124  1.00  0.00    -0.327 N 
ATOM      3  H5  UNL     1      46.033  22.378 -29.863  1.00  0.00     0.168 HD
HETATM    4  C9  UNL     1      44.471  21.103 -29.590  1.00  0.00     0.196 C 
HETATM    5  N6  UNL     1      44.397  19.855 -30.265  1.00  0.00    -0.063 NA
HETATM    6  N7  UNL     1      43.956  21.155 -28.386  1.00  0.00    -0.295 N 
ATOM      7  H7  UNL     1      43.993  22.027 -27.860  1.00  0.00     0.172 HD
ENDROOT
BRANCH   1   8
HETATM    8  C7  UNL     1      45.295  24.279 -31.379  1.00  0.00     0.224 C 
BRANCH   8   9
HETATM    9  C5  UNL     1      45.683  25.430 -30.558  1.00  0.00     0.087 C 
BRANCH   9  10
HETATM   10  N3  UNL     1      44.646  26.344 -30.125  1.00  0.00    -0.281 N 
HETATM   11  C2  UNL     1      43.868  26.347 -29.042  1.00  0.00     0.085 A 
HETATM   12  C1  UNL     1      43.749  25.331 -27.992  1.00  0.00     0.089 C 
HETATM   13  N1  UNL     1      43.048  27.445 -29.049  1.00  0.00    -0.352 N 
HETATM   14  C3  UNL     1      43.290  28.156 -30.140  1.00  0.00     0.144 A 
ATOM     15  H1  UNL     1      42.362  27.677 -28.330  1.00  0.00     0.166 HD
HETATM   16  C4  UNL     1      44.294  27.475 -30.838  1.00  0.00     0.197 A 
BRANCH  16  17
HETATM   17  N2  UNL     1      44.721  27.958 -32.093  1.00  0.00    -0.096 N 
HETATM   18  O1  UNL     1      45.312  29.101 -32.108  1.00  0.00    -0.530 OA
HETATM   19  O2  UNL     1      44.596  27.374 -33.320  1.00  0.00    -0.530 OA
ENDBRANCH  16  17
ENDBRANCH   9  10
BRANCH   9  20
HETATM   20  C6  UNL     1      46.977  26.125 -30.892  1.00  0.00     0.366 C 
BRANCH  20  21
HETATM   21  N4  UNL     1      47.321  25.851 -32.275  1.00  0.00    -0.048 N 
ATOM     22  H43 UNL     1      46.580  26.125 -32.920  1.00  0.00     0.277 HD
ATOM     23  H42 UNL     1      48.052  26.471 -32.623  1.00  0.00     0.277 HD
ATOM     24  H41 UNL     1      47.571  24.867 -32.369  1.00  0.00     0.277 HD
ENDBRANCH  20  21
BRANCH  20  25
HETATM   25  O3  UNL     1      48.004  25.562 -30.130  1.00  0.00    -0.365 OA
ATOM     26  H3  UNL     1      48.686  25.251 -30.712  1.00  0.00     0.212 HD
ENDBRANCH  20  25
ENDBRANCH   9  20
ENDBRANCH   8   9
BRANCH   8  27
HETATM   27  O4  UNL     1      44.506  24.751 -32.480  1.00  0.00    -0.383 OA
ATOM     28  H4  UNL     1      45.004  25.412 -32.947  1.00  0.00     0.211 HD
ENDBRANCH   8  27
ENDBRANCH   1   8
BRANCH   1  29
HETATM   29  C11 UNL     1      43.172  23.001 -31.246  1.00  0.00     0.280 C 
HETATM   30  O7  UNL     1      42.284  23.531 -30.535  1.00  0.00    -0.265 OA
HETATM   31  N9  UNL     1      42.732  22.317 -32.385  1.00  0.00    -0.245 N 
ATOM     32  H9  UNL     1      43.442  21.879 -32.971  1.00  0.00     0.182 HD
BRANCH  31  33
HETATM   33  S1  UNL     1      41.089  22.152 -32.880  1.00  0.00     0.265 S 
HETATM   34  O8  UNL     1      41.122  21.928 -34.386  1.00  0.00    -0.200 OA
HETATM   35  O9  UNL     1      40.351  23.473 -32.712  1.00  0.00    -0.200 OA
BRANCH  33  36
HETATM   36  C12 UNL     1      40.227  20.891 -32.064  1.00  0.00     0.080 A 
HETATM   37  C13 UNL     1      40.297  19.581 -32.516  1.00  0.00     0.028 A 
HETATM   38  C14 UNL     1      39.620  18.554 -31.898  1.00  0.00     0.038 A 
HETATM   39  C15 UNL     1      38.838  18.799 -30.793  1.00  0.00     0.065 A 
HETATM   40  C16 UNL     1      38.751  20.085 -30.324  1.00  0.00     0.038 A 
HETATM   41  C17 UNL     1      39.436  21.097 -30.957  1.00  0.00     0.028 A 
BRANCH  39  42
HETATM   42  O10 UNL     1      38.140  17.755 -30.153  1.00  0.00    -0.361 OA
ATOM     43  H10 UNL     1      37.266  17.511 -30.430  1.00  0.00     0.217 HD
ENDBRANCH  39  42
ENDBRANCH  33  36
ENDBRANCH  31  33
ENDBRANCH   1  29
BRANCH   6  44
HETATM   44  C10 UNL     1      43.346  20.007 -27.804  1.00  0.00     0.243 C 
HETATM   45  N8  UNL     1      43.964  19.223 -27.012  1.00  0.00    -0.233 N 
ATOM     46  H8  UNL     1      44.938  19.419 -26.781  1.00  0.00     0.198 HD
BRANCH  44  47
HETATM   47  O5  UNL     1      42.012  19.762 -28.136  1.00  0.00    -0.331 OA
ATOM     48  H5  UNL     1      41.481  20.514 -28.371  1.00  0.00     0.221 HD
ENDBRANCH  44  47
BRANCH  45  49
HETATM   49  O6  UNL     1      43.356  18.117 -26.457  1.00  0.00    -0.287 OA
ATOM     50  H6  UNL     1      43.826  17.305 -26.312  1.00  0.00     0.244 HD
ENDBRANCH  45  49
ENDBRANCH   6  44
TORSDOF 15
ENDMDL
