MODEL 1
REMARK VINA RESULT: -7.974076900      0.000      0.000
REMARK  16 active torsions:
REMARK  status: ('A' for Active; 'I' for Inactive)
REMARK    1  A    between atoms: C2_2  and  C3_3 
REMARK    2  A    between atoms: C2_2  and  C10_14 
REMARK    3  A    between atoms: C3_3  and  C4_4 
REMARK    4  A    between atoms: C7_7  and  O1_8 
REMARK    5  A    between atoms: C8_10  and  O2_11 
REMARK    6  A    between atoms: C10_14  and  O3_15 
REMARK    7  A    between atoms: C10_14  and  N1_17 
REMARK    8  A    between atoms: N1_17  and  C11_20 
REMARK    9  A    between atoms: C12_22  and  O5_23 
REMARK   10  A    between atoms: C12_22  and  C13_25 
REMARK   11  A    between atoms: C13_25  and  O7_27 
REMARK   12  A    between atoms: O7_27  and  C14_28 
REMARK   13  A    between atoms: C14_28  and  N3_31 
REMARK   14  A    between atoms: C14_28  and  C16_35 
REMARK   15  A    between atoms: N3_31  and  N4_32 
REMARK       I    between atoms: C16_35  and  N5_37 
REMARK   16  A    between atoms: N5_37  and  C17_39 
ROOT
HETATM    1  C14 UNL     1      44.483  21.957 -33.964  1.00  0.00     0.329 C 
HETATM    2  C15 UNL     1      45.035  23.304 -34.211  1.00  0.00     0.129 C 
HETATM    3  N2  UNL     1      45.485  24.368 -34.387  1.00  0.00    -0.192 NA
ENDROOT
BRANCH   1   4
HETATM    4  O7  UNL     1      43.128  22.114 -33.595  1.00  0.00    -0.264 OA
BRANCH   4   5
HETATM    5  C13 UNL     1      42.219  21.046 -33.725  1.00  0.00     0.329 C 
HETATM    6  O6  UNL     1      41.577  21.003 -34.803  1.00  0.00    -0.258 OA
BRANCH   5   7
HETATM    7  C12 UNL     1      42.072  20.055 -32.631  1.00  0.00     0.275 C 
HETATM    8  O4  UNL     1      42.280  20.521 -31.378  1.00  0.00    -0.304 OA
HETATM    9  C11 UNL     1      41.332  21.401 -30.899  1.00  0.00     0.402 C 
HETATM   10  C22 UNL     1      39.984  21.244 -31.484  1.00  0.00     0.205 C 
HETATM   11  C21 UNL     1      39.697  20.047 -32.255  1.00  0.00     0.057 C 
HETATM   12  O9  UNL     1      39.077  22.108 -31.337  1.00  0.00    -0.288 OA
HETATM   13  C20 UNL     1      40.707  19.440 -32.831  1.00  0.00     0.056 C 
BRANCH   9  14
HETATM   14  N1  UNL     1      41.161  21.300 -29.461  1.00  0.00    -0.011 N 
ATOM     15  H12 UNL     1      40.317  20.775 -29.235  1.00  0.00     0.284 HD
ATOM     16  H11 UNL     1      40.910  22.206 -29.064  1.00  0.00     0.284 HD
BRANCH  14  17
HETATM   17  C10 UNL     1      42.292  20.752 -28.784  1.00  0.00     0.352 C 
BRANCH  17  18
HETATM   18  C2  UNL     1      43.109  21.919 -28.284  1.00  0.00    -0.030 C 
HETATM   19  C1  UNL     1      44.404  21.804 -28.095  1.00  0.00     0.019 C 
BRANCH  18  20
HETATM   20  C3  UNL     1      42.423  23.195 -27.989  1.00  0.00     0.076 C 
BRANCH  20  21
HETATM   21  C4  UNL     1      43.098  24.304 -28.742  1.00  0.00    -0.051 A 
HETATM   22  C5  UNL     1      43.827  25.232 -28.009  1.00  0.00     0.010 A 
HETATM   23  C6  UNL     1      44.468  26.263 -28.630  1.00  0.00     0.040 A 
HETATM   24  C7  UNL     1      44.366  26.353 -29.996  1.00  0.00     0.098 A 
HETATM   25  C8  UNL     1      43.650  25.446 -30.738  1.00  0.00     0.099 A 
HETATM   26  C9  UNL     1      43.003  24.399 -30.100  1.00  0.00     0.046 A 
BRANCH  24  27
HETATM   27  O1  UNL     1      45.004  27.396 -30.682  1.00  0.00    -0.358 OA
ATOM     28  H1  UNL     1      45.426  27.230 -31.516  1.00  0.00     0.217 HD
ENDBRANCH  24  27
BRANCH  25  29
HETATM   29  O2  UNL     1      43.552  25.545 -32.118  1.00  0.00    -0.358 OA
ATOM     30  H2  UNL     1      44.317  25.661 -32.668  1.00  0.00     0.217 HD
ENDBRANCH  25  29
ENDBRANCH  20  21
ENDBRANCH  18  20
ENDBRANCH  17  18
BRANCH  17  31
HETATM   31  O3  UNL     1      41.913  19.988 -27.681  1.00  0.00    -0.366 OA
ATOM     32  H3  UNL     1      41.044  20.266 -27.416  1.00  0.00     0.212 HD
ENDBRANCH  17  31
ENDBRANCH  14  17
ENDBRANCH   9  14
BRANCH   7  33
HETATM   33  O5  UNL     1      43.022  19.028 -32.896  1.00  0.00    -0.354 OA
ATOM     34  H5  UNL     1      42.594  18.187 -32.795  1.00  0.00     0.214 HD
ENDBRANCH   7  33
ENDBRANCH   5   7
ENDBRANCH   4   5
ENDBRANCH   1   4
BRANCH   1  35
HETATM   35  N3  UNL     1      45.182  21.197 -32.998  1.00  0.00    -0.084 NA
BRANCH  35  36
HETATM   36  N4  UNL     1      45.143  21.719 -31.719  1.00  0.00    -0.344 N 
ATOM     37  H42 UNL     1      45.426  22.679 -31.520  1.00  0.00     0.172 HD
ATOM     38  H41 UNL     1      44.813  21.069 -31.006  1.00  0.00     0.172 HD
ENDBRANCH  35  36
ENDBRANCH   1  35
BRANCH   1  39
HETATM   39  C16 UNL     1      44.519  21.310 -35.334  1.00  0.00     0.293 C 
HETATM   40  O8  UNL     1      44.835  20.125 -35.438  1.00  0.00    -0.267 OA
HETATM   41  N5  UNL     1      44.185  22.091 -36.472  1.00  0.00    -0.303 N 
ATOM     42  H5  UNL     1      43.927  23.067 -36.327  1.00  0.00     0.171 HD
BRANCH  41  43
HETATM   43  C17 UNL     1      44.190  21.598 -37.781  1.00  0.00     0.142 C 
HETATM   44  N6  UNL     1      44.165  20.391 -38.156  1.00  0.00    -0.370 N 
HETATM   45  C18 UNL     1      44.180  20.098 -39.524  1.00  0.00     0.132 C 
ATOM     46  H6  UNL     1      44.134  19.638 -37.468  1.00  0.00     0.161 HD
HETATM   47  C19 UNL     1      43.536  21.229 -40.333  1.00  0.00     0.102 C 
HETATM   48  S1  UNL     1      44.199  22.595 -39.266  1.00  0.00    -0.092 SA
ENDBRANCH  41  43
ENDBRANCH   1  39
TORSDOF 16
ENDMDL
MODEL 2
REMARK VINA RESULT: -7.929143037      2.122      4.464
REMARK  16 active torsions:
REMARK  status: ('A' for Active; 'I' for Inactive)
REMARK    1  A    between atoms: C2_2  and  C3_3 
REMARK    2  A    between atoms: C2_2  and  C10_14 
REMARK    3  A    between atoms: C3_3  and  C4_4 
REMARK    4  A    between atoms: C7_7  and  O1_8 
REMARK    5  A    between atoms: C8_10  and  O2_11 
REMARK    6  A    between atoms: C10_14  and  O3_15 
REMARK    7  A    between atoms: C10_14  and  N1_17 
REMARK    8  A    between atoms: N1_17  and  C11_20 
REMARK    9  A    between atoms: C12_22  and  O5_23 
REMARK   10  A    between atoms: C12_22  and  C13_25 
REMARK   11  A    between atoms: C13_25  and  O7_27 
REMARK   12  A    between atoms: O7_27  and  C14_28 
REMARK   13  A    between atoms: C14_28  and  N3_31 
REMARK   14  A    between atoms: C14_28  and  C16_35 
REMARK   15  A    between atoms: N3_31  and  N4_32 
REMARK       I    between atoms: C16_35  and  N5_37 
REMARK   16  A    between atoms: N5_37  and  C17_39 
ROOT
HETATM    1  C14 UNL     1      43.663  21.434 -34.088  1.00  0.00     0.329 C 
HETATM    2  C15 UNL     1      43.313  20.196 -33.363  1.00  0.00     0.129 C 
HETATM    3  N2  UNL     1      43.016  19.228 -32.782  1.00  0.00    -0.192 NA
ENDROOT
BRANCH   1   4
HETATM    4  O7  UNL     1      44.792  21.996 -33.448  1.00  0.00    -0.264 OA
BRANCH   4   5
HETATM    5  C13 UNL     1      44.836  23.372 -33.148  1.00  0.00     0.329 C 
HETATM    6  O6  UNL     1      45.358  24.105 -34.024  1.00  0.00    -0.258 OA
BRANCH   5   7
HETATM    7  C12 UNL     1      44.282  23.874 -31.867  1.00  0.00     0.275 C 
HETATM    8  O4  UNL     1      43.915  22.930 -30.970  1.00  0.00    -0.304 OA
HETATM    9  C11 UNL     1      44.943  22.206 -30.404  1.00  0.00     0.402 C 
HETATM   10  C22 UNL     1      46.240  22.910 -30.342  1.00  0.00     0.205 C 
HETATM   11  C21 UNL     1      46.266  24.341 -30.591  1.00  0.00     0.057 C 
HETATM   12  O9  UNL     1      47.322  22.316 -30.081  1.00  0.00    -0.288 OA
HETATM   13  C20 UNL     1      45.313  24.844 -31.339  1.00  0.00     0.056 C 
BRANCH   9  14
HETATM   14  N1  UNL     1      44.644  21.792 -29.045  1.00  0.00    -0.011 N 
ATOM     15  H12 UNL     1      43.976  22.430 -28.613  1.00  0.00     0.284 HD
ATOM     16  H11 UNL     1      45.447  21.948 -28.437  1.00  0.00     0.284 HD
BRANCH  14  17
HETATM   17  C10 UNL     1      44.190  20.443 -28.941  1.00  0.00     0.352 C 
BRANCH  17  18
HETATM   18  C2  UNL     1      42.974  20.460 -28.046  1.00  0.00    -0.030 C 
HETATM   19  C1  UNL     1      42.656  19.413 -27.318  1.00  0.00     0.019 C 
BRANCH  18  20
HETATM   20  C3  UNL     1      42.129  21.673 -28.015  1.00  0.00     0.076 C 
BRANCH  20  21
HETATM   21  C4  UNL     1      41.145  21.618 -29.148  1.00  0.00    -0.051 A 
HETATM   22  C5  UNL     1      40.158  20.642 -29.099  1.00  0.00     0.010 A 
HETATM   23  C6  UNL     1      39.231  20.537 -30.093  1.00  0.00     0.040 A 
HETATM   24  C7  UNL     1      39.308  21.424 -31.138  1.00  0.00     0.098 A 
HETATM   25  C8  UNL     1      40.275  22.397 -31.205  1.00  0.00     0.099 A 
HETATM   26  C9  UNL     1      41.214  22.497 -30.189  1.00  0.00     0.046 A 
BRANCH  24  27
HETATM   27  O1  UNL     1      38.380  21.357 -32.187  1.00  0.00    -0.358 OA
ATOM     28  H1  UNL     1      37.700  22.016 -32.266  1.00  0.00     0.217 HD
ENDBRANCH  24  27
BRANCH  25  29
HETATM   29  O2  UNL     1      40.346  23.287 -32.265  1.00  0.00    -0.358 OA
ATOM     30  H2  UNL     1      39.600  23.812 -32.530  1.00  0.00     0.217 HD
ENDBRANCH  25  29
ENDBRANCH  20  21
ENDBRANCH  18  20
ENDBRANCH  17  18
BRANCH  17  31
HETATM   31  O3  UNL     1      43.806  19.929 -30.179  1.00  0.00    -0.366 OA
ATOM     32  H3  UNL     1      44.327  20.356 -30.848  1.00  0.00     0.212 HD
ENDBRANCH  17  31
ENDBRANCH  14  17
ENDBRANCH   9  14
BRANCH   7  33
HETATM   33  O5  UNL     1      43.135  24.647 -32.207  1.00  0.00    -0.354 OA
ATOM     34  H5  UNL     1      43.063  24.681 -33.153  1.00  0.00     0.214 HD
ENDBRANCH   7  33
ENDBRANCH   5   7
ENDBRANCH   4   5
ENDBRANCH   1   4
BRANCH   1  35
HETATM   35  N3  UNL     1      42.618  22.381 -34.186  1.00  0.00    -0.084 NA
BRANCH  35  36
HETATM   36  N4  UNL     1      41.372  21.838 -34.438  1.00  0.00    -0.344 N 
ATOM     37  H42 UNL     1      40.815  22.121 -35.244  1.00  0.00     0.172 HD
ATOM     38  H41 UNL     1      41.068  21.142 -33.757  1.00  0.00     0.172 HD
ENDBRANCH  35  36
ENDBRANCH   1  35
BRANCH   1  39
HETATM   39  C16 UNL     1      44.105  20.928 -35.447  1.00  0.00     0.293 C 
HETATM   40  O8  UNL     1      44.517  19.774 -35.560  1.00  0.00    -0.267 OA
HETATM   41  N5  UNL     1      44.034  21.803 -36.563  1.00  0.00    -0.303 N 
ATOM     42  H5  UNL     1      43.681  22.748 -36.412  1.00  0.00     0.171 HD
BRANCH  41  43
HETATM   43  C17 UNL     1      44.420  21.442 -37.857  1.00  0.00     0.142 C 
HETATM   44  N6  UNL     1      43.939  20.528 -38.585  1.00  0.00    -0.370 N 
HETATM   45  C18 UNL     1      44.469  20.318 -39.863  1.00  0.00     0.132 C 
ATOM     46  H6  UNL     1      43.171  19.949 -38.245  1.00  0.00     0.161 HD
HETATM   47  C19 UNL     1      45.041  21.617 -40.438  1.00  0.00     0.102 C 
HETATM   48  S1  UNL     1      45.700  22.241 -38.819  1.00  0.00    -0.092 SA
ENDBRANCH  41  43
ENDBRANCH   1  39
TORSDOF 16
ENDMDL
MODEL 3
REMARK VINA RESULT: -7.782235064      1.419      1.646
REMARK  16 active torsions:
REMARK  status: ('A' for Active; 'I' for Inactive)
REMARK    1  A    between atoms: C2_2  and  C3_3 
REMARK    2  A    between atoms: C2_2  and  C10_14 
REMARK    3  A    between atoms: C3_3  and  C4_4 
REMARK    4  A    between atoms: C7_7  and  O1_8 
REMARK    5  A    between atoms: C8_10  and  O2_11 
REMARK    6  A    between atoms: C10_14  and  O3_15 
REMARK    7  A    between atoms: C10_14  and  N1_17 
REMARK    8  A    between atoms: N1_17  and  C11_20 
REMARK    9  A    between atoms: C12_22  and  O5_23 
REMARK   10  A    between atoms: C12_22  and  C13_25 
REMARK   11  A    between atoms: C13_25  and  O7_27 
REMARK   12  A    between atoms: O7_27  and  C14_28 
REMARK   13  A    between atoms: C14_28  and  N3_31 
REMARK   14  A    between atoms: C14_28  and  C16_35 
REMARK   15  A    between atoms: N3_31  and  N4_32 
REMARK       I    between atoms: C16_35  and  N5_37 
REMARK   16  A    between atoms: N5_37  and  C17_39 
ROOT
HETATM    1  C14 UNL     1      44.542  21.884 -34.045  1.00  0.00     0.329 C 
HETATM    2  C15 UNL     1      45.025  23.274 -34.165  1.00  0.00     0.129 C 
HETATM    3  N2  UNL     1      45.420  24.370 -34.242  1.00  0.00    -0.192 NA
ENDROOT
BRANCH   1   4
HETATM    4  O7  UNL     1      43.173  21.939 -33.695  1.00  0.00    -0.264 OA
BRANCH   4   5
HETATM    5  C13 UNL     1      42.375  20.778 -33.733  1.00  0.00     0.329 C 
HETATM    6  O6  UNL     1      41.854  20.510 -34.842  1.00  0.00    -0.258 OA
BRANCH   5   7
HETATM    7  C12 UNL     1      42.198  19.956 -32.511  1.00  0.00     0.275 C 
HETATM    8  O4  UNL     1      42.408  20.590 -31.334  1.00  0.00    -0.304 OA
HETATM    9  C11 UNL     1      41.478  21.549 -30.993  1.00  0.00     0.402 C 
HETATM   10  C22 UNL     1      40.130  21.340 -31.563  1.00  0.00     0.205 C 
HETATM   11  C21 UNL     1      39.821  20.053 -32.160  1.00  0.00     0.057 C 
HETATM   12  O9  UNL     1      39.243  22.236 -31.549  1.00  0.00    -0.288 OA
HETATM   13  C20 UNL     1      40.820  19.349 -32.635  1.00  0.00     0.056 C 
BRANCH   9  14
HETATM   14  N1  UNL     1      41.295  21.657 -29.557  1.00  0.00    -0.011 N 
ATOM     15  H12 UNL     1      40.371  21.319 -29.286  1.00  0.00     0.284 HD
ATOM     16  H11 UNL     1      41.208  22.634 -29.278  1.00  0.00     0.284 HD
BRANCH  14  17
HETATM   17  C10 UNL     1      42.312  21.005 -28.797  1.00  0.00     0.352 C 
BRANCH  17  18
HETATM   18  C2  UNL     1      43.143  22.092 -28.159  1.00  0.00    -0.030 C 
HETATM   19  C1  UNL     1      42.668  23.308 -28.013  1.00  0.00     0.019 C 
BRANCH  18  20
HETATM   20  C3  UNL     1      44.518  21.771 -27.717  1.00  0.00     0.076 C 
BRANCH  20  21
HETATM   21  C4  UNL     1      45.459  22.821 -28.232  1.00  0.00    -0.051 A 
HETATM   22  C5  UNL     1      46.049  23.670 -27.304  1.00  0.00     0.010 A 
HETATM   23  C6  UNL     1      46.916  24.644 -27.703  1.00  0.00     0.040 A 
HETATM   24  C7  UNL     1      47.183  24.757 -29.045  1.00  0.00     0.098 A 
HETATM   25  C8  UNL     1      46.610  23.927 -29.977  1.00  0.00     0.099 A 
HETATM   26  C9  UNL     1      45.730  22.938 -29.564  1.00  0.00     0.046 A 
BRANCH  24  27
HETATM   27  O1  UNL     1      48.065  25.744 -29.507  1.00  0.00    -0.358 OA
ATOM     28  H1  UNL     1      47.737  26.604 -29.740  1.00  0.00     0.217 HD
ENDBRANCH  24  27
BRANCH  25  29
HETATM   29  O2  UNL     1      46.884  24.048 -31.331  1.00  0.00    -0.358 OA
ATOM     30  H2  UNL     1      46.192  24.124 -31.978  1.00  0.00     0.217 HD
ENDBRANCH  25  29
ENDBRANCH  20  21
ENDBRANCH  18  20
ENDBRANCH  17  18
BRANCH  17  31
HETATM   31  O3  UNL     1      41.773  20.221 -27.778  1.00  0.00    -0.366 OA
ATOM     32  H3  UNL     1      42.225  19.386 -27.780  1.00  0.00     0.212 HD
ENDBRANCH  17  31
ENDBRANCH  14  17
ENDBRANCH   9  14
BRANCH   7  33
HETATM   33  O5  UNL     1      43.126  18.881 -32.619  1.00  0.00    -0.354 OA
ATOM     34  H5  UNL     1      43.412  18.819 -33.522  1.00  0.00     0.214 HD
ENDBRANCH   7  33
ENDBRANCH   5   7
ENDBRANCH   4   5
ENDBRANCH   1   4
BRANCH   1  35
HETATM   35  N3  UNL     1      45.262  21.082 -33.130  1.00  0.00    -0.084 NA
BRANCH  35  36
HETATM   36  N4  UNL     1      46.558  21.501 -32.895  1.00  0.00    -0.344 N 
ATOM     37  H42 UNL     1      47.345  20.853 -32.916  1.00  0.00     0.172 HD
ATOM     38  H41 UNL     1      46.653  22.498 -32.702  1.00  0.00     0.172 HD
ENDBRANCH  35  36
ENDBRANCH   1  35
BRANCH   1  39
HETATM   39  C16 UNL     1      44.637  21.358 -35.463  1.00  0.00     0.293 C 
HETATM   40  O8  UNL     1      45.250  20.314 -35.683  1.00  0.00    -0.267 OA
HETATM   41  N5  UNL     1      44.014  22.086 -36.510  1.00  0.00    -0.303 N 
ATOM     42  H5  UNL     1      43.516  22.943 -36.269  1.00  0.00     0.171 HD
BRANCH  41  43
HETATM   43  C17 UNL     1      44.044  21.696 -37.852  1.00  0.00     0.142 C 
HETATM   44  N6  UNL     1      44.019  20.522 -38.320  1.00  0.00    -0.370 N 
HETATM   45  C18 UNL     1      44.062  20.336 -39.706  1.00  0.00     0.132 C 
ATOM     46  H6  UNL     1      43.969  19.719 -37.694  1.00  0.00     0.161 HD
HETATM   47  C19 UNL     1      43.443  21.531 -40.438  1.00  0.00     0.102 C 
HETATM   48  S1  UNL     1      44.091  22.806 -39.255  1.00  0.00    -0.092 SA
ENDBRANCH  41  43
ENDBRANCH   1  39
TORSDOF 16
ENDMDL
MODEL 4
REMARK VINA RESULT: -7.714731274      3.743      6.513
REMARK  16 active torsions:
REMARK  status: ('A' for Active; 'I' for Inactive)
REMARK    1  A    between atoms: C2_2  and  C3_3 
REMARK    2  A    between atoms: C2_2  and  C10_14 
REMARK    3  A    between atoms: C3_3  and  C4_4 
REMARK    4  A    between atoms: C7_7  and  O1_8 
REMARK    5  A    between atoms: C8_10  and  O2_11 
REMARK    6  A    between atoms: C10_14  and  O3_15 
REMARK    7  A    between atoms: C10_14  and  N1_17 
REMARK    8  A    between atoms: N1_17  and  C11_20 
REMARK    9  A    between atoms: C12_22  and  O5_23 
REMARK   10  A    between atoms: C12_22  and  C13_25 
REMARK   11  A    between atoms: C13_25  and  O7_27 
REMARK   12  A    between atoms: O7_27  and  C14_28 
REMARK   13  A    between atoms: C14_28  and  N3_31 
REMARK   14  A    between atoms: C14_28  and  C16_35 
REMARK   15  A    between atoms: N3_31  and  N4_32 
REMARK       I    between atoms: C16_35  and  N5_37 
REMARK   16  A    between atoms: N5_37  and  C17_39 
ROOT
HETATM    1  C14 UNL     1      46.651  23.540 -30.934  1.00  0.00     0.329 C 
HETATM    2  C15 UNL     1      47.637  22.684 -31.624  1.00  0.00     0.129 C 
HETATM    3  N2  UNL     1      48.417  22.023 -32.189  1.00  0.00    -0.192 NA
ENDROOT
BRANCH   1   4
HETATM    4  O7  UNL     1      45.429  22.830 -30.891  1.00  0.00    -0.264 OA
BRANCH   4   5
HETATM    5  C13 UNL     1      44.875  22.283 -32.065  1.00  0.00     0.329 C 
HETATM    6  O6  UNL     1      44.876  23.034 -33.071  1.00  0.00    -0.258 OA
BRANCH   5   7
HETATM    7  C12 UNL     1      44.340  20.899 -32.063  1.00  0.00     0.275 C 
HETATM    8  O4  UNL     1      43.072  20.754 -31.615  1.00  0.00    -0.304 OA
HETATM    9  C11 UNL     1      42.086  21.284 -32.421  1.00  0.00     0.402 C 
HETATM   10  C22 UNL     1      42.427  21.355 -33.857  1.00  0.00     0.205 C 
HETATM   11  C21 UNL     1      43.591  20.627 -34.331  1.00  0.00     0.057 C 
HETATM   12  O9  UNL     1      41.746  22.022 -34.682  1.00  0.00    -0.288 OA
HETATM   13  C20 UNL     1      44.550  20.388 -33.469  1.00  0.00     0.056 C 
BRANCH   9  14
HETATM   14  N1  UNL     1      40.844  20.535 -32.339  1.00  0.00    -0.011 N 
ATOM     15  H12 UNL     1      40.776  19.867 -33.107  1.00  0.00     0.284 HD
ATOM     16  H11 UNL     1      40.049  21.134 -32.562  1.00  0.00     0.284 HD
BRANCH  14  17
HETATM   17  C10 UNL     1      40.647  19.882 -31.085  1.00  0.00     0.352 C 
BRANCH  17  18
HETATM   18  C2  UNL     1      39.735  20.769 -30.271  1.00  0.00    -0.030 C 
HETATM   19  C1  UNL     1      38.768  21.450 -30.844  1.00  0.00     0.019 C 
BRANCH  18  20
HETATM   20  C3  UNL     1      39.960  20.875 -28.814  1.00  0.00     0.076 C 
BRANCH  20  21
HETATM   21  C4  UNL     1      41.412  21.157 -28.558  1.00  0.00    -0.051 A 
HETATM   22  C5  UNL     1      42.205  20.109 -28.110  1.00  0.00     0.010 A 
HETATM   23  C6  UNL     1      43.532  20.294 -27.861  1.00  0.00     0.040 A 
HETATM   24  C7  UNL     1      44.054  21.548 -28.064  1.00  0.00     0.098 A 
HETATM   25  C8  UNL     1      43.287  22.598 -28.505  1.00  0.00     0.099 A 
HETATM   26  C9  UNL     1      41.938  22.401 -28.758  1.00  0.00     0.046 A 
BRANCH  24  27
HETATM   27  O1  UNL     1      45.413  21.792 -27.819  1.00  0.00    -0.358 OA
ATOM     28  H1  UNL     1      45.837  22.550 -28.202  1.00  0.00     0.217 HD
ENDBRANCH  24  27
BRANCH  25  29
HETATM   29  O2  UNL     1      43.822  23.861 -28.706  1.00  0.00    -0.358 OA
ATOM     30  H2  UNL     1      43.571  24.603 -28.169  1.00  0.00     0.217 HD
ENDBRANCH  25  29
ENDBRANCH  20  21
ENDBRANCH  18  20
ENDBRANCH  17  18
BRANCH  17  31
HETATM   31  O3  UNL     1      40.021  18.646 -31.239  1.00  0.00    -0.366 OA
ATOM     32  H3  UNL     1      39.843  18.520 -32.163  1.00  0.00     0.212 HD
ENDBRANCH  17  31
ENDBRANCH  14  17
ENDBRANCH   9  14
BRANCH   7  33
HETATM   33  O5  UNL     1      45.207  20.142 -31.223  1.00  0.00    -0.354 OA
ATOM     34  H5  UNL     1      44.865  19.258 -31.155  1.00  0.00     0.214 HD
ENDBRANCH   7  33
ENDBRANCH   5   7
ENDBRANCH   4   5
ENDBRANCH   1   4
BRANCH   1  35
HETATM   35  N3  UNL     1      46.469  24.818 -31.509  1.00  0.00    -0.084 NA
BRANCH  35  36
HETATM   36  N4  UNL     1      45.352  25.496 -31.060  1.00  0.00    -0.344 N 
ATOM     37  H42 UNL     1      45.388  26.118 -30.252  1.00  0.00     0.172 HD
ATOM     38  H41 UNL     1      44.504  25.321 -31.599  1.00  0.00     0.172 HD
ENDBRANCH  35  36
ENDBRANCH   1  35
BRANCH   1  39
HETATM   39  C16 UNL     1      47.190  23.620 -29.520  1.00  0.00     0.293 C 
HETATM   40  O8  UNL     1      46.687  24.411 -28.723  1.00  0.00    -0.267 OA
HETATM   41  N5  UNL     1      48.269  22.777 -29.146  1.00  0.00    -0.303 N 
ATOM     42  H5  UNL     1      48.645  22.138 -29.846  1.00  0.00     0.171 HD
BRANCH  41  43
HETATM   43  C17 UNL     1      48.846  22.773 -27.872  1.00  0.00     0.142 C 
HETATM   44  N6  UNL     1      48.257  22.772 -26.753  1.00  0.00    -0.370 N 
HETATM   45  C18 UNL     1      49.018  22.772 -25.579  1.00  0.00     0.132 C 
ATOM     46  H6  UNL     1      47.239  22.773 -26.707  1.00  0.00     0.161 HD
HETATM   47  C19 UNL     1      50.370  22.086 -25.803  1.00  0.00     0.102 C 
HETATM   48  S1  UNL     1      50.601  22.731 -27.528  1.00  0.00    -0.092 SA
ENDBRANCH  41  43
ENDBRANCH   1  39
TORSDOF 16
ENDMDL
MODEL 5
REMARK VINA RESULT: -7.692336867      3.517      6.252
REMARK  16 active torsions:
REMARK  status: ('A' for Active; 'I' for Inactive)
REMARK    1  A    between atoms: C2_2  and  C3_3 
REMARK    2  A    between atoms: C2_2  and  C10_14 
REMARK    3  A    between atoms: C3_3  and  C4_4 
REMARK    4  A    between atoms: C7_7  and  O1_8 
REMARK    5  A    between atoms: C8_10  and  O2_11 
REMARK    6  A    between atoms: C10_14  and  O3_15 
REMARK    7  A    between atoms: C10_14  and  N1_17 
REMARK    8  A    between atoms: N1_17  and  C11_20 
REMARK    9  A    between atoms: C12_22  and  O5_23 
REMARK   10  A    between atoms: C12_22  and  C13_25 
REMARK   11  A    between atoms: C13_25  and  O7_27 
REMARK   12  A    between atoms: O7_27  and  C14_28 
REMARK   13  A    between atoms: C14_28  and  N3_31 
REMARK   14  A    between atoms: C14_28  and  C16_35 
REMARK   15  A    between atoms: N3_31  and  N4_32 
REMARK       I    between atoms: C16_35  and  N5_37 
REMARK   16  A    between atoms: N5_37  and  C17_39 
ROOT
HETATM    1  C14 UNL     1      44.014  21.864 -32.480  1.00  0.00     0.329 C 
HETATM    2  C15 UNL     1      43.641  22.136 -33.883  1.00  0.00     0.129 C 
HETATM    3  N2  UNL     1      43.369  22.350 -34.998  1.00  0.00    -0.192 NA
ENDROOT
BRANCH   1   4
HETATM    4  O7  UNL     1      43.794  23.051 -31.744  1.00  0.00    -0.264 OA
BRANCH   4   5
HETATM    5  C13 UNL     1      43.284  22.998 -30.432  1.00  0.00     0.329 C 
HETATM    6  O6  UNL     1      42.037  23.092 -30.327  1.00  0.00    -0.258 OA
BRANCH   5   7
HETATM    7  C12 UNL     1      44.205  22.835 -29.280  1.00  0.00     0.275 C 
HETATM    8  O4  UNL     1      45.370  23.519 -29.351  1.00  0.00    -0.304 OA
HETATM    9  C11 UNL     1      45.269  24.891 -29.256  1.00  0.00     0.402 C 
HETATM   10  C22 UNL     1      44.098  25.378 -28.499  1.00  0.00     0.205 C 
HETATM   11  C21 UNL     1      43.345  24.429 -27.698  1.00  0.00     0.057 C 
HETATM   12  O9  UNL     1      43.730  26.584 -28.522  1.00  0.00    -0.288 OA
HETATM   13  C20 UNL     1      43.380  23.168 -28.059  1.00  0.00     0.056 C 
BRANCH   9  14
HETATM   14  N1  UNL     1      46.433  25.488 -28.627  1.00  0.00    -0.011 N 
ATOM     15  H12 UNL     1      46.504  25.196 -27.652  1.00  0.00     0.284 HD
ATOM     16  H11 UNL     1      46.295  26.490 -28.495  1.00  0.00     0.284 HD
BRANCH  14  17
HETATM   17  C10 UNL     1      47.655  25.235 -29.318  1.00  0.00     0.352 C 
BRANCH  17  18
HETATM   18  C2  UNL     1      48.489  24.352 -28.420  1.00  0.00    -0.030 C 
HETATM   19  C1  UNL     1      49.286  23.437 -28.924  1.00  0.00     0.019 C 
BRANCH  18  20
HETATM   20  C3  UNL     1      48.378  24.520 -26.955  1.00  0.00     0.076 C 
BRANCH  20  21
HETATM   21  C4  UNL     1      47.985  23.210 -26.337  1.00  0.00    -0.051 A 
HETATM   22  C5  UNL     1      48.794  22.703 -25.327  1.00  0.00     0.010 A 
HETATM   23  C6  UNL     1      48.494  21.519 -24.720  1.00  0.00     0.040 A 
HETATM   24  C7  UNL     1      47.372  20.849 -25.141  1.00  0.00     0.098 A 
HETATM   25  C8  UNL     1      46.559  21.333 -26.137  1.00  0.00     0.099 A 
HETATM   26  C9  UNL     1      46.871  22.538 -26.748  1.00  0.00     0.046 A 
BRANCH  24  27
HETATM   27  O1  UNL     1      47.020  19.626 -24.552  1.00  0.00    -0.358 OA
ATOM     28  H1  UNL     1      46.725  19.600 -23.649  1.00  0.00     0.217 HD
ENDBRANCH  24  27
BRANCH  25  29
HETATM   29  O2  UNL     1      45.429  20.649 -26.556  1.00  0.00    -0.358 OA
ATOM     30  H2  UNL     1      44.566  20.848 -26.213  1.00  0.00     0.217 HD
ENDBRANCH  25  29
ENDBRANCH  20  21
ENDBRANCH  18  20
ENDBRANCH  17  18
BRANCH  17  31
HETATM   31  O3  UNL     1      47.441  24.552 -30.514  1.00  0.00    -0.366 OA
ATOM     32  H3  UNL     1      48.211  24.027 -30.695  1.00  0.00     0.212 HD
ENDBRANCH  17  31
ENDBRANCH  14  17
ENDBRANCH   9  14
BRANCH   7  33
HETATM   33  O5  UNL     1      44.500  21.443 -29.203  1.00  0.00    -0.354 OA
ATOM     34  H5  UNL     1      43.681  20.963 -29.169  1.00  0.00     0.214 HD
ENDBRANCH   7  33
ENDBRANCH   5   7
ENDBRANCH   4   5
ENDBRANCH   1   4
BRANCH   1  35
HETATM   35  N3  UNL     1      45.335  21.396 -32.297  1.00  0.00    -0.084 NA
BRANCH  35  36
HETATM   36  N4  UNL     1      46.290  22.392 -32.207  1.00  0.00    -0.344 N 
ATOM     37  H42 UNL     1      46.565  22.948 -33.017  1.00  0.00     0.172 HD
ATOM     38  H41 UNL     1      46.687  22.516 -31.276  1.00  0.00     0.172 HD
ENDBRANCH  35  36
ENDBRANCH   1  35
BRANCH   1  39
HETATM   39  C16 UNL     1      42.982  20.846 -32.037  1.00  0.00     0.293 C 
HETATM   40  O8  UNL     1      43.334  19.876 -31.367  1.00  0.00    -0.267 OA
HETATM   41  N5  UNL     1      41.625  21.037 -32.409  1.00  0.00    -0.303 N 
ATOM     42  H5  UNL     1      41.389  21.861 -32.962  1.00  0.00     0.171 HD
BRANCH  41  43
HETATM   43  C17 UNL     1      40.594  20.160 -32.060  1.00  0.00     0.142 C 
HETATM   44  N6  UNL     1      40.591  18.897 -32.130  1.00  0.00    -0.370 N 
HETATM   45  C18 UNL     1      39.450  18.191 -31.734  1.00  0.00     0.132 C 
ATOM     46  H6  UNL     1      41.412  18.399 -32.472  1.00  0.00     0.161 HD
HETATM   47  C19 UNL     1      38.675  18.961 -30.660  1.00  0.00     0.102 C 
HETATM   48  S1  UNL     1      39.008  20.638 -31.383  1.00  0.00    -0.092 SA
ENDBRANCH  41  43
ENDBRANCH   1  39
TORSDOF 16
ENDMDL
