MODEL 1
REMARK VINA RESULT: -9.129035226      0.000      0.000
REMARK  13 active torsions:
REMARK  status: ('A' for Active; 'I' for Inactive)
REMARK    1  A    between atoms: C2_2  and  C3_4 
REMARK    2  A    between atoms: C3_4  and  N1_6 
REMARK    3  A    between atoms: N1_6  and  C5_8 
REMARK    4  A    between atoms: N3_12  and  C7_14 
REMARK    5  A    between atoms: C7_14  and  C8_15 
REMARK    6  A    between atoms: C11_18  and  C12_19 
REMARK    7  A    between atoms: C12_19  and  O2_20 
REMARK    8  A    between atoms: C12_19  and  N4_22 
REMARK    9  A    between atoms: C14_28  and  N7_29 
REMARK   10  A    between atoms: N12_45  and  C20_46 
REMARK   11  A    between atoms: C20_46  and  C21_47 
REMARK   12  A    between atoms: C21_47  and  O3_48 
REMARK   13  A    between atoms: C21_47  and  O4_50 
ROOT
HETATM    1  C5  UNL     1      43.742  21.735 -31.882  1.00  0.00     0.682 A 
HETATM    2  N2  UNL     1      44.528  21.765 -30.794  1.00  0.00    -0.174 N 
ATOM      3  H2  UNL     1      45.491  22.088 -30.882  1.00  0.00     0.186 HD
HETATM    4  C6  UNL     1      44.062  21.372 -29.571  1.00  0.00     0.151 A 
HETATM    5  N3  UNL     1      44.857  21.434 -28.606  1.00  0.00    -0.348 N 
ATOM      6  H3  UNL     1      45.776  21.783 -28.881  1.00  0.00     0.167 HD
HETATM    7  C18 UNL     1      42.766  20.941 -29.462  1.00  0.00     0.123 A 
HETATM    8  N11 UNL     1      41.981  20.492 -28.465  1.00  0.00    -0.346 N 
ATOM      9  H11 UNL     1      42.276  20.390 -27.494  1.00  0.00     0.167 HD
HETATM   10  C19 UNL     1      40.755  20.198 -28.931  1.00  0.00     0.185 A 
HETATM   11  N12 UNL     1      40.710  20.449 -30.253  1.00  0.00    -0.322 N 
HETATM   12  C22 UNL     1      41.931  20.903 -30.592  1.00  0.00     0.155 A 
HETATM   13  N13 UNL     1      42.468  21.307 -31.756  1.00  0.00    -0.174 N 
ATOM     14  H13 UNL     1      41.882  21.290 -32.590  1.00  0.00     0.186 HD
ENDROOT
BRANCH   5  15
HETATM   15  C7  UNL     1      44.787  21.138 -27.237  1.00  0.00     0.119 C 
BRANCH  15  16
HETATM   16  C8  UNL     1      46.067  21.436 -26.505  1.00  0.00     0.047 A 
HETATM   17  C9  UNL     1      46.353  20.753 -25.350  1.00  0.00     0.031 A 
HETATM   18  C10 UNL     1      47.508  20.991 -24.649  1.00  0.00     0.015 A 
HETATM   19  C11 UNL     1      48.371  21.933 -25.137  1.00  0.00     0.007 A 
HETATM   20  C17 UNL     1      48.071  22.614 -26.304  1.00  0.00     0.100 A 
HETATM   21  N10 UNL     1      46.922  22.358 -26.976  1.00  0.00    -0.364 N 
ATOM     22  H10 UNL     1      46.708  22.863 -27.835  1.00  0.00     0.165 HD
BRANCH  19  23
HETATM   23  C12 UNL     1      49.631  22.205 -24.392  1.00  0.00     0.280 C 
BRANCH  23  24
HETATM   24  O2  UNL     1      50.102  23.502 -24.683  1.00  0.00    -0.370 OA
ATOM     25  H2  UNL     1      51.049  23.500 -24.758  1.00  0.00     0.212 HD
ENDBRANCH  23  24
BRANCH  23  26
HETATM   26  N4  UNL     1      50.671  21.260 -24.777  1.00  0.00    -0.226 N 
HETATM   27  N5  UNL     1      50.507  19.999 -25.103  1.00  0.00    -0.236 N 
HETATM   28  N6  UNL     1      51.679  19.442 -25.399  1.00  0.00    -0.279 N 
ATOM     29  H5  UNL     1      49.609  19.515 -25.126  1.00  0.00     0.208 HD
HETATM   30  C13 UNL     1      52.648  20.357 -25.265  1.00  0.00     0.139 A 
ATOM     31  H6  UNL     1      51.817  18.472 -25.681  1.00  0.00     0.189 HD
HETATM   32  C14 UNL     1      54.015  20.362 -25.430  1.00  0.00     0.132 A 
HETATM   33  C16 UNL     1      51.990  21.518 -24.867  1.00  0.00     0.159 A 
HETATM   34  N8  UNL     1      54.726  21.483 -25.209  1.00  0.00    -0.337 N 
HETATM   35  C15 UNL     1      54.073  22.594 -24.824  1.00  0.00     0.183 A 
ATOM     36  H8  UNL     1      55.739  21.491 -25.331  1.00  0.00     0.168 HD
HETATM   37  N9  UNL     1      52.736  22.598 -24.661  1.00  0.00    -0.335 N 
ATOM     38  H9  UNL     1      52.279  23.463 -24.369  1.00  0.00     0.168 HD
BRANCH  32  39
HETATM   39  N7  UNL     1      54.636  19.274 -25.803  1.00  0.00    -0.383 N 
ATOM     40  H72 UNL     1      54.197  18.660 -26.488  1.00  0.00     0.157 HD
ATOM     41  H71 UNL     1      55.550  19.045 -25.412  1.00  0.00     0.157 HD
ENDBRANCH  32  39
ENDBRANCH  23  26
ENDBRANCH  19  23
ENDBRANCH  15  16
ENDBRANCH   5  15
BRANCH   1  42
HETATM   42  N1  UNL     1      44.118  22.090 -33.064  1.00  0.00    -0.215 N 
ATOM     43  H1  UNL     1      43.648  22.868 -33.527  1.00  0.00     0.178 HD
BRANCH  42  44
HETATM   44  C3  UNL     1      45.197  21.402 -33.745  1.00  0.00     0.164 C 
HETATM   45  C4  UNL     1      46.404  22.346 -33.871  1.00  0.00     0.041 C 
BRANCH  44  46
HETATM   46  C2  UNL     1      44.781  20.917 -35.086  1.00  0.00     0.145 C 
HETATM   47  C1  UNL     1      43.432  20.382 -35.336  1.00  0.00     0.093 C 
HETATM   48  O1  UNL     1      45.577  20.959 -36.006  1.00  0.00    -0.296 OA
ENDBRANCH  44  46
ENDBRANCH  42  44
ENDBRANCH   1  42
BRANCH  11  49
HETATM   49  C20 UNL     1      39.603  20.281 -31.173  1.00  0.00     0.191 C 
BRANCH  49  50
HETATM   50  C21 UNL     1      38.885  21.570 -31.396  1.00  0.00     0.272 C 
BRANCH  50  51
HETATM   51  O3  UNL     1      39.660  22.342 -32.286  1.00  0.00    -0.370 OA
ATOM     52  H3  UNL     1      39.103  23.030 -32.630  1.00  0.00     0.212 HD
ENDBRANCH  50  51
BRANCH  50  53
HETATM   53  O4  UNL     1      37.611  21.410 -31.913  1.00  0.00    -0.370 OA
ATOM     54  H4  UNL     1      37.568  20.787 -32.628  1.00  0.00     0.212 HD
ENDBRANCH  50  53
ENDBRANCH  49  50
ENDBRANCH  11  49
TORSDOF 13
ENDMDL
MODEL 2
REMARK VINA RESULT: -9.086683937      1.179      1.479
REMARK  13 active torsions:
REMARK  status: ('A' for Active; 'I' for Inactive)
REMARK    1  A    between atoms: C2_2  and  C3_4 
REMARK    2  A    between atoms: C3_4  and  N1_6 
REMARK    3  A    between atoms: N1_6  and  C5_8 
REMARK    4  A    between atoms: N3_12  and  C7_14 
REMARK    5  A    between atoms: C7_14  and  C8_15 
REMARK    6  A    between atoms: C11_18  and  C12_19 
REMARK    7  A    between atoms: C12_19  and  O2_20 
REMARK    8  A    between atoms: C12_19  and  N4_22 
REMARK    9  A    between atoms: C14_28  and  N7_29 
REMARK   10  A    between atoms: N12_45  and  C20_46 
REMARK   11  A    between atoms: C20_46  and  C21_47 
REMARK   12  A    between atoms: C21_47  and  O3_48 
REMARK   13  A    between atoms: C21_47  and  O4_50 
ROOT
HETATM    1  C5  UNL     1      43.767  20.522 -31.801  1.00  0.00     0.682 A 
HETATM    2  N2  UNL     1      44.586  20.937 -30.823  1.00  0.00    -0.174 N 
ATOM      3  H2  UNL     1      45.590  20.981 -30.997  1.00  0.00     0.186 HD
HETATM    4  C6  UNL     1      44.102  21.302 -29.598  1.00  0.00     0.151 A 
HETATM    5  N3  UNL     1      44.933  21.680 -28.741  1.00  0.00    -0.348 N 
ATOM      6  H3  UNL     1      45.890  21.662 -29.094  1.00  0.00     0.167 HD
HETATM    7  C18 UNL     1      42.751  21.240 -29.374  1.00  0.00     0.123 A 
HETATM    8  N11 UNL     1      41.935  21.506 -28.338  1.00  0.00    -0.346 N 
ATOM      9  H11 UNL     1      42.242  21.845 -27.427  1.00  0.00     0.167 HD
HETATM   10  C19 UNL     1      40.657  21.262 -28.675  1.00  0.00     0.185 A 
HETATM   11  N12 UNL     1      40.608  20.826 -29.948  1.00  0.00    -0.322 N 
HETATM   12  C22 UNL     1      41.880  20.807 -30.389  1.00  0.00     0.155 A 
HETATM   13  N13 UNL     1      42.440  20.468 -31.563  1.00  0.00    -0.174 N 
ATOM     14  H13 UNL     1      41.828  20.151 -32.315  1.00  0.00     0.186 HD
ENDROOT
BRANCH   5  15
HETATM   15  C7  UNL     1      44.861  22.123 -27.412  1.00  0.00     0.119 C 
BRANCH  15  16
HETATM   16  C8  UNL     1      46.204  22.179 -26.738  1.00  0.00     0.047 A 
HETATM   17  C9  UNL     1      46.464  21.330 -25.693  1.00  0.00     0.031 A 
HETATM   18  C10 UNL     1      47.675  21.343 -25.047  1.00  0.00     0.015 A 
HETATM   19  C11 UNL     1      48.621  22.233 -25.479  1.00  0.00     0.007 A 
HETATM   20  C17 UNL     1      48.346  23.083 -26.536  1.00  0.00     0.100 A 
HETATM   21  N10 UNL     1      47.140  23.047 -27.155  1.00  0.00    -0.364 N 
ATOM     22  H10 UNL     1      46.944  23.676 -27.933  1.00  0.00     0.165 HD
BRANCH  19  23
HETATM   23  C12 UNL     1      49.942  22.264 -24.793  1.00  0.00     0.280 C 
BRANCH  23  24
HETATM   24  O2  UNL     1      50.594  23.489 -25.041  1.00  0.00    -0.370 OA
ATOM     25  H2  UNL     1      50.777  23.937 -24.224  1.00  0.00     0.212 HD
ENDBRANCH  23  24
BRANCH  23  26
HETATM   26  N4  UNL     1      50.803  21.198 -25.288  1.00  0.00    -0.226 N 
HETATM   27  N5  UNL     1      50.824  19.950 -24.881  1.00  0.00    -0.236 N 
HETATM   28  N6  UNL     1      51.738  19.258 -25.557  1.00  0.00    -0.279 N 
ATOM     29  H5  UNL     1      50.226  19.565 -24.149  1.00  0.00     0.208 HD
HETATM   30  C13 UNL     1      52.341  20.068 -26.438  1.00  0.00     0.139 A 
ATOM     31  H6  UNL     1      51.947  18.268 -25.426  1.00  0.00     0.189 HD
HETATM   32  C14 UNL     1      53.334  19.918 -27.380  1.00  0.00     0.132 A 
HETATM   33  C16 UNL     1      51.733  21.308 -26.257  1.00  0.00     0.159 A 
HETATM   34  N8  UNL     1      53.725  20.964 -28.132  1.00  0.00    -0.337 N 
HETATM   35  C15 UNL     1      53.127  22.153 -27.942  1.00  0.00     0.183 A 
ATOM     36  H8  UNL     1      54.460  20.856 -28.831  1.00  0.00     0.168 HD
HETATM   37  N9  UNL     1      52.154  22.308 -27.023  1.00  0.00    -0.335 N 
ATOM     38  H9  UNL     1      51.726  23.227 -26.911  1.00  0.00     0.168 HD
BRANCH  32  39
HETATM   39  N7  UNL     1      53.907  18.756 -27.553  1.00  0.00    -0.383 N 
ATOM     40  H72 UNL     1      53.804  18.038 -26.836  1.00  0.00     0.157 HD
ATOM     41  H71 UNL     1      54.449  18.572 -28.397  1.00  0.00     0.157 HD
ENDBRANCH  32  39
ENDBRANCH  23  26
ENDBRANCH  19  23
ENDBRANCH  15  16
ENDBRANCH   5  15
BRANCH   1  42
HETATM   42  N1  UNL     1      44.157  20.163 -32.978  1.00  0.00    -0.215 N 
ATOM     43  H1  UNL     1      44.592  19.249 -33.104  1.00  0.00     0.178 HD
BRANCH  42  44
HETATM   44  C3  UNL     1      43.988  21.036 -34.122  1.00  0.00     0.164 C 
HETATM   45  C4  UNL     1      43.113  20.334 -35.174  1.00  0.00     0.041 C 
BRANCH  44  46
HETATM   46  C2  UNL     1      45.293  21.427 -34.715  1.00  0.00     0.145 C 
HETATM   47  C1  UNL     1      46.232  22.316 -34.012  1.00  0.00     0.093 C 
HETATM   48  O1  UNL     1      45.596  21.003 -35.815  1.00  0.00    -0.296 OA
ENDBRANCH  44  46
ENDBRANCH  42  44
ENDBRANCH   1  42
BRANCH  11  49
HETATM   49  C20 UNL     1      39.453  20.440 -30.734  1.00  0.00     0.191 C 
BRANCH  49  50
HETATM   50  C21 UNL     1      38.753  21.635 -31.290  1.00  0.00     0.272 C 
BRANCH  50  51
HETATM   51  O3  UNL     1      39.655  22.297 -32.148  1.00  0.00    -0.370 OA
ATOM     52  H3  UNL     1      39.147  22.702 -32.841  1.00  0.00     0.212 HD
ENDBRANCH  50  51
BRANCH  50  53
HETATM   53  O4  UNL     1      37.597  21.324 -31.985  1.00  0.00    -0.370 OA
ATOM     54  H4  UNL     1      37.699  21.371 -32.928  1.00  0.00     0.212 HD
ENDBRANCH  50  53
ENDBRANCH  49  50
ENDBRANCH  11  49
TORSDOF 13
ENDMDL
MODEL 3
REMARK VINA RESULT: -9.012083317      1.898      4.197
REMARK  13 active torsions:
REMARK  status: ('A' for Active; 'I' for Inactive)
REMARK    1  A    between atoms: C2_2  and  C3_4 
REMARK    2  A    between atoms: C3_4  and  N1_6 
REMARK    3  A    between atoms: N1_6  and  C5_8 
REMARK    4  A    between atoms: N3_12  and  C7_14 
REMARK    5  A    between atoms: C7_14  and  C8_15 
REMARK    6  A    between atoms: C11_18  and  C12_19 
REMARK    7  A    between atoms: C12_19  and  O2_20 
REMARK    8  A    between atoms: C12_19  and  N4_22 
REMARK    9  A    between atoms: C14_28  and  N7_29 
REMARK   10  A    between atoms: N12_45  and  C20_46 
REMARK   11  A    between atoms: C20_46  and  C21_47 
REMARK   12  A    between atoms: C21_47  and  O3_48 
REMARK   13  A    between atoms: C21_47  and  O4_50 
ROOT
HETATM    1  C5  UNL     1      41.356  22.058 -30.485  1.00  0.00     0.682 A 
HETATM    2  N2  UNL     1      41.931  22.648 -29.426  1.00  0.00    -0.174 N 
ATOM      3  H2  UNL     1      41.408  22.726 -28.554  1.00  0.00     0.186 HD
HETATM    4  C6  UNL     1      43.202  23.146 -29.493  1.00  0.00     0.151 A 
HETATM    5  N3  UNL     1      43.665  23.678 -28.459  1.00  0.00    -0.348 N 
ATOM      6  H3  UNL     1      43.002  23.663 -27.683  1.00  0.00     0.167 HD
HETATM    7  C18 UNL     1      43.896  23.036 -30.669  1.00  0.00     0.123 A 
HETATM    8  N11 UNL     1      45.119  23.392 -31.101  1.00  0.00    -0.346 N 
ATOM      9  H11 UNL     1      45.820  23.869 -30.535  1.00  0.00     0.167 HD
HETATM   10  C19 UNL     1      45.286  23.030 -32.385  1.00  0.00     0.185 A 
HETATM   11  N12 UNL     1      44.166  22.425 -32.825  1.00  0.00    -0.322 N 
HETATM   12  C22 UNL     1      43.308  22.420 -31.788  1.00  0.00     0.155 A 
HETATM   13  N13 UNL     1      42.055  21.958 -31.636  1.00  0.00    -0.174 N 
ATOM     14  H13 UNL     1      41.607  21.507 -32.434  1.00  0.00     0.186 HD
ENDROOT
BRANCH   5  15
HETATM   15  C7  UNL     1      44.879  24.290 -28.112  1.00  0.00     0.119 C 
BRANCH  15  16
HETATM   16  C8  UNL     1      45.782  23.392 -27.311  1.00  0.00     0.047 A 
HETATM   17  C9  UNL     1      47.045  23.823 -26.994  1.00  0.00     0.031 A 
HETATM   18  C10 UNL     1      47.903  23.040 -26.265  1.00  0.00     0.015 A 
HETATM   19  C11 UNL     1      47.461  21.810 -25.860  1.00  0.00     0.007 A 
HETATM   20  C17 UNL     1      46.183  21.388 -26.185  1.00  0.00     0.100 A 
HETATM   21  N10 UNL     1      45.357  22.184 -26.907  1.00  0.00    -0.364 N 
ATOM     22  H10 UNL     1      44.417  21.867 -27.143  1.00  0.00     0.165 HD
BRANCH  19  23
HETATM   23  C12 UNL     1      48.376  20.945 -25.067  1.00  0.00     0.280 C 
BRANCH  23  24
HETATM   24  O2  UNL     1      47.696  20.396 -23.960  1.00  0.00    -0.370 OA
ATOM     25  H2  UNL     1      47.650  19.450 -24.037  1.00  0.00     0.212 HD
ENDBRANCH  23  24
BRANCH  23  26
HETATM   26  N4  UNL     1      49.500  21.718 -24.555  1.00  0.00    -0.226 N 
HETATM   27  N5  UNL     1      49.528  22.429 -23.452  1.00  0.00    -0.236 N 
HETATM   28  N6  UNL     1      50.721  23.001 -23.301  1.00  0.00    -0.279 N 
ATOM     29  H5  UNL     1      48.748  22.529 -22.803  1.00  0.00     0.208 HD
HETATM   30  C13 UNL     1      51.505  22.662 -24.333  1.00  0.00     0.139 A 
ATOM     31  H6  UNL     1      50.994  23.602 -22.524  1.00  0.00     0.189 HD
HETATM   32  C14 UNL     1      52.801  22.943 -24.707  1.00  0.00     0.132 A 
HETATM   33  C16 UNL     1      50.713  21.840 -25.129  1.00  0.00     0.159 A 
HETATM   34  N8  UNL     1      53.311  22.428 -25.841  1.00  0.00    -0.337 N 
HETATM   35  C15 UNL     1      52.529  21.637 -26.597  1.00  0.00     0.183 A 
ATOM     36  H8  UNL     1      54.270  22.634 -26.121  1.00  0.00     0.168 HD
HETATM   37  N9  UNL     1      51.262  21.357 -26.238  1.00  0.00    -0.335 N 
ATOM     38  H9  UNL     1      50.703  20.752 -26.841  1.00  0.00     0.168 HD
BRANCH  32  39
HETATM   39  N7  UNL     1      53.548  23.714 -23.962  1.00  0.00    -0.383 N 
ATOM     40  H72 UNL     1      54.242  24.315 -24.406  1.00  0.00     0.157 HD
ATOM     41  H71 UNL     1      53.436  23.714 -22.948  1.00  0.00     0.157 HD
ENDBRANCH  32  39
ENDBRANCH  23  26
ENDBRANCH  19  23
ENDBRANCH  15  16
ENDBRANCH   5  15
BRANCH   1  42
HETATM   42  N1  UNL     1      40.162  21.568 -30.491  1.00  0.00    -0.215 N 
ATOM     43  H1  UNL     1      39.566  21.691 -29.672  1.00  0.00     0.178 HD
BRANCH  42  44
HETATM   44  C3  UNL     1      39.654  20.847 -31.640  1.00  0.00     0.164 C 
HETATM   45  C4  UNL     1      38.133  21.053 -31.740  1.00  0.00     0.041 C 
BRANCH  44  46
HETATM   46  C2  UNL     1      39.973  19.398 -31.568  1.00  0.00     0.145 C 
HETATM   47  C1  UNL     1      39.026  18.421 -31.005  1.00  0.00     0.093 C 
HETATM   48  O1  UNL     1      41.047  19.005 -31.982  1.00  0.00    -0.296 OA
ENDBRANCH  44  46
ENDBRANCH  42  44
ENDBRANCH   1  42
BRANCH  11  49
HETATM   49  C20 UNL     1      43.885  21.873 -34.136  1.00  0.00     0.191 C 
BRANCH  49  50
HETATM   50  C21 UNL     1      44.336  20.454 -34.233  1.00  0.00     0.272 C 
BRANCH  50  51
HETATM   51  O3  UNL     1      43.355  19.652 -33.613  1.00  0.00    -0.370 OA
ATOM     52  H3  UNL     1      43.770  18.837 -33.358  1.00  0.00     0.212 HD
ENDBRANCH  50  51
BRANCH  50  53
HETATM   53  O4  UNL     1      44.530  20.024 -35.534  1.00  0.00    -0.370 OA
ATOM     54  H4  UNL     1      45.064  19.242 -35.599  1.00  0.00     0.212 HD
ENDBRANCH  50  53
ENDBRANCH  49  50
ENDBRANCH  11  49
TORSDOF 13
ENDMDL
MODEL 4
REMARK VINA RESULT: -8.950817883      1.540      1.933
REMARK  13 active torsions:
REMARK  status: ('A' for Active; 'I' for Inactive)
REMARK    1  A    between atoms: C2_2  and  C3_4 
REMARK    2  A    between atoms: C3_4  and  N1_6 
REMARK    3  A    between atoms: N1_6  and  C5_8 
REMARK    4  A    between atoms: N3_12  and  C7_14 
REMARK    5  A    between atoms: C7_14  and  C8_15 
REMARK    6  A    between atoms: C11_18  and  C12_19 
REMARK    7  A    between atoms: C12_19  and  O2_20 
REMARK    8  A    between atoms: C12_19  and  N4_22 
REMARK    9  A    between atoms: C14_28  and  N7_29 
REMARK   10  A    between atoms: N12_45  and  C20_46 
REMARK   11  A    between atoms: C20_46  and  C21_47 
REMARK   12  A    between atoms: C21_47  and  O3_48 
REMARK   13  A    between atoms: C21_47  and  O4_50 
ROOT
HETATM    1  C5  UNL     1      43.682  20.398 -32.139  1.00  0.00     0.682 A 
HETATM    2  N2  UNL     1      44.440  20.711 -31.077  1.00  0.00    -0.174 N 
ATOM      3  H2  UNL     1      45.454  20.743 -31.179  1.00  0.00     0.186 HD
HETATM    4  C6  UNL     1      43.880  20.986 -29.861  1.00  0.00     0.151 A 
HETATM    5  N3  UNL     1      44.657  21.273 -28.922  1.00  0.00    -0.348 N 
ATOM      6  H3  UNL     1      45.636  21.259 -29.210  1.00  0.00     0.167 HD
HETATM    7  C18 UNL     1      42.517  20.941 -29.733  1.00  0.00     0.123 A 
HETATM    8  N11 UNL     1      41.636  21.142 -28.736  1.00  0.00    -0.346 N 
ATOM      9  H11 UNL     1      41.887  21.398 -27.781  1.00  0.00     0.167 HD
HETATM   10  C19 UNL     1      40.380  20.959 -29.177  1.00  0.00     0.185 A 
HETATM   11  N12 UNL     1      40.410  20.629 -30.482  1.00  0.00    -0.322 N 
HETATM   12  C22 UNL     1      41.709  20.615 -30.836  1.00  0.00     0.155 A 
HETATM   13  N13 UNL     1      42.340  20.358 -31.995  1.00  0.00    -0.174 N 
ATOM     14  H13 UNL     1      41.776  20.119 -32.809  1.00  0.00     0.186 HD
ENDROOT
BRANCH   5  15
HETATM   15  C7  UNL     1      44.503  21.608 -27.569  1.00  0.00     0.119 C 
BRANCH  15  16
HETATM   16  C8  UNL     1      45.815  21.771 -26.851  1.00  0.00     0.047 A 
HETATM   17  C9  UNL     1      46.675  22.765 -27.245  1.00  0.00     0.031 A 
HETATM   18  C10 UNL     1      47.881  22.952 -26.620  1.00  0.00     0.015 A 
HETATM   19  C11 UNL     1      48.204  22.116 -25.587  1.00  0.00     0.007 A 
HETATM   20  C17 UNL     1      47.328  21.117 -25.199  1.00  0.00     0.100 A 
HETATM   21  N10 UNL     1      46.142  20.956 -25.835  1.00  0.00    -0.364 N 
ATOM     22  H10 UNL     1      45.500  20.219 -25.544  1.00  0.00     0.165 HD
BRANCH  19  23
HETATM   23  C12 UNL     1      49.509  22.302 -24.894  1.00  0.00     0.280 C 
BRANCH  23  24
HETATM   24  O2  UNL     1      50.053  23.565 -25.206  1.00  0.00    -0.370 OA
ATOM     25  H2  UNL     1      50.634  23.855 -24.512  1.00  0.00     0.212 HD
ENDBRANCH  23  24
BRANCH  23  26
HETATM   26  N4  UNL     1      50.467  21.291 -25.322  1.00  0.00    -0.226 N 
HETATM   27  N5  UNL     1      50.574  20.065 -24.866  1.00  0.00    -0.236 N 
HETATM   28  N6  UNL     1      51.561  19.424 -25.489  1.00  0.00    -0.279 N 
ATOM     29  H5  UNL     1      49.984  19.660 -24.139  1.00  0.00     0.208 HD
HETATM   30  C13 UNL     1      52.126  20.248 -26.382  1.00  0.00     0.139 A 
ATOM     31  H6  UNL     1      51.842  18.460 -25.314  1.00  0.00     0.189 HD
HETATM   32  C14 UNL     1      53.158  20.144 -27.288  1.00  0.00     0.132 A 
HETATM   33  C16 UNL     1      51.417  21.440 -26.266  1.00  0.00     0.159 A 
HETATM   34  N8  UNL     1      53.490  21.190 -28.067  1.00  0.00    -0.337 N 
HETATM   35  C15 UNL     1      52.794  22.334 -27.940  1.00  0.00     0.183 A 
ATOM     36  H8  UNL     1      54.254  21.117 -28.740  1.00  0.00     0.168 HD
HETATM   37  N9  UNL     1      51.783  22.443 -27.057  1.00  0.00    -0.335 N 
ATOM     38  H9  UNL     1      51.280  23.329 -26.993  1.00  0.00     0.168 HD
BRANCH  32  39
HETATM   39  N7  UNL     1      53.826  19.026 -27.399  1.00  0.00    -0.383 N 
ATOM     40  H72 UNL     1      53.330  18.173 -27.654  1.00  0.00     0.157 HD
ATOM     41  H71 UNL     1      54.832  19.011 -27.233  1.00  0.00     0.157 HD
ENDBRANCH  32  39
ENDBRANCH  23  26
ENDBRANCH  19  23
ENDBRANCH  15  16
ENDBRANCH   5  15
BRANCH   1  42
HETATM   42  N1  UNL     1      44.145  20.126 -33.312  1.00  0.00    -0.215 N 
ATOM     43  H1  UNL     1      44.639  19.247 -33.465  1.00  0.00     0.178 HD
BRANCH  42  44
HETATM   44  C3  UNL     1      43.975  21.049 -34.416  1.00  0.00     0.164 C 
HETATM   45  C4  UNL     1      43.180  20.360 -35.539  1.00  0.00     0.041 C 
BRANCH  44  46
HETATM   46  C2  UNL     1      45.279  21.536 -34.935  1.00  0.00     0.145 C 
HETATM   47  C1  UNL     1      46.150  22.420 -34.142  1.00  0.00     0.093 C 
HETATM   48  O1  UNL     1      45.640  21.198 -36.047  1.00  0.00    -0.296 OA
ENDBRANCH  44  46
ENDBRANCH  42  44
ENDBRANCH   1  42
BRANCH  11  49
HETATM   49  C20 UNL     1      39.304  20.338 -31.373  1.00  0.00     0.191 C 
BRANCH  49  50
HETATM   50  C21 UNL     1      39.018  18.874 -31.418  1.00  0.00     0.272 C 
BRANCH  50  51
HETATM   51  O3  UNL     1      40.223  18.213 -31.734  1.00  0.00    -0.370 OA
ATOM     52  H3  UNL     1      40.536  18.565 -32.559  1.00  0.00     0.212 HD
ENDBRANCH  50  51
BRANCH  50  53
HETATM   53  O4  UNL     1      38.513  18.373 -30.231  1.00  0.00    -0.370 OA
ATOM     54  H4  UNL     1      39.153  17.889 -29.722  1.00  0.00     0.212 HD
ENDBRANCH  50  53
ENDBRANCH  49  50
ENDBRANCH  11  49
TORSDOF 13
ENDMDL
MODEL 5
REMARK VINA RESULT: -8.726463382      1.556      3.806
REMARK  13 active torsions:
REMARK  status: ('A' for Active; 'I' for Inactive)
REMARK    1  A    between atoms: C2_2  and  C3_4 
REMARK    2  A    between atoms: C3_4  and  N1_6 
REMARK    3  A    between atoms: N1_6  and  C5_8 
REMARK    4  A    between atoms: N3_12  and  C7_14 
REMARK    5  A    between atoms: C7_14  and  C8_15 
REMARK    6  A    between atoms: C11_18  and  C12_19 
REMARK    7  A    between atoms: C12_19  and  O2_20 
REMARK    8  A    between atoms: C12_19  and  N4_22 
REMARK    9  A    between atoms: C14_28  and  N7_29 
REMARK   10  A    between atoms: N12_45  and  C20_46 
REMARK   11  A    between atoms: C20_46  and  C21_47 
REMARK   12  A    between atoms: C21_47  and  O3_48 
REMARK   13  A    between atoms: C21_47  and  O4_50 
ROOT
HETATM    1  C5  UNL     1      42.245  21.425 -30.024  1.00  0.00     0.682 A 
HETATM    2  N2  UNL     1      42.891  21.984 -28.990  1.00  0.00    -0.174 N 
ATOM      3  H2  UNL     1      42.504  21.895 -28.051  1.00  0.00     0.186 HD
HETATM    4  C6  UNL     1      44.059  22.672 -29.170  1.00  0.00     0.151 A 
HETATM    5  N3  UNL     1      44.600  23.161 -28.152  1.00  0.00    -0.348 N 
ATOM      6  H3  UNL     1      44.072  22.968 -27.301  1.00  0.00     0.167 HD
HETATM    7  C18 UNL     1      44.572  22.787 -30.435  1.00  0.00     0.123 A 
HETATM    8  N11 UNL     1      45.656  23.365 -30.985  1.00  0.00    -0.346 N 
ATOM      9  H11 UNL     1      46.365  23.883 -30.466  1.00  0.00     0.167 HD
HETATM   10  C19 UNL     1      45.670  23.163 -32.313  1.00  0.00     0.185 A 
HETATM   11  N12 UNL     1      44.588  22.444 -32.666  1.00  0.00    -0.322 N 
HETATM   12  C22 UNL     1      43.908  22.206 -31.529  1.00  0.00     0.155 A 
HETATM   13  N13 UNL     1      42.766  21.548 -31.264  1.00  0.00    -0.174 N 
ATOM     14  H13 UNL     1      42.266  21.118 -32.041  1.00  0.00     0.186 HD
ENDROOT
BRANCH   5  15
HETATM   15  C7  UNL     1      45.759  23.910 -27.904  1.00  0.00     0.119 C 
BRANCH  15  16
HETATM   16  C8  UNL     1      46.707  23.229 -26.955  1.00  0.00     0.047 A 
HETATM   17  C9  UNL     1      46.285  22.119 -26.268  1.00  0.00     0.031 A 
HETATM   18  C10 UNL     1      47.114  21.464 -25.393  1.00  0.00     0.015 A 
HETATM   19  C11 UNL     1      48.381  21.952 -25.224  1.00  0.00     0.007 A 
HETATM   20  C17 UNL     1      48.794  23.072 -25.924  1.00  0.00     0.100 A 
HETATM   21  N10 UNL     1      47.953  23.699 -26.782  1.00  0.00    -0.364 N 
ATOM     22  H10 UNL     1      48.265  24.523 -27.295  1.00  0.00     0.165 HD
BRANCH  19  23
HETATM   23  C12 UNL     1      49.296  21.256 -24.279  1.00  0.00     0.280 C 
BRANCH  23  24
HETATM   24  O2  UNL     1      49.520  22.053 -23.136  1.00  0.00    -0.370 OA
ATOM     25  H2  UNL     1      50.007  22.834 -23.369  1.00  0.00     0.212 HD
ENDBRANCH  23  24
BRANCH  23  26
HETATM   26  N4  UNL     1      50.589  21.009 -24.904  1.00  0.00    -0.226 N 
HETATM   27  N5  UNL     1      50.919  19.981 -25.650  1.00  0.00    -0.236 N 
HETATM   28  N6  UNL     1      52.184  20.087 -26.052  1.00  0.00    -0.279 N 
ATOM     29  H5  UNL     1      50.295  19.210 -25.889  1.00  0.00     0.208 HD
HETATM   30  C13 UNL     1      52.709  21.216 -25.557  1.00  0.00     0.139 A 
ATOM     31  H6  UNL     1      52.675  19.415 -26.641  1.00  0.00     0.189 HD
HETATM   32  C14 UNL     1      53.937  21.835 -25.633  1.00  0.00     0.132 A 
HETATM   33  C16 UNL     1      51.678  21.799 -24.825  1.00  0.00     0.159 A 
HETATM   34  N8  UNL     1      54.152  23.004 -25.001  1.00  0.00    -0.337 N 
HETATM   35  C15 UNL     1      53.144  23.551 -24.298  1.00  0.00     0.183 A 
ATOM     36  H8  UNL     1      55.060  23.466 -25.055  1.00  0.00     0.168 HD
HETATM   37  N9  UNL     1      51.940  22.952 -24.220  1.00  0.00    -0.335 N 
ATOM     38  H9  UNL     1      51.203  23.401 -23.676  1.00  0.00     0.168 HD
BRANCH  32  39
HETATM   39  N7  UNL     1      54.907  21.291 -26.319  1.00  0.00    -0.383 N 
ATOM     40  H72 UNL     1      54.960  20.275 -26.387  1.00  0.00     0.157 HD
ATOM     41  H71 UNL     1      55.601  21.879 -26.782  1.00  0.00     0.157 HD
ENDBRANCH  32  39
ENDBRANCH  23  26
ENDBRANCH  19  23
ENDBRANCH  15  16
ENDBRANCH   5  15
BRANCH   1  42
HETATM   42  N1  UNL     1      41.141  20.765 -29.925  1.00  0.00    -0.215 N 
ATOM     43  H1  UNL     1      40.884  20.349 -29.030  1.00  0.00     0.178 HD
BRANCH  42  44
HETATM   44  C3  UNL     1      40.260  20.604 -31.064  1.00  0.00     0.164 C 
HETATM   45  C4  UNL     1      38.816  20.925 -30.642  1.00  0.00     0.041 C 
BRANCH  44  46
HETATM   46  C2  UNL     1      40.336  19.233 -31.632  1.00  0.00     0.145 C 
HETATM   47  C1  UNL     1      39.250  18.255 -31.452  1.00  0.00     0.093 C 
HETATM   48  O1  UNL     1      41.325  18.905 -32.262  1.00  0.00    -0.296 OA
ENDBRANCH  44  46
ENDBRANCH  42  44
ENDBRANCH   1  42
BRANCH  11  49
HETATM   49  C20 UNL     1      44.186  21.992 -33.983  1.00  0.00     0.191 C 
BRANCH  49  50
HETATM   50  C21 UNL     1      44.569  20.567 -34.206  1.00  0.00     0.272 C 
BRANCH  50  51
HETATM   51  O3  UNL     1      43.467  19.766 -33.843  1.00  0.00    -0.370 OA
ATOM     52  H3  UNL     1      43.776  19.113 -33.227  1.00  0.00     0.212 HD
ENDBRANCH  50  51
BRANCH  50  53
HETATM   53  O4  UNL     1      44.931  20.291 -35.513  1.00  0.00    -0.370 OA
ATOM     54  H4  UNL     1      44.817  21.028 -36.101  1.00  0.00     0.212 HD
ENDBRANCH  50  53
ENDBRANCH  49  50
ENDBRANCH  11  49
TORSDOF 13
ENDMDL
