MODEL 1
REMARK VINA RESULT: -8.269435295      0.000      0.000
REMARK  7 active torsions:
REMARK  status: ('A' for Active; 'I' for Inactive)
REMARK       I    between atoms: C1_4  and  N3_6 
REMARK    1  A    between atoms: N3_6  and  C2_8 
REMARK    2  A    between atoms: C4_12  and  O1_13 
REMARK    3  A    between atoms: O1_13  and  C5_14 
REMARK    4  A    between atoms: C5_14  and  C6_15 
REMARK    5  A    between atoms: C6_15  and  C7_17 
REMARK    6  A    between atoms: C7_17  and  S1_18 
REMARK    7  A    between atoms: S1_18  and  C8_19 
ROOT
HETATM    1  C2  UNL     1      -0.963   9.596  10.609  1.00  0.00     0.687 A 
HETATM    2  N4  UNL     1      -0.322   8.569  10.050  1.00  0.00    -0.199 N 
ATOM      3  H4  UNL     1       0.041   8.668   9.102  1.00  0.00     0.183 HD
HETATM    4  C3  UNL     1      -0.137   7.389  10.711  1.00  0.00     0.148 A 
HETATM    5  C4  UNL     1      -0.605   7.202  11.987  1.00  0.00     0.153 A 
HETATM    6  C14 UNL     1      -1.275   8.296  12.557  1.00  0.00     0.294 A 
HETATM    7  O3  UNL     1      -1.721   8.167  13.730  1.00  0.00    -0.265 OA
HETATM    8  N5  UNL     1      -1.437   9.436  11.878  1.00  0.00    -0.153 N 
ATOM      9  H5  UNL     1      -1.930  10.211  12.323  1.00  0.00     0.187 HD
ENDROOT
BRANCH   5  10
HETATM   10  O1  UNL     1      -0.432   6.035  12.668  1.00  0.00    -0.337 OA
BRANCH  10  11
HETATM   11  C5  UNL     1       0.690   5.522  13.297  1.00  0.00     0.255 C 
BRANCH  11  12
HETATM   12  C6  UNL     1       0.544   5.243  14.723  1.00  0.00     0.160 C 
HETATM   13  O2  UNL     1       0.561   6.242  15.477  1.00  0.00    -0.295 OA
BRANCH  12  14
HETATM   14  C7  UNL     1       0.377   3.962  15.405  1.00  0.00     0.160 C 
BRANCH  14  15
HETATM   15  S1  UNL     1      -1.270   3.308  15.514  1.00  0.00    -0.122 SA
BRANCH  15  16
HETATM   16  C8  UNL     1      -2.507   4.577  15.668  1.00  0.00     0.001 A 
HETATM   17  C9  UNL     1      -2.809   5.247  16.832  1.00  0.00     0.018 A 
HETATM   18  C10 UNL     1      -3.787   6.227  16.893  1.00  0.00     0.001 A 
HETATM   19  C11 UNL     1      -4.503   6.569  15.762  1.00  0.00     0.000 A 
HETATM   20  C12 UNL     1      -4.221   5.914  14.584  1.00  0.00     0.001 A 
HETATM   21  C13 UNL     1      -3.248   4.946  14.546  1.00  0.00     0.018 A 
ENDBRANCH  15  16
ENDBRANCH  14  15
ENDBRANCH  12  14
ENDBRANCH  11  12
ENDBRANCH  10  11
ENDBRANCH   5  10
BRANCH   1  22
HETATM   22  N3  UNL     1      -1.142  10.693   9.999  1.00  0.00    -0.164 N 
HETATM   23  C1  UNL     1      -0.968  10.802   8.603  1.00  0.00     0.200 C 
HETATM   24  N1  UNL     1      -1.762  10.281   7.739  1.00  0.00    -0.373 N 
HETATM   25  N2  UNL     1       0.176  11.560   8.167  1.00  0.00    -0.063 NA
ATOM     26  H12 UNL     1      -1.636  10.360   6.730  1.00  0.00     0.158 HD
ATOM     27  H11 UNL     1      -2.571   9.744   8.047  1.00  0.00     0.158 HD
ATOM     28  H3  UNL     1      -1.419  11.517  10.531  1.00  0.00     0.187 HD
ENDBRANCH   1  22
TORSDOF 7
ENDMDL
MODEL 2
REMARK VINA RESULT: -8.119997565      0.634      1.687
REMARK  7 active torsions:
REMARK  status: ('A' for Active; 'I' for Inactive)
REMARK       I    between atoms: C1_4  and  N3_6 
REMARK    1  A    between atoms: N3_6  and  C2_8 
REMARK    2  A    between atoms: C4_12  and  O1_13 
REMARK    3  A    between atoms: O1_13  and  C5_14 
REMARK    4  A    between atoms: C5_14  and  C6_15 
REMARK    5  A    between atoms: C6_15  and  C7_17 
REMARK    6  A    between atoms: C7_17  and  S1_18 
REMARK    7  A    between atoms: S1_18  and  C8_19 
ROOT
HETATM    1  C2  UNL     1      -0.812   9.564  10.782  1.00  0.00     0.687 A 
HETATM    2  N4  UNL     1      -1.455   9.287  11.916  1.00  0.00    -0.199 N 
ATOM      3  H4  UNL     1      -2.097   9.979  12.303  1.00  0.00     0.183 HD
HETATM    4  C3  UNL     1      -1.279   8.104  12.575  1.00  0.00     0.148 A 
HETATM    5  C4  UNL     1      -0.427   7.140  12.098  1.00  0.00     0.153 A 
HETATM    6  C14 UNL     1       0.239   7.451  10.903  1.00  0.00     0.294 A 
HETATM    7  O3  UNL     1       1.031   6.591  10.429  1.00  0.00    -0.265 OA
HETATM    8  N5  UNL     1       0.041   8.621  10.286  1.00  0.00    -0.153 N 
ATOM      9  H5  UNL     1       0.542   8.814   9.419  1.00  0.00     0.187 HD
ENDROOT
BRANCH   5  10
HETATM   10  O1  UNL     1      -0.234   5.951  12.736  1.00  0.00    -0.337 OA
BRANCH  10  11
HETATM   11  C5  UNL     1       0.838   5.502  13.489  1.00  0.00     0.255 C 
BRANCH  11  12
HETATM   12  C6  UNL     1       0.555   5.235  14.896  1.00  0.00     0.160 C 
HETATM   13  O2  UNL     1       0.441   6.244  15.629  1.00  0.00    -0.295 OA
BRANCH  12  14
HETATM   14  C7  UNL     1       0.380   3.956  15.581  1.00  0.00     0.160 C 
BRANCH  14  15
HETATM   15  S1  UNL     1      -1.268   3.307  15.683  1.00  0.00    -0.122 SA
BRANCH  15  16
HETATM   16  C8  UNL     1      -2.513   4.578  15.647  1.00  0.00     0.001 A 
HETATM   17  C9  UNL     1      -3.134   5.042  14.510  1.00  0.00     0.018 A 
HETATM   18  C10 UNL     1      -4.096   6.038  14.542  1.00  0.00     0.001 A 
HETATM   19  C11 UNL     1      -4.471   6.607  15.745  1.00  0.00     0.000 A 
HETATM   20  C12 UNL     1      -3.866   6.161  16.898  1.00  0.00     0.001 A 
HETATM   21  C13 UNL     1      -2.914   5.173  16.843  1.00  0.00     0.018 A 
ENDBRANCH  15  16
ENDBRANCH  14  15
ENDBRANCH  12  14
ENDBRANCH  11  12
ENDBRANCH  10  11
ENDBRANCH   5  10
BRANCH   1  22
HETATM   22  N3  UNL     1      -0.967  10.662  10.168  1.00  0.00    -0.164 N 
HETATM   23  C1  UNL     1      -0.781  10.766   8.773  1.00  0.00     0.200 C 
HETATM   24  N1  UNL     1      -1.576  10.257   7.904  1.00  0.00    -0.373 N 
HETATM   25  N2  UNL     1       0.380  11.503   8.345  1.00  0.00    -0.063 NA
ATOM     26  H12 UNL     1      -1.441  10.332   6.896  1.00  0.00     0.158 HD
ATOM     27  H11 UNL     1      -2.398   9.736   8.208  1.00  0.00     0.158 HD
ATOM     28  H3  UNL     1      -1.233  11.493  10.697  1.00  0.00     0.187 HD
ENDBRANCH   1  22
TORSDOF 7
ENDMDL
MODEL 3
REMARK VINA RESULT: -8.102366751      1.161      1.614
REMARK  7 active torsions:
REMARK  status: ('A' for Active; 'I' for Inactive)
REMARK       I    between atoms: C1_4  and  N3_6 
REMARK    1  A    between atoms: N3_6  and  C2_8 
REMARK    2  A    between atoms: C4_12  and  O1_13 
REMARK    3  A    between atoms: O1_13  and  C5_14 
REMARK    4  A    between atoms: C5_14  and  C6_15 
REMARK    5  A    between atoms: C6_15  and  C7_17 
REMARK    6  A    between atoms: C7_17  and  S1_18 
REMARK    7  A    between atoms: S1_18  and  C8_19 
ROOT
HETATM    1  C2  UNL     1      -0.524   9.042  10.005  1.00  0.00     0.687 A 
HETATM    2  N4  UNL     1      -0.570   7.902   9.315  1.00  0.00    -0.199 N 
ATOM      3  H4  UNL     1      -0.481   7.933   8.300  1.00  0.00     0.183 HD
HETATM    4  C3  UNL     1      -0.733   6.693   9.930  1.00  0.00     0.148 A 
HETATM    5  C4  UNL     1      -0.858   6.595  11.293  1.00  0.00     0.153 A 
HETATM    6  C14 UNL     1      -0.806   7.807  11.999  1.00  0.00     0.294 A 
HETATM    7  O3  UNL     1      -0.916   7.762  13.255  1.00  0.00    -0.265 OA
HETATM    8  N5  UNL     1      -0.646   8.971  11.362  1.00  0.00    -0.153 N 
ATOM      9  H5  UNL     1      -0.613   9.833  11.907  1.00  0.00     0.187 HD
ENDROOT
BRANCH   5  10
HETATM   10  O1  UNL     1      -1.021   5.402  11.930  1.00  0.00    -0.337 OA
BRANCH  10  11
HETATM   11  C5  UNL     1      -0.115   4.381  12.165  1.00  0.00     0.255 C 
BRANCH  11  12
HETATM   12  C6  UNL     1       0.942   4.681  13.126  1.00  0.00     0.160 C 
HETATM   13  O2  UNL     1       2.079   4.879  12.640  1.00  0.00    -0.295 OA
BRANCH  12  14
HETATM   14  C7  UNL     1       0.869   4.790  14.581  1.00  0.00     0.160 C 
BRANCH  14  15
HETATM   15  S1  UNL     1      -0.520   4.031  15.385  1.00  0.00    -0.122 SA
BRANCH  15  16
HETATM   16  C8  UNL     1      -1.972   5.060  15.372  1.00  0.00     0.001 A 
HETATM   17  C9  UNL     1      -3.079   4.852  14.582  1.00  0.00     0.018 A 
HETATM   18  C10 UNL     1      -4.182   5.690  14.612  1.00  0.00     0.001 A 
HETATM   19  C11 UNL     1      -4.203   6.784  15.457  1.00  0.00     0.000 A 
HETATM   20  C12 UNL     1      -3.108   7.015  16.258  1.00  0.00     0.001 A 
HETATM   21  C13 UNL     1      -2.025   6.172  16.212  1.00  0.00     0.018 A 
ENDBRANCH  15  16
ENDBRANCH  14  15
ENDBRANCH  12  14
ENDBRANCH  11  12
ENDBRANCH  10  11
ENDBRANCH   5  10
BRANCH   1  22
HETATM   22  N3  UNL     1      -0.379  10.167   9.439  1.00  0.00    -0.164 N 
HETATM   23  C1  UNL     1      -1.378  10.713   8.606  1.00  0.00     0.200 C 
HETATM   24  N1  UNL     1      -2.502  11.161   9.032  1.00  0.00    -0.373 N 
HETATM   25  N2  UNL     1      -1.070  10.760   7.199  1.00  0.00    -0.063 NA
ATOM     26  H12 UNL     1      -3.224  11.555   8.430  1.00  0.00     0.158 HD
ATOM     27  H11 UNL     1      -2.720  11.128  10.028  1.00  0.00     0.158 HD
ATOM     28  H3  UNL     1       0.483  10.691   9.591  1.00  0.00     0.187 HD
ENDBRANCH   1  22
TORSDOF 7
ENDMDL
MODEL 4
REMARK VINA RESULT: -8.042013819      1.586      2.111
REMARK  7 active torsions:
REMARK  status: ('A' for Active; 'I' for Inactive)
REMARK       I    between atoms: C1_4  and  N3_6 
REMARK    1  A    between atoms: N3_6  and  C2_8 
REMARK    2  A    between atoms: C4_12  and  O1_13 
REMARK    3  A    between atoms: O1_13  and  C5_14 
REMARK    4  A    between atoms: C5_14  and  C6_15 
REMARK    5  A    between atoms: C6_15  and  C7_17 
REMARK    6  A    between atoms: C7_17  and  S1_18 
REMARK    7  A    between atoms: S1_18  and  C8_19 
ROOT
HETATM    1  C2  UNL     1      -0.492   8.972  10.026  1.00  0.00     0.687 A 
HETATM    2  N4  UNL     1      -0.512   8.837  11.353  1.00  0.00    -0.199 N 
ATOM      3  H4  UNL     1      -0.432   9.669  11.937  1.00  0.00     0.183 HD
HETATM    4  C3  UNL     1      -0.638   7.616  11.952  1.00  0.00     0.148 A 
HETATM    5  C4  UNL     1      -0.749   6.466  11.213  1.00  0.00     0.153 A 
HETATM    6  C14 UNL     1      -0.727   6.630   9.820  1.00  0.00     0.294 A 
HETATM    7  O3  UNL     1      -0.827   5.597   9.103  1.00  0.00    -0.265 OA
HETATM    8  N5  UNL     1      -0.602   7.842   9.270  1.00  0.00    -0.153 N 
ATOM      9  H5  UNL     1      -0.589   7.924   8.253  1.00  0.00     0.187 HD
ENDROOT
BRANCH   5  10
HETATM   10  O1  UNL     1      -0.876   5.236  11.787  1.00  0.00    -0.337 OA
BRANCH  10  11
HETATM   11  C5  UNL     1       0.080   4.274  12.066  1.00  0.00     0.255 C 
BRANCH  11  12
HETATM   12  C6  UNL     1       0.918   4.536  13.232  1.00  0.00     0.160 C 
HETATM   13  O2  UNL     1       2.095   4.887  12.989  1.00  0.00    -0.295 OA
BRANCH  12  14
HETATM   14  C7  UNL     1       0.584   4.452  14.652  1.00  0.00     0.160 C 
BRANCH  14  15
HETATM   15  S1  UNL     1       0.045   5.943  15.450  1.00  0.00    -0.122 SA
BRANCH  15  16
HETATM   16  C8  UNL     1      -1.719   6.170  15.367  1.00  0.00     0.001 A 
HETATM   17  C9  UNL     1      -2.406   7.216  15.939  1.00  0.00     0.018 A 
HETATM   18  C10 UNL     1      -3.783   7.340  15.844  1.00  0.00     0.001 A 
HETATM   19  C11 UNL     1      -4.523   6.397  15.155  1.00  0.00     0.000 A 
HETATM   20  C12 UNL     1      -3.859   5.340  14.573  1.00  0.00     0.001 A 
HETATM   21  C13 UNL     1      -2.493   5.236  14.680  1.00  0.00     0.018 A 
ENDBRANCH  15  16
ENDBRANCH  14  15
ENDBRANCH  12  14
ENDBRANCH  11  12
ENDBRANCH  10  11
ENDBRANCH   5  10
BRANCH   1  22
HETATM   22  N3  UNL     1      -0.371  10.102   9.464  1.00  0.00    -0.164 N 
HETATM   23  C1  UNL     1      -1.382  10.629   8.633  1.00  0.00     0.200 C 
HETATM   24  N1  UNL     1      -2.515  11.051   9.061  1.00  0.00    -0.373 N 
HETATM   25  N2  UNL     1      -1.075  10.687   7.226  1.00  0.00    -0.063 NA
ATOM     26  H12 UNL     1      -3.245  11.432   8.460  1.00  0.00     0.158 HD
ATOM     27  H11 UNL     1      -2.732  11.011  10.057  1.00  0.00     0.158 HD
ATOM     28  H3  UNL     1       0.480  10.643   9.617  1.00  0.00     0.187 HD
ENDBRANCH   1  22
TORSDOF 7
ENDMDL
MODEL 5
REMARK VINA RESULT: -8.036832695      1.751      2.271
REMARK  7 active torsions:
REMARK  status: ('A' for Active; 'I' for Inactive)
REMARK       I    between atoms: C1_4  and  N3_6 
REMARK    1  A    between atoms: N3_6  and  C2_8 
REMARK    2  A    between atoms: C4_12  and  O1_13 
REMARK    3  A    between atoms: O1_13  and  C5_14 
REMARK    4  A    between atoms: C5_14  and  C6_15 
REMARK    5  A    between atoms: C6_15  and  C7_17 
REMARK    6  A    between atoms: C7_17  and  S1_18 
REMARK    7  A    between atoms: S1_18  and  C8_19 
ROOT
HETATM    1  C2  UNL     1      -0.347   9.300  10.535  1.00  0.00     0.687 A 
HETATM    2  N4  UNL     1      -0.882   8.843  11.669  1.00  0.00    -0.199 N 
ATOM      3  H4  UNL     1      -1.159   9.509  12.389  1.00  0.00     0.183 HD
HETATM    4  C3  UNL     1      -1.071   7.509  11.891  1.00  0.00     0.148 A 
HETATM    5  C4  UNL     1      -0.716   6.571  10.955  1.00  0.00     0.153 A 
HETATM    6  C14 UNL     1      -0.156   7.072   9.770  1.00  0.00     0.294 A 
HETATM    7  O3  UNL     1       0.183   6.243   8.881  1.00  0.00    -0.265 OA
HETATM    8  N5  UNL     1       0.013   8.386   9.588  1.00  0.00    -0.153 N 
ATOM      9  H5  UNL     1       0.424   8.716   8.714  1.00  0.00     0.187 HD
ENDROOT
BRANCH   5  10
HETATM   10  O1  UNL     1      -0.894   5.234  11.152  1.00  0.00    -0.337 OA
BRANCH  10  11
HETATM   11  C5  UNL     1       0.027   4.240  11.437  1.00  0.00     0.255 C 
BRANCH  11  12
HETATM   12  C6  UNL     1       1.181   4.655  12.230  1.00  0.00     0.160 C 
HETATM   13  O2  UNL     1       2.260   4.762  11.605  1.00  0.00    -0.295 OA
BRANCH  12  14
HETATM   14  C7  UNL     1       1.262   4.970  13.655  1.00  0.00     0.160 C 
BRANCH  14  15
HETATM   15  S1  UNL     1       0.007   4.292  14.711  1.00  0.00    -0.122 SA
BRANCH  15  16
HETATM   16  C8  UNL     1      -1.372   5.394  14.938  1.00  0.00     0.001 A 
HETATM   17  C9  UNL     1      -1.353   6.532  15.711  1.00  0.00     0.018 A 
HETATM   18  C10 UNL     1      -2.461   7.352  15.854  1.00  0.00     0.001 A 
HETATM   19  C11 UNL     1      -3.644   7.045  15.208  1.00  0.00     0.000 A 
HETATM   20  C12 UNL     1      -3.690   5.912  14.427  1.00  0.00     0.001 A 
HETATM   21  C13 UNL     1      -2.580   5.112  14.300  1.00  0.00     0.018 A 
ENDBRANCH  15  16
ENDBRANCH  14  15
ENDBRANCH  12  14
ENDBRANCH  11  12
ENDBRANCH  10  11
ENDBRANCH   5  10
BRANCH   1  22
HETATM   22  N3  UNL     1      -0.165  10.536  10.325  1.00  0.00    -0.164 N 
HETATM   23  C1  UNL     1      -0.571  11.151   9.122  1.00  0.00     0.200 C 
HETATM   24  N1  UNL     1      -1.797  11.357   8.799  1.00  0.00    -0.373 N 
HETATM   25  N2  UNL     1       0.487  11.567   8.237  1.00  0.00    -0.063 NA
ATOM     26  H12 UNL     1      -2.090  11.801   7.929  1.00  0.00     0.158 HD
ATOM     27  H11 UNL     1      -2.545  11.063   9.426  1.00  0.00     0.158 HD
ATOM     28  H3  UNL     1       0.287  11.101  11.044  1.00  0.00     0.187 HD
ENDBRANCH   1  22
TORSDOF 7
ENDMDL
