MODEL 1
REMARK VINA RESULT: -8.006592503      0.000      0.000
REMARK  8 active torsions:
REMARK  status: ('A' for Active; 'I' for Inactive)
REMARK    1  A    between atoms: N1_2  and  C2_4 
REMARK    2  A    between atoms: C2_4  and  C13_24 
REMARK    3  A    between atoms: C3_5  and  O1_6 
REMARK    4  A    between atoms: C3_5  and  N2_8 
REMARK    5  A    between atoms: N2_8  and  C4_10 
REMARK    6  A    between atoms: C4_10  and  C6_12 
REMARK    7  A    between atoms: C9_15  and  N3_16 
REMARK    8  A    between atoms: N3_16  and  S1_18 
ROOT
HETATM    1  C4  UNL     1       0.623   5.923  13.331  1.00  0.00     0.113 C 
HETATM    2  C5  UNL     1       1.590   4.812  12.724  1.00  0.00     0.037 C 
ENDROOT
BRANCH   1   3
HETATM    3  N2  UNL     1      -0.448   5.178  13.950  1.00  0.00    -0.361 N 
ATOM      4  H2  UNL     1      -0.828   4.357  13.480  1.00  0.00     0.162 HD
BRANCH   3   5
HETATM    5  C3  UNL     1      -0.969   5.568  15.180  1.00  0.00     0.159 C 
HETATM    6  C2  UNL     1      -2.128   5.138  15.919  1.00  0.00     0.059 C 
BRANCH   6   7
HETATM    7  N1  UNL     1      -2.361   3.843  16.372  1.00  0.00    -0.394 N 
HETATM    8  C1  UNL     1      -1.495   3.253  17.326  1.00  0.00     0.146 C 
ATOM      9  H1  UNL     1      -3.158   3.316  16.017  1.00  0.00     0.159 HD
ENDBRANCH   6   7
BRANCH   6  10
HETATM   10  C13 UNL     1      -3.270   6.076  15.926  1.00  0.00     0.031 C 
HETATM   11  C14 UNL     1      -4.027   6.284  14.628  1.00  0.00     0.016 C 
HETATM   12  C15 UNL     1      -4.196   5.851  17.117  1.00  0.00     0.016 C 
ENDBRANCH   6  10
BRANCH   5  13
HETATM   13  O1  UNL     1      -0.280   6.484  15.813  1.00  0.00    -0.345 OA
ATOM     14  H1  UNL     1       0.648   6.449  15.610  1.00  0.00     0.219 HD
ENDBRANCH   5  13
ENDBRANCH   3   5
ENDBRANCH   1   3
BRANCH   1  15
HETATM   15  C6  UNL     1       0.295   6.757  12.167  1.00  0.00    -0.036 A 
HETATM   16  C7  UNL     1       0.935   6.689  10.963  1.00  0.00     0.011 A 
HETATM   17  C8  UNL     1       0.422   7.344   9.845  1.00  0.00     0.031 A 
HETATM   18  C9  UNL     1      -0.710   8.073   9.875  1.00  0.00     0.042 A 
HETATM   19  C11 UNL     1      -1.355   8.147  11.113  1.00  0.00     0.031 A 
HETATM   20  C12 UNL     1      -0.908   7.529  12.243  1.00  0.00     0.011 A 
BRANCH  18  21
HETATM   21  N3  UNL     1      -1.287   8.731   8.782  1.00  0.00    -0.285 N 
ATOM     22  H3  UNL     1      -1.740   8.136   8.087  1.00  0.00     0.178 HD
BRANCH  21  23
HETATM   23  S1  UNL     1      -1.322  10.400   8.478  1.00  0.00     0.227 S 
HETATM   24  C10 UNL     1      -0.120  11.357   9.315  1.00  0.00     0.186 C 
HETATM   25  O2  UNL     1      -2.701  10.987   8.761  1.00  0.00    -0.206 OA
HETATM   26  O3  UNL     1      -1.111  10.652   6.989  1.00  0.00    -0.206 OA
ENDBRANCH  21  23
ENDBRANCH  18  21
ENDBRANCH   1  15
TORSDOF 8
ENDMDL
MODEL 2
REMARK VINA RESULT: -7.939868802      0.310      1.034
REMARK  8 active torsions:
REMARK  status: ('A' for Active; 'I' for Inactive)
REMARK    1  A    between atoms: N1_2  and  C2_4 
REMARK    2  A    between atoms: C2_4  and  C13_24 
REMARK    3  A    between atoms: C3_5  and  O1_6 
REMARK    4  A    between atoms: C3_5  and  N2_8 
REMARK    5  A    between atoms: N2_8  and  C4_10 
REMARK    6  A    between atoms: C4_10  and  C6_12 
REMARK    7  A    between atoms: C9_15  and  N3_16 
REMARK    8  A    between atoms: N3_16  and  S1_18 
ROOT
HETATM    1  C4  UNL     1       0.426   6.025  13.403  1.00  0.00     0.113 C 
HETATM    2  C5  UNL     1       1.493   5.035  12.756  1.00  0.00     0.037 C 
ENDROOT
BRANCH   1   3
HETATM    3  N2  UNL     1      -0.397   5.183  14.238  1.00  0.00    -0.361 N 
ATOM      4  H2  UNL     1      -0.556   4.211  13.972  1.00  0.00     0.162 HD
BRANCH   3   5
HETATM    5  C3  UNL     1      -0.977   5.680  15.402  1.00  0.00     0.159 C 
HETATM    6  C2  UNL     1      -2.139   5.277  16.151  1.00  0.00     0.059 C 
BRANCH   6   7
HETATM    7  N1  UNL     1      -2.326   4.030  16.741  1.00  0.00    -0.394 N 
HETATM    8  C1  UNL     1      -1.309   3.462  17.546  1.00  0.00     0.146 C 
ATOM      9  H1  UNL     1      -3.199   3.524  16.593  1.00  0.00     0.159 HD
ENDBRANCH   6   7
BRANCH   6  10
HETATM   10  C13 UNL     1      -3.324   6.151  16.019  1.00  0.00     0.031 C 
HETATM   11  C14 UNL     1      -3.970   6.271  14.653  1.00  0.00     0.016 C 
HETATM   12  C15 UNL     1      -4.340   5.919  17.132  1.00  0.00     0.016 C 
ENDBRANCH   6  10
BRANCH   5  13
HETATM   13  O1  UNL     1      -0.353   6.695  15.946  1.00  0.00    -0.345 OA
ATOM     14  H1  UNL     1      -0.724   7.532  15.690  1.00  0.00     0.219 HD
ENDBRANCH   5  13
ENDBRANCH   3   5
ENDBRANCH   1   3
BRANCH   1  15
HETATM   15  C6  UNL     1      -0.201   6.656  12.235  1.00  0.00    -0.036 A 
HETATM   16  C7  UNL     1      -1.101   7.681  12.300  1.00  0.00     0.011 A 
HETATM   17  C8  UNL     1      -1.475   8.376  11.152  1.00  0.00     0.031 A 
HETATM   18  C9  UNL     1      -0.988   8.091   9.928  1.00  0.00     0.042 A 
HETATM   19  C11 UNL     1      -0.074   7.035   9.867  1.00  0.00     0.031 A 
HETATM   20  C12 UNL     1       0.334   6.317  10.952  1.00  0.00     0.011 A 
BRANCH  18  21
HETATM   21  N3  UNL     1      -1.304   8.770   8.745  1.00  0.00    -0.285 N 
ATOM     22  H3  UNL     1      -1.590   8.190   7.956  1.00  0.00     0.178 HD
BRANCH  21  23
HETATM   23  S1  UNL     1      -1.268  10.444   8.472  1.00  0.00     0.227 S 
HETATM   24  C10 UNL     1       0.001  11.328   9.290  1.00  0.00     0.186 C 
HETATM   25  O2  UNL     1      -2.609  11.090   8.805  1.00  0.00    -0.206 OA
HETATM   26  O3  UNL     1      -1.087  10.714   6.982  1.00  0.00    -0.206 OA
ENDBRANCH  21  23
ENDBRANCH  18  21
ENDBRANCH   1  15
TORSDOF 8
ENDMDL
MODEL 3
REMARK VINA RESULT: -7.894572852      1.553      2.300
REMARK  8 active torsions:
REMARK  status: ('A' for Active; 'I' for Inactive)
REMARK    1  A    between atoms: N1_2  and  C2_4 
REMARK    2  A    between atoms: C2_4  and  C13_24 
REMARK    3  A    between atoms: C3_5  and  O1_6 
REMARK    4  A    between atoms: C3_5  and  N2_8 
REMARK    5  A    between atoms: N2_8  and  C4_10 
REMARK    6  A    between atoms: C4_10  and  C6_12 
REMARK    7  A    between atoms: C9_15  and  N3_16 
REMARK    8  A    between atoms: N3_16  and  S1_18 
ROOT
HETATM    1  C4  UNL     1      -1.544   6.221  13.810  1.00  0.00     0.113 C 
HETATM    2  C5  UNL     1      -3.031   6.672  14.161  1.00  0.00     0.037 C 
ENDROOT
BRANCH   1   3
HETATM    3  N2  UNL     1      -0.758   6.629  14.950  1.00  0.00    -0.361 N 
ATOM      4  H2  UNL     1      -0.262   7.519  14.928  1.00  0.00     0.162 HD
BRANCH   3   5
HETATM    5  C3  UNL     1      -0.669   5.822  16.081  1.00  0.00     0.159 C 
HETATM    6  C2  UNL     1      -0.456   4.407  16.244  1.00  0.00     0.059 C 
BRANCH   6   7
HETATM    7  N1  UNL     1       0.664   3.705  15.808  1.00  0.00    -0.394 N 
HETATM    8  C1  UNL     1       0.873   3.479  14.426  1.00  0.00     0.146 C 
ATOM      9  H1  UNL     1       1.338   3.351  16.487  1.00  0.00     0.159 HD
ENDBRANCH   6   7
BRANCH   6  10
HETATM   10  C13 UNL     1      -1.645   3.618  16.631  1.00  0.00     0.031 C 
HETATM   11  C14 UNL     1      -2.626   3.231  15.542  1.00  0.00     0.016 C 
HETATM   12  C15 UNL     1      -1.291   2.450  17.545  1.00  0.00     0.016 C 
ENDBRANCH   6  10
BRANCH   5  13
HETATM   13  O1  UNL     1      -0.778   6.450  17.225  1.00  0.00    -0.345 OA
ATOM     14  H1  UNL     1      -0.968   7.375  17.118  1.00  0.00     0.219 HD
ENDBRANCH   5  13
ENDBRANCH   3   5
ENDBRANCH   1   3
BRANCH   1  15
HETATM   15  C6  UNL     1      -1.285   6.884  12.525  1.00  0.00    -0.036 A 
HETATM   16  C7  UNL     1      -0.712   6.276  11.445  1.00  0.00     0.011 A 
HETATM   17  C8  UNL     1      -0.709   6.896  10.197  1.00  0.00     0.031 A 
HETATM   18  C9  UNL     1      -1.254   8.108   9.976  1.00  0.00     0.042 A 
HETATM   19  C11 UNL     1      -1.830   8.728  11.089  1.00  0.00     0.031 A 
HETATM   20  C12 UNL     1      -1.869   8.176  12.334  1.00  0.00     0.011 A 
BRANCH  18  21
HETATM   21  N3  UNL     1      -1.305   8.768   8.742  1.00  0.00    -0.285 N 
ATOM     22  H3  UNL     1      -1.347   8.173   7.915  1.00  0.00     0.178 HD
BRANCH  21  23
HETATM   23  S1  UNL     1      -1.305  10.442   8.464  1.00  0.00     0.227 S 
HETATM   24  C10 UNL     1      -0.048  11.354   9.270  1.00  0.00     0.186 C 
HETATM   25  O2  UNL     1      -2.657  11.061   8.805  1.00  0.00    -0.206 OA
HETATM   26  O3  UNL     1      -1.141  10.711   6.972  1.00  0.00    -0.206 OA
ENDBRANCH  21  23
ENDBRANCH  18  21
ENDBRANCH   1  15
TORSDOF 8
ENDMDL
MODEL 4
REMARK VINA RESULT: -7.807157027      1.306      1.404
REMARK  8 active torsions:
REMARK  status: ('A' for Active; 'I' for Inactive)
REMARK    1  A    between atoms: N1_2  and  C2_4 
REMARK    2  A    between atoms: C2_4  and  C13_24 
REMARK    3  A    between atoms: C3_5  and  O1_6 
REMARK    4  A    between atoms: C3_5  and  N2_8 
REMARK    5  A    between atoms: N2_8  and  C4_10 
REMARK    6  A    between atoms: C4_10  and  C6_12 
REMARK    7  A    between atoms: C9_15  and  N3_16 
REMARK    8  A    between atoms: N3_16  and  S1_18 
ROOT
HETATM    1  C4  UNL     1       0.699   5.673  13.016  1.00  0.00     0.113 C 
HETATM    2  C5  UNL     1       1.890   4.801  12.416  1.00  0.00     0.037 C 
ENDROOT
BRANCH   1   3
HETATM    3  N2  UNL     1      -0.282   4.707  13.448  1.00  0.00    -0.361 N 
ATOM      4  H2  UNL     1      -0.524   3.927  12.838  1.00  0.00     0.162 HD
BRANCH   3   5
HETATM    5  C3  UNL     1      -0.903   4.826  14.689  1.00  0.00     0.159 C 
HETATM    6  C2  UNL     1      -2.060   5.565  15.123  1.00  0.00     0.059 C 
BRANCH   6   7
HETATM    7  N1  UNL     1      -3.353   5.400  14.633  1.00  0.00    -0.394 N 
HETATM    8  C1  UNL     1      -4.103   4.248  14.970  1.00  0.00     0.146 C 
ATOM      9  H1  UNL     1      -3.761   6.113  14.028  1.00  0.00     0.159 HD
ENDBRANCH   6   7
BRANCH   6  10
HETATM   10  C13 UNL     1      -1.786   6.777  15.924  1.00  0.00     0.031 C 
HETATM   11  C14 UNL     1      -2.512   8.054  15.551  1.00  0.00     0.016 C 
HETATM   12  C15 UNL     1      -1.819   6.499  17.423  1.00  0.00     0.016 C 
ENDBRANCH   6  10
BRANCH   5  13
HETATM   13  O1  UNL     1      -0.359   4.128  15.654  1.00  0.00    -0.345 OA
ATOM     14  H1  UNL     1      -0.314   3.201  15.454  1.00  0.00     0.219 HD
ENDBRANCH   5  13
ENDBRANCH   3   5
ENDBRANCH   1   3
BRANCH   1  15
HETATM   15  C6  UNL     1       0.342   6.565  11.906  1.00  0.00    -0.036 A 
HETATM   16  C7  UNL     1       0.906   6.517  10.663  1.00  0.00     0.011 A 
HETATM   17  C8  UNL     1       0.358   7.236   9.603  1.00  0.00     0.031 A 
HETATM   18  C9  UNL     1      -0.737   8.011   9.728  1.00  0.00     0.042 A 
HETATM   19  C11 UNL     1      -1.304   8.063  11.005  1.00  0.00     0.031 A 
HETATM   20  C12 UNL     1      -0.819   7.383  12.082  1.00  0.00     0.011 A 
BRANCH  18  21
HETATM   21  N3  UNL     1      -1.348   8.734   8.696  1.00  0.00    -0.285 N 
ATOM     22  H3  UNL     1      -1.860   8.186   8.004  1.00  0.00     0.178 HD
BRANCH  21  23
HETATM   23  S1  UNL     1      -1.335  10.415   8.462  1.00  0.00     0.227 S 
HETATM   24  C10 UNL     1      -0.107  11.302   9.337  1.00  0.00     0.186 C 
HETATM   25  O2  UNL     1      -2.698  11.028   8.770  1.00  0.00    -0.206 OA
HETATM   26  O3  UNL     1      -1.117  10.722   6.984  1.00  0.00    -0.206 OA
ENDBRANCH  21  23
ENDBRANCH  18  21
ENDBRANCH   1  15
TORSDOF 8
ENDMDL
MODEL 5
REMARK VINA RESULT: -7.650901816      1.324      1.735
REMARK  8 active torsions:
REMARK  status: ('A' for Active; 'I' for Inactive)
REMARK    1  A    between atoms: N1_2  and  C2_4 
REMARK    2  A    between atoms: C2_4  and  C13_24 
REMARK    3  A    between atoms: C3_5  and  O1_6 
REMARK    4  A    between atoms: C3_5  and  N2_8 
REMARK    5  A    between atoms: N2_8  and  C4_10 
REMARK    6  A    between atoms: C4_10  and  C6_12 
REMARK    7  A    between atoms: C9_15  and  N3_16 
REMARK    8  A    between atoms: N3_16  and  S1_18 
ROOT
HETATM    1  C4  UNL     1       0.559   5.686  13.049  1.00  0.00     0.113 C 
HETATM    2  C5  UNL     1       1.798   5.033  12.289  1.00  0.00     0.037 C 
ENDROOT
BRANCH   1   3
HETATM    3  N2  UNL     1      -0.115   4.574  13.676  1.00  0.00    -0.361 N 
ATOM      4  H2  UNL     1      -0.067   3.650  13.249  1.00  0.00     0.162 HD
BRANCH   3   5
HETATM    5  C3  UNL     1      -0.830   4.748  14.857  1.00  0.00     0.159 C 
HETATM    6  C2  UNL     1      -2.000   5.526  15.173  1.00  0.00     0.059 C 
BRANCH   6   7
HETATM    7  N1  UNL     1      -3.253   5.373  14.585  1.00  0.00    -0.394 N 
HETATM    8  C1  UNL     1      -4.106   4.315  14.985  1.00  0.00     0.146 C 
ATOM      9  H1  UNL     1      -3.558   6.025  13.862  1.00  0.00     0.159 HD
ENDBRANCH   6   7
BRANCH   6  10
HETATM   10  C13 UNL     1      -1.763   6.757  15.955  1.00  0.00     0.031 C 
HETATM   11  C14 UNL     1      -2.504   8.014  15.544  1.00  0.00     0.016 C 
HETATM   12  C15 UNL     1      -1.819   6.507  17.459  1.00  0.00     0.016 C 
ENDBRANCH   6  10
BRANCH   5  13
HETATM   13  O1  UNL     1      -0.383   4.071  15.885  1.00  0.00    -0.345 OA
ATOM     14  H1  UNL     1      -0.513   4.527  16.708  1.00  0.00     0.219 HD
ENDBRANCH   5  13
ENDBRANCH   3   5
ENDBRANCH   1   3
BRANCH   1  15
HETATM   15  C6  UNL     1      -0.150   6.406  11.983  1.00  0.00    -0.036 A 
HETATM   16  C7  UNL     1      -0.950   7.494  12.185  1.00  0.00     0.011 A 
HETATM   17  C8  UNL     1      -1.401   8.257  11.110  1.00  0.00     0.031 A 
HETATM   18  C9  UNL     1      -1.088   7.980   9.829  1.00  0.00     0.042 A 
HETATM   19  C11 UNL     1      -0.276   6.860   9.628  1.00  0.00     0.031 A 
HETATM   20  C12 UNL     1       0.200   6.074  10.635  1.00  0.00     0.011 A 
BRANCH  18  21
HETATM   21  N3  UNL     1      -1.487   8.724   8.712  1.00  0.00    -0.285 N 
ATOM     22  H3  UNL     1      -1.904   8.196   7.945  1.00  0.00     0.178 HD
BRANCH  21  23
HETATM   23  S1  UNL     1      -1.358  10.401   8.486  1.00  0.00     0.227 S 
HETATM   24  C10 UNL     1      -0.076  11.199   9.370  1.00  0.00     0.186 C 
HETATM   25  O2  UNL     1      -2.677  11.105   8.790  1.00  0.00    -0.206 OA
HETATM   26  O3  UNL     1      -1.111  10.699   7.011  1.00  0.00    -0.206 OA
ENDBRANCH  21  23
ENDBRANCH  18  21
ENDBRANCH   1  15
TORSDOF 8
ENDMDL
