MODEL 1
REMARK VINA RESULT: -8.196542786      0.000      0.000
REMARK  6 active torsions:
REMARK  status: ('A' for Active; 'I' for Inactive)
REMARK    1  A    between atoms: N3_4  and  N4_6 
REMARK    2  A    between atoms: C2_8  and  C3_9 
REMARK    3  A    between atoms: C6_12  and  C7_13 
REMARK    4  A    between atoms: C7_13  and  C8_14 
REMARK       I    between atoms: C8_14  and  N5_16 
REMARK    5  A    between atoms: N5_16  and  N6_18 
REMARK    6  A    between atoms: C9_20  and  C10_21 
ROOT
HETATM    1  C7  UNL     1      -2.322   7.658  16.378  1.00  0.00     0.143 C 
ENDROOT
BRANCH   1   2
HETATM    2  C6  UNL     1      -2.588   6.275  15.892  1.00  0.00    -0.049 A 
HETATM    3  C5  UNL     1      -1.636   5.279  15.945  1.00  0.00     0.008 A 
HETATM    4  C4  UNL     1      -1.882   4.000  15.495  1.00  0.00     0.013 A 
HETATM    5  C3  UNL     1      -3.120   3.682  14.970  1.00  0.00    -0.019 A 
HETATM    6  C16 UNL     1      -4.081   4.656  14.909  1.00  0.00     0.013 A 
HETATM    7  C15 UNL     1      -3.818   5.935  15.363  1.00  0.00     0.008 A 
BRANCH   5   8
HETATM    8  C2  UNL     1      -3.326   2.315  14.510  1.00  0.00     0.118 C 
HETATM    9  N4  UNL     1      -2.303   1.752  13.928  1.00  0.00    -0.309 N 
ATOM     10  H4  UNL     1      -1.419   2.247  13.809  1.00  0.00     0.186 HD
BRANCH   9  11
HETATM   11  N3  UNL     1      -2.469   0.450  13.478  1.00  0.00    -0.276 N 
HETATM   12  C1  UNL     1      -2.446   0.206  12.212  1.00  0.00     0.215 C 
HETATM   13  N1  UNL     1      -2.618  -1.139  11.781  1.00  0.00    -0.065 NA
HETATM   14  N2  UNL     1      -2.260   1.196  11.225  1.00  0.00    -0.065 NA
ATOM     15  H3  UNL     1      -2.608  -0.310  14.145  1.00  0.00     0.189 HD
ENDBRANCH   9  11
ENDBRANCH   5   8
ENDBRANCH   1   2
BRANCH   1  16
HETATM   16  C8  UNL     1      -2.169   8.603  15.262  1.00  0.00     0.240 C 
HETATM   17  O1  UNL     1      -2.547   9.782  15.402  1.00  0.00    -0.272 OA
HETATM   18  N5  UNL     1      -1.602   8.170  14.049  1.00  0.00    -0.270 N 
ATOM     19  H5  UNL     1      -1.307   7.197  13.973  1.00  0.00     0.190 HD
BRANCH  18  20
HETATM   20  N6  UNL     1      -1.422   9.009  12.941  1.00  0.00    -0.307 N 
HETATM   21  C9  UNL     1      -1.687   8.604  11.763  1.00  0.00     0.136 C 
ATOM     22  H6  UNL     1      -1.075   9.959  13.080  1.00  0.00     0.186 HD
BRANCH  21  23
HETATM   23  C10 UNL     1      -1.483   9.518  10.633  1.00  0.00     0.049 A 
HETATM   24  C11 UNL     1      -2.491   9.755   9.725  1.00  0.00     0.031 A 
HETATM   25  C12 UNL     1      -2.292  10.616   8.666  1.00  0.00     0.004 A 
HETATM   26  C13 UNL     1      -1.057  11.216   8.563  1.00  0.00     0.017 A 
HETATM   27  C14 UNL     1      -0.046  10.976   9.479  1.00  0.00     0.088 A 
HETATM   28  N7  UNL     1      -0.291  10.130  10.489  1.00  0.00    -0.365 N 
ATOM     29  H7  UNL     1       0.447   9.945  11.168  1.00  0.00     0.165 HD
ENDBRANCH  21  23
ENDBRANCH  18  20
ENDBRANCH   1  16
TORSDOF 6
ENDMDL
MODEL 2
REMARK VINA RESULT: -8.144269992      2.445      9.012
REMARK  6 active torsions:
REMARK  status: ('A' for Active; 'I' for Inactive)
REMARK    1  A    between atoms: N3_4  and  N4_6 
REMARK    2  A    between atoms: C2_8  and  C3_9 
REMARK    3  A    between atoms: C6_12  and  C7_13 
REMARK    4  A    between atoms: C7_13  and  C8_14 
REMARK       I    between atoms: C8_14  and  N5_16 
REMARK    5  A    between atoms: N5_16  and  N6_18 
REMARK    6  A    between atoms: C9_20  and  C10_21 
ROOT
HETATM    1  C7  UNL     1      -1.050   6.321  16.217  1.00  0.00     0.143 C 
ENDROOT
BRANCH   1   2
HETATM    2  C6  UNL     1      -1.048   6.863  14.830  1.00  0.00    -0.049 A 
HETATM    3  C5  UNL     1      -2.152   7.477  14.277  1.00  0.00     0.008 A 
HETATM    4  C4  UNL     1      -2.151   7.979  12.994  1.00  0.00     0.013 A 
HETATM    5  C3  UNL     1      -1.013   7.874  12.216  1.00  0.00    -0.019 A 
HETATM    6  C16 UNL     1       0.095   7.268  12.745  1.00  0.00     0.013 A 
HETATM    7  C15 UNL     1       0.077   6.769  14.034  1.00  0.00     0.008 A 
BRANCH   5   8
HETATM    8  C2  UNL     1      -1.067   8.421  10.867  1.00  0.00     0.118 C 
HETATM    9  N4  UNL     1      -0.357   9.497  10.662  1.00  0.00    -0.309 N 
ATOM     10  H4  UNL     1       0.197   9.919  11.407  1.00  0.00     0.186 HD
BRANCH   9  11
HETATM   11  N3  UNL     1      -0.388  10.043   9.387  1.00  0.00    -0.276 N 
HETATM   12  C1  UNL     1       0.124  11.207   9.180  1.00  0.00     0.215 C 
HETATM   13  N1  UNL     1       0.077  11.740   7.861  1.00  0.00    -0.065 NA
HETATM   14  N2  UNL     1       0.729  11.989  10.185  1.00  0.00    -0.065 NA
ATOM     15  H3  UNL     1      -0.814   9.525   8.617  1.00  0.00     0.189 HD
ENDBRANCH   9  11
ENDBRANCH   5   8
ENDBRANCH   1   2
BRANCH   1  16
HETATM   16  C8  UNL     1      -1.892   5.120  16.328  1.00  0.00     0.240 C 
HETATM   17  O1  UNL     1      -2.857   5.120  17.116  1.00  0.00    -0.272 OA
HETATM   18  N5  UNL     1      -1.602   3.986  15.547  1.00  0.00    -0.270 N 
ATOM     19  H5  UNL     1      -0.802   4.026  14.914  1.00  0.00     0.190 HD
BRANCH  18  20
HETATM   20  N6  UNL     1      -2.356   2.806  15.594  1.00  0.00    -0.307 N 
HETATM   21  C9  UNL     1      -1.921   1.728  15.072  1.00  0.00     0.136 C 
ATOM     22  H6  UNL     1      -3.267   2.809  16.054  1.00  0.00     0.186 HD
BRANCH  21  23
HETATM   23  C10 UNL     1      -2.745   0.517  15.147  1.00  0.00     0.049 A 
HETATM   24  C11 UNL     1      -2.494  -0.451  16.093  1.00  0.00     0.031 A 
HETATM   25  C12 UNL     1      -3.273  -1.587  16.157  1.00  0.00     0.004 A 
HETATM   26  C13 UNL     1      -4.298  -1.703  15.244  1.00  0.00     0.017 A 
HETATM   27  C14 UNL     1      -4.548  -0.726  14.294  1.00  0.00     0.088 A 
HETATM   28  N7  UNL     1      -3.760   0.358  14.275  1.00  0.00    -0.365 N 
ATOM     29  H7  UNL     1      -3.934   1.083  13.579  1.00  0.00     0.165 HD
ENDBRANCH  21  23
ENDBRANCH  18  20
ENDBRANCH   1  16
TORSDOF 6
ENDMDL
MODEL 3
REMARK VINA RESULT: -8.118619565      3.421      9.109
REMARK  6 active torsions:
REMARK  status: ('A' for Active; 'I' for Inactive)
REMARK    1  A    between atoms: N3_4  and  N4_6 
REMARK    2  A    between atoms: C2_8  and  C3_9 
REMARK    3  A    between atoms: C6_12  and  C7_13 
REMARK    4  A    between atoms: C7_13  and  C8_14 
REMARK       I    between atoms: C8_14  and  N5_16 
REMARK    5  A    between atoms: N5_16  and  N6_18 
REMARK    6  A    between atoms: C9_20  and  C10_21 
ROOT
HETATM    1  C7  UNL     1      -1.351   6.505  16.358  1.00  0.00     0.143 C 
ENDROOT
BRANCH   1   2
HETATM    2  C6  UNL     1      -1.247   6.980  14.950  1.00  0.00    -0.049 A 
HETATM    3  C5  UNL     1      -2.336   7.459  14.251  1.00  0.00     0.008 A 
HETATM    4  C4  UNL     1      -2.240   7.898  12.949  1.00  0.00     0.013 A 
HETATM    5  C3  UNL     1      -1.020   7.867  12.301  1.00  0.00    -0.019 A 
HETATM    6  C16 UNL     1       0.075   7.396  12.976  1.00  0.00     0.013 A 
HETATM    7  C15 UNL     1      -0.038   6.959  14.282  1.00  0.00     0.008 A 
BRANCH   5   8
HETATM    8  C2  UNL     1      -0.976   8.343  10.925  1.00  0.00     0.118 C 
HETATM    9  N4  UNL     1      -0.549   9.566  10.760  1.00  0.00    -0.309 N 
ATOM     10  H4  UNL     1      -0.266  10.142  11.553  1.00  0.00     0.186 HD
BRANCH   9  11
HETATM   11  N3  UNL     1      -0.496  10.048   9.461  1.00  0.00    -0.276 N 
HETATM   12  C1  UNL     1       0.092  11.170   9.222  1.00  0.00     0.215 C 
HETATM   13  N1  UNL     1       0.130  11.639   7.878  1.00  0.00    -0.065 NA
HETATM   14  N2  UNL     1       0.700  11.965  10.214  1.00  0.00    -0.065 NA
ATOM     15  H3  UNL     1      -0.920   9.518   8.699  1.00  0.00     0.189 HD
ENDBRANCH   9  11
ENDBRANCH   5   8
ENDBRANCH   1   2
BRANCH   1  16
HETATM   16  C8  UNL     1      -1.128   5.055  16.457  1.00  0.00     0.240 C 
HETATM   17  O1  UNL     1      -2.082   4.275  16.271  1.00  0.00    -0.272 OA
HETATM   18  N5  UNL     1       0.154   4.562  16.762  1.00  0.00    -0.270 N 
ATOM     19  H5  UNL     1       0.908   5.232  16.909  1.00  0.00     0.190 HD
BRANCH  18  20
HETATM   20  N6  UNL     1       0.446   3.195  16.874  1.00  0.00    -0.307 N 
HETATM   21  C9  UNL     1       0.817   2.519  15.860  1.00  0.00     0.136 C 
ATOM     22  H6  UNL     1       0.361   2.736  17.781  1.00  0.00     0.186 HD
BRANCH  21  23
HETATM   23  C10 UNL     1       1.112   1.091  16.025  1.00  0.00     0.049 A 
HETATM   24  C11 UNL     1       1.404   0.569  17.265  1.00  0.00     0.031 A 
HETATM   25  C12 UNL     1       1.680  -0.773  17.413  1.00  0.00     0.004 A 
HETATM   26  C13 UNL     1       1.649  -1.554  16.279  1.00  0.00     0.017 A 
HETATM   27  C14 UNL     1       1.353  -1.025  15.033  1.00  0.00     0.088 A 
HETATM   28  N7  UNL     1       1.093   0.286  14.945  1.00  0.00    -0.365 N 
ATOM     29  H7  UNL     1       0.875   0.687  14.032  1.00  0.00     0.165 HD
ENDBRANCH  21  23
ENDBRANCH  18  20
ENDBRANCH   1  16
TORSDOF 6
ENDMDL
MODEL 4
REMARK VINA RESULT: -8.073509284      2.515      2.903
REMARK  6 active torsions:
REMARK  status: ('A' for Active; 'I' for Inactive)
REMARK    1  A    between atoms: N3_4  and  N4_6 
REMARK    2  A    between atoms: C2_8  and  C3_9 
REMARK    3  A    between atoms: C6_12  and  C7_13 
REMARK    4  A    between atoms: C7_13  and  C8_14 
REMARK       I    between atoms: C8_14  and  N5_16 
REMARK    5  A    between atoms: N5_16  and  N6_18 
REMARK    6  A    between atoms: C9_20  and  C10_21 
ROOT
HETATM    1  C7  UNL     1      -2.310   7.064  15.659  1.00  0.00     0.143 C 
ENDROOT
BRANCH   1   2
HETATM    2  C6  UNL     1      -1.423   5.908  15.354  1.00  0.00    -0.049 A 
HETATM    3  C5  UNL     1      -1.897   4.743  14.787  1.00  0.00     0.008 A 
HETATM    4  C4  UNL     1      -1.076   3.673  14.505  1.00  0.00     0.013 A 
HETATM    5  C3  UNL     1       0.274   3.748  14.791  1.00  0.00    -0.019 A 
HETATM    6  C16 UNL     1       0.767   4.896  15.354  1.00  0.00     0.013 A 
HETATM    7  C15 UNL     1      -0.070   5.960  15.632  1.00  0.00     0.008 A 
BRANCH   5   8
HETATM    8  C2  UNL     1       1.095   2.588  14.473  1.00  0.00     0.118 C 
HETATM    9  N4  UNL     1       1.484   2.492  13.230  1.00  0.00    -0.309 N 
ATOM     10  H4  UNL     1       1.223   3.192  12.535  1.00  0.00     0.186 HD
BRANCH   9  11
HETATM   11  N3  UNL     1       2.268   1.397  12.896  1.00  0.00    -0.276 N 
HETATM   12  C1  UNL     1       2.551   1.172  11.658  1.00  0.00     0.215 C 
HETATM   13  N1  UNL     1       3.357   0.041  11.346  1.00  0.00    -0.065 NA
HETATM   14  N2  UNL     1       2.107   1.980  10.591  1.00  0.00    -0.065 NA
ATOM     15  H3  UNL     1       2.618   0.775  13.624  1.00  0.00     0.189 HD
ENDBRANCH   9  11
ENDBRANCH   5   8
ENDBRANCH   1   2
BRANCH   1  16
HETATM   16  C8  UNL     1      -2.073   8.186  14.738  1.00  0.00     0.240 C 
HETATM   17  O1  UNL     1      -2.226   9.354  15.144  1.00  0.00    -0.272 OA
HETATM   18  N5  UNL     1      -1.678   7.933  13.412  1.00  0.00    -0.270 N 
ATOM     19  H5  UNL     1      -1.565   6.963  13.117  1.00  0.00     0.190 HD
BRANCH  18  20
HETATM   20  N6  UNL     1      -1.433   8.946  12.475  1.00  0.00    -0.307 N 
HETATM   21  C9  UNL     1      -1.381   8.688  11.229  1.00  0.00     0.136 C 
ATOM     22  H6  UNL     1      -1.293   9.905  12.797  1.00  0.00     0.186 HD
BRANCH  21  23
HETATM   23  C10 UNL     1      -1.121   9.782  10.285  1.00  0.00     0.049 A 
HETATM   24  C11 UNL     1      -2.054  10.130   9.334  1.00  0.00     0.031 A 
HETATM   25  C12 UNL     1      -1.803  11.159   8.451  1.00  0.00     0.004 A 
HETATM   26  C13 UNL     1      -0.594  11.810   8.566  1.00  0.00     0.017 A 
HETATM   27  C14 UNL     1       0.340  11.457   9.525  1.00  0.00     0.088 A 
HETATM   28  N7  UNL     1       0.047  10.449  10.358  1.00  0.00    -0.365 N 
ATOM     29  H7  UNL     1       0.729  10.180  11.067  1.00  0.00     0.165 HD
ENDBRANCH  21  23
ENDBRANCH  18  20
ENDBRANCH   1  16
TORSDOF 6
ENDMDL
MODEL 5
REMARK VINA RESULT: -8.070747468      2.982      3.360
REMARK  6 active torsions:
REMARK  status: ('A' for Active; 'I' for Inactive)
REMARK    1  A    between atoms: N3_4  and  N4_6 
REMARK    2  A    between atoms: C2_8  and  C3_9 
REMARK    3  A    between atoms: C6_12  and  C7_13 
REMARK    4  A    between atoms: C7_13  and  C8_14 
REMARK       I    between atoms: C8_14  and  N5_16 
REMARK    5  A    between atoms: N5_16  and  N6_18 
REMARK    6  A    between atoms: C9_20  and  C10_21 
ROOT
HETATM    1  C7  UNL     1      -0.828   6.684  15.641  1.00  0.00     0.143 C 
ENDROOT
BRANCH   1   2
HETATM    2  C6  UNL     1      -0.128   5.406  15.336  1.00  0.00    -0.049 A 
HETATM    3  C5  UNL     1      -0.267   4.283  16.125  1.00  0.00     0.008 A 
HETATM    4  C4  UNL     1       0.381   3.100  15.843  1.00  0.00     0.013 A 
HETATM    5  C3  UNL     1       1.202   3.013  14.735  1.00  0.00    -0.019 A 
HETATM    6  C16 UNL     1       1.354   4.115  13.937  1.00  0.00     0.013 A 
HETATM    7  C15 UNL     1       0.698   5.295  14.234  1.00  0.00     0.008 A 
BRANCH   5   8
HETATM    8  C2  UNL     1       1.862   1.739  14.484  1.00  0.00     0.118 C 
HETATM    9  N4  UNL     1       1.647   1.209  13.311  1.00  0.00    -0.309 N 
ATOM     10  H4  UNL     1       1.053   1.668  12.621  1.00  0.00     0.186 HD
BRANCH   9  11
HETATM   11  N3  UNL     1       2.261  -0.006  13.043  1.00  0.00    -0.276 N 
HETATM   12  C1  UNL     1       2.732  -0.234  11.865  1.00  0.00     0.215 C 
HETATM   13  N1  UNL     1       3.358  -1.489  11.620  1.00  0.00    -0.065 NA
HETATM   14  N2  UNL     1       2.665   0.687  10.800  1.00  0.00    -0.065 NA
ATOM     15  H3  UNL     1       2.340  -0.714  13.773  1.00  0.00     0.189 HD
ENDBRANCH   9  11
ENDBRANCH   5   8
ENDBRANCH   1   2
BRANCH   1  16
HETATM   16  C8  UNL     1      -1.435   7.270  14.435  1.00  0.00     0.240 C 
HETATM   17  O1  UNL     1      -2.524   6.829  14.022  1.00  0.00    -0.272 OA
HETATM   18  N5  UNL     1      -0.782   8.319  13.761  1.00  0.00    -0.270 N 
ATOM     19  H5  UNL     1       0.109   8.651  14.131  1.00  0.00     0.190 HD
BRANCH  18  20
HETATM   20  N6  UNL     1      -1.294   8.929  12.608  1.00  0.00    -0.307 N 
HETATM   21  C9  UNL     1      -0.988   8.500  11.449  1.00  0.00     0.136 C 
ATOM     22  H6  UNL     1      -1.922   9.728  12.699  1.00  0.00     0.186 HD
BRANCH  21  23
HETATM   23  C10 UNL     1      -1.548   9.171  10.270  1.00  0.00     0.049 A 
HETATM   24  C11 UNL     1      -2.856   8.963   9.894  1.00  0.00     0.031 A 
HETATM   25  C12 UNL     1      -3.377   9.597   8.786  1.00  0.00     0.004 A 
HETATM   26  C13 UNL     1      -2.538  10.435   8.086  1.00  0.00     0.017 A 
HETATM   27  C14 UNL     1      -1.223  10.643   8.468  1.00  0.00     0.088 A 
HETATM   28  N7  UNL     1      -0.767  10.001   9.552  1.00  0.00    -0.365 N 
ATOM     29  H7  UNL     1       0.200  10.146   9.842  1.00  0.00     0.165 HD
ENDBRANCH  21  23
ENDBRANCH  18  20
ENDBRANCH   1  16
TORSDOF 6
ENDMDL
