MODEL 1
REMARK VINA RESULT: -7.831093891      0.000      0.000
REMARK  9 active torsions:
REMARK  status: ('A' for Active; 'I' for Inactive)
REMARK    1  A    between atoms: C2_2  and  C3_3 
REMARK    2  A    between atoms: C2_2  and  C6_7 
REMARK    3  A    between atoms: C3_3  and  C4_4 
REMARK    4  A    between atoms: C4_4  and  C5_5 
REMARK    5  A    between atoms: C6_7  and  N1_8 
REMARK    6  A    between atoms: C6_7  and  C16_28 
REMARK       I    between atoms: N1_8  and  C7_10 
REMARK    7  A    between atoms: C7_10  and  C8_12 
REMARK    8  A    between atoms: C8_12  and  N2_13 
REMARK    9  A    between atoms: C8_12  and  C9_17 
ROOT
HETATM    1  C8  UNL     1      -0.076   6.633  11.028  1.00  0.00     0.309 C 
ENDROOT
BRANCH   1   2
HETATM    2  C7  UNL     1      -0.649   6.094  12.259  1.00  0.00     0.254 C 
HETATM    3  N1  UNL     1      -0.634   6.802  13.488  1.00  0.00    -0.341 N 
ATOM      4  H1  UNL     1      -0.178   7.715  13.490  1.00  0.00     0.163 HD
HETATM    5  O2  UNL     1      -1.192   4.943  12.240  1.00  0.00    -0.271 OA
BRANCH   3   6
HETATM    6  C6  UNL     1      -1.204   6.352  14.738  1.00  0.00     0.215 C 
BRANCH   6   7
HETATM    7  C2  UNL     1      -2.501   7.062  14.956  1.00  0.00    -0.051 C 
HETATM    8  C1  UNL     1      -2.253   8.537  14.811  1.00  0.00     0.046 C 
BRANCH   7   9
HETATM    9  C3  UNL     1      -3.705   6.492  14.451  1.00  0.00     0.008 C 
BRANCH   9  10
HETATM   10  C4  UNL     1      -4.439   5.474  14.782  1.00  0.00     0.041 C 
BRANCH  10  11
HETATM   11  C5  UNL     1      -4.041   4.104  14.922  1.00  0.00     0.258 C 
HETATM   12  O1  UNL     1      -3.392   3.744  15.973  1.00  0.00    -0.302 OA
ENDBRANCH  10  11
ENDBRANCH   9  10
ENDBRANCH   7   9
ENDBRANCH   6   7
BRANCH   6  13
HETATM   13  C16 UNL     1      -0.290   6.210  15.846  1.00  0.00     0.201 C 
HETATM   14  O3  UNL     1       0.957   6.014  15.615  1.00  0.00    -0.646 OA
HETATM   15  O4  UNL     1      -0.634   6.266  17.175  1.00  0.00    -0.646 OA
ENDBRANCH   6  13
ENDBRANCH   3   6
ENDBRANCH   1   2
BRANCH   1  16
HETATM   16  N2  UNL     1       1.362   6.817  11.191  1.00  0.00    -0.062 N 
ATOM     17  H23 UNL     1       1.589   7.325  12.045  1.00  0.00     0.275 HD
ATOM     18  H22 UNL     1       1.838   5.942  11.408  1.00  0.00     0.275 HD
ATOM     19  H21 UNL     1       1.749   7.268  10.362  1.00  0.00     0.275 HD
ENDBRANCH   1  16
BRANCH   1  20
HETATM   20  C9  UNL     1      -0.664   7.894  10.549  1.00  0.00    -0.003 A 
HETATM   21  C10 UNL     1      -2.001   8.167  10.577  1.00  0.00     0.099 A 
HETATM   22  N3  UNL     1      -2.495   9.351  10.097  1.00  0.00    -0.351 N 
HETATM   23  C11 UNL     1      -1.682  10.300   9.573  1.00  0.00     0.115 A 
ATOM     24  H3  UNL     1      -3.500   9.522  10.134  1.00  0.00     0.166 HD
HETATM   25  N4  UNL     1      -1.935  11.504   9.048  1.00  0.00    -0.352 N 
HETATM   26  C14 UNL     1      -0.324  10.059   9.527  1.00  0.00     0.010 A 
HETATM   27  C12 UNL     1      -0.776  12.095   8.646  1.00  0.00     0.090 A 
ATOM     28  H4  UNL     1      -2.862  11.920   8.961  1.00  0.00     0.166 HD
HETATM   29  C13 UNL     1       0.211  11.187   8.949  1.00  0.00     0.032 A 
HETATM   30  C15 UNL     1       0.170   8.854  10.020  1.00  0.00     0.026 A 
ENDBRANCH   1  20
TORSDOF 9
ENDMDL
MODEL 2
REMARK VINA RESULT: -7.810815929      1.909      2.809
REMARK  9 active torsions:
REMARK  status: ('A' for Active; 'I' for Inactive)
REMARK    1  A    between atoms: C2_2  and  C3_3 
REMARK    2  A    between atoms: C2_2  and  C6_7 
REMARK    3  A    between atoms: C3_3  and  C4_4 
REMARK    4  A    between atoms: C4_4  and  C5_5 
REMARK    5  A    between atoms: C6_7  and  N1_8 
REMARK    6  A    between atoms: C6_7  and  C16_28 
REMARK       I    between atoms: N1_8  and  C7_10 
REMARK    7  A    between atoms: C7_10  and  C8_12 
REMARK    8  A    between atoms: C8_12  and  N2_13 
REMARK    9  A    between atoms: C8_12  and  C9_17 
ROOT
HETATM    1  C8  UNL     1       0.016   6.806  12.890  1.00  0.00     0.309 C 
ENDROOT
BRANCH   1   2
HETATM    2  C7  UNL     1      -0.787   5.645  13.267  1.00  0.00     0.254 C 
HETATM    3  N1  UNL     1      -1.372   5.498  14.550  1.00  0.00    -0.341 N 
ATOM      4  H1  UNL     1      -1.190   6.239  15.228  1.00  0.00     0.163 HD
HETATM    5  O2  UNL     1      -0.983   4.721  12.412  1.00  0.00    -0.271 OA
BRANCH   3   6
HETATM    6  C6  UNL     1      -2.201   4.398  14.989  1.00  0.00     0.215 C 
BRANCH   6   7
HETATM    7  C2  UNL     1      -3.612   4.668  14.577  1.00  0.00    -0.051 C 
HETATM    8  C1  UNL     1      -4.450   3.491  14.990  1.00  0.00     0.046 C 
BRANCH   7   9
HETATM    9  C3  UNL     1      -4.135   5.988  14.693  1.00  0.00     0.008 C 
BRANCH   9  10
HETATM   10  C4  UNL     1      -4.303   6.818  15.677  1.00  0.00     0.041 C 
BRANCH  10  11
HETATM   11  C5  UNL     1      -3.456   7.905  16.071  1.00  0.00     0.258 C 
HETATM   12  O1  UNL     1      -2.206   7.684  16.277  1.00  0.00    -0.302 OA
ENDBRANCH  10  11
ENDBRANCH   9  10
ENDBRANCH   7   9
ENDBRANCH   6   7
BRANCH   6  13
HETATM   13  C16 UNL     1      -1.945   3.891  16.316  1.00  0.00     0.201 C 
HETATM   14  O3  UNL     1      -1.168   2.881  16.466  1.00  0.00    -0.646 OA
HETATM   15  O4  UNL     1      -2.469   4.401  17.478  1.00  0.00    -0.646 OA
ENDBRANCH   6  13
ENDBRANCH   3   6
ENDBRANCH   1   2
BRANCH   1  16
HETATM   16  N2  UNL     1      -0.067   7.823  13.932  1.00  0.00    -0.062 N 
ATOM     17  H23 UNL     1      -0.956   8.322  13.911  1.00  0.00     0.275 HD
ATOM     18  H22 UNL     1      -0.149   7.414  14.862  1.00  0.00     0.275 HD
ATOM     19  H21 UNL     1       0.730   8.456  13.861  1.00  0.00     0.275 HD
ENDBRANCH   1  16
BRANCH   1  20
HETATM   20  C9  UNL     1      -0.320   7.422  11.597  1.00  0.00    -0.003 A 
HETATM   21  C10 UNL     1       0.524   7.446  10.525  1.00  0.00     0.099 A 
HETATM   22  N3  UNL     1       0.166   8.054   9.351  1.00  0.00    -0.351 N 
HETATM   23  C11 UNL     1      -1.038   8.658   9.202  1.00  0.00     0.115 A 
ATOM     24  H3  UNL     1       0.822   8.053   8.570  1.00  0.00     0.166 HD
HETATM   25  N4  UNL     1      -1.592   9.308   8.173  1.00  0.00    -0.352 N 
HETATM   26  C14 UNL     1      -1.918   8.655  10.265  1.00  0.00     0.010 A 
HETATM   27  C12 UNL     1      -2.836   9.749   8.508  1.00  0.00     0.090 A 
ATOM     28  H4  UNL     1      -1.145   9.454   7.267  1.00  0.00     0.166 HD
HETATM   29  C13 UNL     1      -3.022   9.336   9.806  1.00  0.00     0.032 A 
HETATM   30  C15 UNL     1      -1.547   8.032  11.455  1.00  0.00     0.026 A 
ENDBRANCH   1  20
TORSDOF 9
ENDMDL
MODEL 3
REMARK VINA RESULT: -7.689002927      0.854      1.092
REMARK  9 active torsions:
REMARK  status: ('A' for Active; 'I' for Inactive)
REMARK    1  A    between atoms: C2_2  and  C3_3 
REMARK    2  A    between atoms: C2_2  and  C6_7 
REMARK    3  A    between atoms: C3_3  and  C4_4 
REMARK    4  A    between atoms: C4_4  and  C5_5 
REMARK    5  A    between atoms: C6_7  and  N1_8 
REMARK    6  A    between atoms: C6_7  and  C16_28 
REMARK       I    between atoms: N1_8  and  C7_10 
REMARK    7  A    between atoms: C7_10  and  C8_12 
REMARK    8  A    between atoms: C8_12  and  N2_13 
REMARK    9  A    between atoms: C8_12  and  C9_17 
ROOT
HETATM    1  C8  UNL     1      -0.277   6.660  11.244  1.00  0.00     0.309 C 
ENDROOT
BRANCH   1   2
HETATM    2  C7  UNL     1      -0.798   6.266  12.550  1.00  0.00     0.254 C 
HETATM    3  N1  UNL     1      -0.803   7.136  13.669  1.00  0.00    -0.341 N 
ATOM      4  H1  UNL     1      -0.401   8.064  13.536  1.00  0.00     0.163 HD
HETATM    5  O2  UNL     1      -1.275   5.095  12.701  1.00  0.00    -0.271 OA
BRANCH   3   6
HETATM    6  C6  UNL     1      -1.327   6.833  14.983  1.00  0.00     0.215 C 
BRANCH   6   7
HETATM    7  C2  UNL     1      -2.265   7.923  15.388  1.00  0.00    -0.051 C 
HETATM    8  C1  UNL     1      -1.912   9.155  14.603  1.00  0.00     0.046 C 
BRANCH   7   9
HETATM    9  C3  UNL     1      -3.631   7.611  15.644  1.00  0.00     0.008 C 
BRANCH   9  10
HETATM   10  C4  UNL     1      -4.275   6.529  15.964  1.00  0.00     0.041 C 
BRANCH  10  11
HETATM   11  C5  UNL     1      -4.213   5.795  17.193  1.00  0.00     0.258 C 
HETATM   12  O1  UNL     1      -3.509   4.720  17.247  1.00  0.00    -0.302 OA
ENDBRANCH  10  11
ENDBRANCH   9  10
ENDBRANCH   7   9
ENDBRANCH   6   7
BRANCH   6  13
HETATM   13  C16 UNL     1      -0.381   6.328  15.949  1.00  0.00     0.201 C 
HETATM   14  O3  UNL     1      -0.691   6.326  17.194  1.00  0.00    -0.646 OA
HETATM   15  O4  UNL     1       0.865   5.829  15.659  1.00  0.00    -0.646 OA
ENDBRANCH   6  13
ENDBRANCH   3   6
ENDBRANCH   1   2
BRANCH   1  16
HETATM   16  N2  UNL     1       1.178   6.757  11.299  1.00  0.00    -0.062 N 
ATOM     17  H23 UNL     1       1.625   5.842  11.249  1.00  0.00     0.275 HD
ATOM     18  H22 UNL     1       1.568   7.159  10.447  1.00  0.00     0.275 HD
ATOM     19  H21 UNL     1       1.458   7.276  12.131  1.00  0.00     0.275 HD
ENDBRANCH   1  16
BRANCH   1  20
HETATM   20  C9  UNL     1      -0.815   7.914  10.694  1.00  0.00    -0.003 A 
HETATM   21  C10 UNL     1      -2.146   8.212  10.643  1.00  0.00     0.099 A 
HETATM   22  N3  UNL     1      -2.592   9.388  10.100  1.00  0.00    -0.351 N 
HETATM   23  C11 UNL     1      -1.735  10.304   9.589  1.00  0.00     0.115 A 
ATOM     24  H3  UNL     1      -3.594   9.578  10.079  1.00  0.00     0.166 HD
HETATM   25  N4  UNL     1      -1.937  11.494   9.012  1.00  0.00    -0.352 N 
HETATM   26  C14 UNL     1      -0.381  10.038   9.621  1.00  0.00     0.010 A 
HETATM   27  C12 UNL     1      -0.747  12.051   8.652  1.00  0.00     0.090 A 
ATOM     28  H4  UNL     1      -2.850  11.923   8.864  1.00  0.00     0.166 HD
HETATM   29  C13 UNL     1       0.205  11.136   9.036  1.00  0.00     0.032 A 
HETATM   30  C15 UNL     1       0.064   8.841  10.177  1.00  0.00     0.026 A 
ENDBRANCH   1  20
TORSDOF 9
ENDMDL
MODEL 4
REMARK VINA RESULT: -7.682295594      1.832      2.528
REMARK  9 active torsions:
REMARK  status: ('A' for Active; 'I' for Inactive)
REMARK    1  A    between atoms: C2_2  and  C3_3 
REMARK    2  A    between atoms: C2_2  and  C6_7 
REMARK    3  A    between atoms: C3_3  and  C4_4 
REMARK    4  A    between atoms: C4_4  and  C5_5 
REMARK    5  A    between atoms: C6_7  and  N1_8 
REMARK    6  A    between atoms: C6_7  and  C16_28 
REMARK       I    between atoms: N1_8  and  C7_10 
REMARK    7  A    between atoms: C7_10  and  C8_12 
REMARK    8  A    between atoms: C8_12  and  N2_13 
REMARK    9  A    between atoms: C8_12  and  C9_17 
ROOT
HETATM    1  C8  UNL     1      -0.994   7.381  12.123  1.00  0.00     0.309 C 
ENDROOT
BRANCH   1   2
HETATM    2  C7  UNL     1      -1.557   7.538  13.461  1.00  0.00     0.254 C 
HETATM    3  N1  UNL     1      -2.202   6.481  14.152  1.00  0.00    -0.341 N 
ATOM      4  H1  UNL     1      -2.281   5.590  13.663  1.00  0.00     0.163 HD
HETATM    5  O2  UNL     1      -1.468   8.666  14.045  1.00  0.00    -0.271 OA
BRANCH   3   6
HETATM    6  C6  UNL     1      -2.757   6.548  15.486  1.00  0.00     0.215 C 
BRANCH   6   7
HETATM    7  C2  UNL     1      -1.900   5.736  16.402  1.00  0.00    -0.051 C 
HETATM    8  C1  UNL     1      -1.443   6.628  17.522  1.00  0.00     0.046 C 
BRANCH   7   9
HETATM    9  C3  UNL     1      -2.250   4.381  16.671  1.00  0.00     0.008 C 
BRANCH   9  10
HETATM   10  C4  UNL     1      -2.124   3.262  16.024  1.00  0.00     0.041 C 
BRANCH  10  11
HETATM   11  C5  UNL     1      -2.877   2.806  14.893  1.00  0.00     0.258 C 
HETATM   12  O1  UNL     1      -2.655   3.329  13.739  1.00  0.00    -0.302 OA
ENDBRANCH  10  11
ENDBRANCH   9  10
ENDBRANCH   7   9
ENDBRANCH   6   7
BRANCH   6  13
HETATM   13  C16 UNL     1      -4.192   6.438  15.590  1.00  0.00     0.201 C 
HETATM   14  O3  UNL     1      -4.839   5.760  14.714  1.00  0.00    -0.646 OA
HETATM   15  O4  UNL     1      -4.965   7.009  16.572  1.00  0.00    -0.646 OA
ENDBRANCH   6  13
ENDBRANCH   3   6
ENDBRANCH   1   2
BRANCH   1  16
HETATM   16  N2  UNL     1       0.452   7.211  12.211  1.00  0.00    -0.062 N 
ATOM     17  H23 UNL     1       0.884   7.913  12.812  1.00  0.00     0.275 HD
ATOM     18  H22 UNL     1       0.709   6.382  12.746  1.00  0.00     0.275 HD
ATOM     19  H21 UNL     1       0.858   7.205  11.276  1.00  0.00     0.275 HD
ENDBRANCH   1  16
BRANCH   1  20
HETATM   20  C9  UNL     1      -1.286   8.468  11.175  1.00  0.00    -0.003 A 
HETATM   21  C10 UNL     1      -2.535   8.742  10.696  1.00  0.00     0.099 A 
HETATM   22  N3  UNL     1      -2.745   9.755   9.797  1.00  0.00    -0.351 N 
HETATM   23  C11 UNL     1      -1.727  10.527   9.346  1.00  0.00     0.115 A 
ATOM     24  H3  UNL     1      -3.691   9.932   9.460  1.00  0.00     0.166 HD
HETATM   25  N4  UNL     1      -1.693  11.546   8.480  1.00  0.00    -0.352 N 
HETATM   26  C14 UNL     1      -0.450  10.279   9.808  1.00  0.00     0.010 A 
HETATM   27  C12 UNL     1      -0.418  12.005   8.342  1.00  0.00     0.090 A 
ATOM     28  H4  UNL     1      -2.505  11.925   7.994  1.00  0.00     0.166 HD
HETATM   29  C13 UNL     1       0.338  11.209   9.171  1.00  0.00     0.032 A 
HETATM   30  C15 UNL     1      -0.246   9.249  10.722  1.00  0.00     0.026 A 
ENDBRANCH   1  20
TORSDOF 9
ENDMDL
MODEL 5
REMARK VINA RESULT: -7.677735259      0.952      1.448
REMARK  9 active torsions:
REMARK  status: ('A' for Active; 'I' for Inactive)
REMARK    1  A    between atoms: C2_2  and  C3_3 
REMARK    2  A    between atoms: C2_2  and  C6_7 
REMARK    3  A    between atoms: C3_3  and  C4_4 
REMARK    4  A    between atoms: C4_4  and  C5_5 
REMARK    5  A    between atoms: C6_7  and  N1_8 
REMARK    6  A    between atoms: C6_7  and  C16_28 
REMARK       I    between atoms: N1_8  and  C7_10 
REMARK    7  A    between atoms: C7_10  and  C8_12 
REMARK    8  A    between atoms: C8_12  and  N2_13 
REMARK    9  A    between atoms: C8_12  and  C9_17 
ROOT
HETATM    1  C8  UNL     1       0.003   6.188  11.209  1.00  0.00     0.309 C 
ENDROOT
BRANCH   1   2
HETATM    2  C7  UNL     1      -0.564   5.723  12.473  1.00  0.00     0.254 C 
HETATM    3  N1  UNL     1      -0.665   6.550  13.620  1.00  0.00    -0.341 N 
ATOM      4  H1  UNL     1      -0.297   7.498  13.540  1.00  0.00     0.163 HD
HETATM    5  O2  UNL     1      -0.996   4.529  12.558  1.00  0.00    -0.271 OA
BRANCH   3   6
HETATM    6  C6  UNL     1      -1.239   6.176  14.894  1.00  0.00     0.215 C 
BRANCH   6   7
HETATM    7  C2  UNL     1      -2.551   6.874  15.051  1.00  0.00    -0.051 C 
HETATM    8  C1  UNL     1      -2.320   8.346  14.855  1.00  0.00     0.046 C 
BRANCH   7   9
HETATM    9  C3  UNL     1      -3.733   6.266  14.539  1.00  0.00     0.008 C 
BRANCH   9  10
HETATM   10  C4  UNL     1      -4.390   5.180  14.811  1.00  0.00     0.041 C 
BRANCH  10  11
HETATM   11  C5  UNL     1      -3.895   3.837  14.864  1.00  0.00     0.258 C 
HETATM   12  O1  UNL     1      -3.191   3.467  15.876  1.00  0.00    -0.302 OA
ENDBRANCH  10  11
ENDBRANCH   9  10
ENDBRANCH   7   9
ENDBRANCH   6   7
BRANCH   6  13
HETATM   13  C16 UNL     1      -0.333   6.127  16.016  1.00  0.00     0.201 C 
HETATM   14  O3  UNL     1       0.922   5.962  15.808  1.00  0.00    -0.646 OA
HETATM   15  O4  UNL     1      -0.695   6.245  17.336  1.00  0.00    -0.646 OA
ENDBRANCH   6  13
ENDBRANCH   3   6
ENDBRANCH   1   2
BRANCH   1  16
HETATM   16  N2  UNL     1       1.456   6.265  11.318  1.00  0.00    -0.062 N 
ATOM     17  H23 UNL     1       1.872   5.362  11.541  1.00  0.00     0.275 HD
ATOM     18  H22 UNL     1       1.901   6.412  10.412  1.00  0.00     0.275 HD
ATOM     19  H21 UNL     1       1.715   6.984  11.993  1.00  0.00     0.275 HD
ENDBRANCH   1  16
BRANCH   1  20
HETATM   20  C9  UNL     1      -0.505   7.478  10.717  1.00  0.00    -0.003 A 
HETATM   21  C10 UNL     1       0.120   8.672  10.935  1.00  0.00     0.099 A 
HETATM   22  N3  UNL     1      -0.412   9.847  10.470  1.00  0.00    -0.351 N 
HETATM   23  C11 UNL     1      -1.576   9.876   9.778  1.00  0.00     0.115 A 
ATOM     24  H3  UNL     1       0.082  10.722  10.650  1.00  0.00     0.166 HD
HETATM   25  N4  UNL     1      -2.275  10.884   9.244  1.00  0.00    -0.352 N 
HETATM   26  C14 UNL     1      -2.236   8.688   9.540  1.00  0.00     0.010 A 
HETATM   27  C12 UNL     1      -3.400  10.409   8.641  1.00  0.00     0.090 A 
ATOM     28  H4  UNL     1      -2.004  11.866   9.284  1.00  0.00     0.166 HD
HETATM   29  C13 UNL     1      -3.361   9.048   8.834  1.00  0.00     0.032 A 
HETATM   30  C15 UNL     1      -1.688   7.498  10.014  1.00  0.00     0.026 A 
ENDBRANCH   1  20
TORSDOF 9
ENDMDL
