MODEL 1
REMARK VINA RESULT: -8.442837215      0.000      0.000
REMARK  7 active torsions:
REMARK  status: ('A' for Active; 'I' for Inactive)
REMARK    1  A    between atoms: O1_2  and  C2_3 
REMARK    2  A    between atoms: C4_5  and  C5_6 
REMARK    3  A    between atoms: C5_6  and  N1_7 
REMARK    4  A    between atoms: N1_7  and  C6_9 
REMARK    5  A    between atoms: C10_19  and  N5_20 
REMARK       I    between atoms: N5_20  and  C11_22 
REMARK    6  A    between atoms: C11_22  and  C12_24 
REMARK    7  A    between atoms: C12_24  and  N6_26 
REMARK       I    between atoms: N6_26  and  C14_28 
ROOT
HETATM    1  C2  UNL     1      -1.087   6.761  12.611  1.00  0.00     0.095 A 
HETATM    2  C3  UNL     1      -0.922   7.408  11.412  1.00  0.00     0.048 A 
HETATM    3  C4  UNL     1       0.114   7.134  10.550  1.00  0.00    -0.038 A 
HETATM    4  C8  UNL     1       1.027   6.166  10.907  1.00  0.00     0.011 A 
HETATM    5  C9  UNL     1       0.861   5.504  12.129  1.00  0.00     0.033 A 
HETATM    6  C10 UNL     1      -0.172   5.772  12.998  1.00  0.00     0.068 A 
ENDROOT
BRANCH   3   7
HETATM    7  C5  UNL     1       0.226   7.881   9.259  1.00  0.00     0.160 C 
BRANCH   7   8
HETATM    8  N1  UNL     1      -0.799   8.862   9.108  1.00  0.00    -0.370 N 
ATOM      9  H1  UNL     1      -1.742   8.544   8.885  1.00  0.00     0.161 HD
BRANCH   8  10
HETATM   10  C6  UNL     1      -0.596  10.136   9.241  1.00  0.00     0.134 A 
HETATM   11  C7  UNL     1      -1.050  11.120   8.393  1.00  0.00     0.158 A 
HETATM   12  N2  UNL     1      -0.604  12.299   8.919  1.00  0.00    -0.294 N 
HETATM   13  N3  UNL     1       0.080  12.064  10.019  1.00  0.00    -0.241 N 
ATOM     14  H2  UNL     1      -0.776  13.221   8.519  1.00  0.00     0.187 HD
HETATM   15  N4  UNL     1       0.085  10.772  10.211  1.00  0.00    -0.270 N 
ATOM     16  H3  UNL     1       0.525  12.763  10.613  1.00  0.00     0.208 HD
ATOM     17  H4  UNL     1       0.545  10.307  10.994  1.00  0.00     0.190 HD
ENDBRANCH   8  10
ENDBRANCH   7   8
ENDBRANCH   3   7
BRANCH   1  18
HETATM   18  O1  UNL     1      -2.142   7.052  13.472  1.00  0.00    -0.354 OA
HETATM   19  C1  UNL     1      -2.033   8.174  14.327  1.00  0.00     0.210 C 
ENDBRANCH   1  18
BRANCH   6  20
HETATM   20  N5  UNL     1      -0.376   5.127  14.243  1.00  0.00    -0.323 N 
HETATM   21  C11 UNL     1       0.230   5.396  15.465  1.00  0.00     0.244 C 
HETATM   22  O2  UNL     1       1.081   6.282  15.656  1.00  0.00    -0.271 OA
ATOM     23  H5  UNL     1      -1.056   4.367  14.243  1.00  0.00     0.169 HD
BRANCH  21  24
HETATM   24  C12 UNL     1      -0.147   4.572  16.671  1.00  0.00     0.172 C 
HETATM   25  C13 UNL     1       0.398   3.184  16.409  1.00  0.00     0.042 C 
BRANCH  24  26
HETATM   26  N6  UNL     1      -1.574   4.506  16.825  1.00  0.00    -0.348 N 
HETATM   27  C14 UNL     1      -2.306   5.627  17.273  1.00  0.00     0.214 C 
HETATM   28  C15 UNL     1      -3.783   5.585  17.441  1.00  0.00     0.117 C 
HETATM   29  O3  UNL     1      -1.722   6.710  17.546  1.00  0.00    -0.274 OA
ATOM     30  H6  UNL     1      -2.065   3.638  16.609  1.00  0.00     0.163 HD
ENDBRANCH  24  26
ENDBRANCH  21  24
ENDBRANCH   6  20
TORSDOF 7
ENDMDL
MODEL 2
REMARK VINA RESULT: -8.209350325      1.564      2.705
REMARK  7 active torsions:
REMARK  status: ('A' for Active; 'I' for Inactive)
REMARK    1  A    between atoms: O1_2  and  C2_3 
REMARK    2  A    between atoms: C4_5  and  C5_6 
REMARK    3  A    between atoms: C5_6  and  N1_7 
REMARK    4  A    between atoms: N1_7  and  C6_9 
REMARK    5  A    between atoms: C10_19  and  N5_20 
REMARK       I    between atoms: N5_20  and  C11_22 
REMARK    6  A    between atoms: C11_22  and  C12_24 
REMARK    7  A    between atoms: C12_24  and  N6_26 
REMARK       I    between atoms: N6_26  and  C14_28 
ROOT
HETATM    1  C2  UNL     1      -0.573   6.200  12.418  1.00  0.00     0.095 A 
HETATM    2  C3  UNL     1      -0.590   6.612  11.110  1.00  0.00     0.048 A 
HETATM    3  C4  UNL     1      -1.208   7.770  10.697  1.00  0.00    -0.038 A 
HETATM    4  C8  UNL     1      -1.838   8.550  11.641  1.00  0.00     0.011 A 
HETATM    5  C9  UNL     1      -1.823   8.132  12.977  1.00  0.00     0.033 A 
HETATM    6  C10 UNL     1      -1.207   6.975  13.398  1.00  0.00     0.068 A 
ENDROOT
BRANCH   3   7
HETATM    7  C5  UNL     1      -1.183   8.154   9.251  1.00  0.00     0.160 C 
BRANCH   7   8
HETATM    8  N1  UNL     1      -0.121   9.057   8.948  1.00  0.00    -0.370 N 
ATOM      9  H1  UNL     1       0.734   8.678   8.540  1.00  0.00     0.161 HD
BRANCH   8  10
HETATM   10  C6  UNL     1      -0.185  10.335   9.161  1.00  0.00     0.134 A 
HETATM   11  C7  UNL     1      -0.848  11.253   8.380  1.00  0.00     0.158 A 
HETATM   12  N2  UNL     1      -0.648  12.464   8.979  1.00  0.00    -0.294 N 
HETATM   13  N3  UNL     1       0.090  12.309  10.058  1.00  0.00    -0.241 N 
ATOM     14  H2  UNL     1      -1.015  13.353   8.640  1.00  0.00     0.187 HD
HETATM   15  N4  UNL     1       0.367  11.037  10.167  1.00  0.00    -0.270 N 
ATOM     16  H3  UNL     1       0.391  13.048  10.694  1.00  0.00     0.208 HD
ATOM     17  H4  UNL     1       0.927  10.630  10.916  1.00  0.00     0.190 HD
ENDBRANCH   8  10
ENDBRANCH   7   8
ENDBRANCH   3   7
BRANCH   1  18
HETATM   18  O1  UNL     1       0.058   5.025  12.818  1.00  0.00    -0.354 OA
HETATM   19  C1  UNL     1       1.468   4.945  12.726  1.00  0.00     0.210 C 
ENDBRANCH   1  18
BRANCH   6  20
HETATM   20  N5  UNL     1      -1.168   6.516  14.738  1.00  0.00    -0.323 N 
HETATM   21  C11 UNL     1      -2.098   5.730  15.410  1.00  0.00     0.244 C 
HETATM   22  O2  UNL     1      -3.151   5.294  14.913  1.00  0.00    -0.271 OA
ATOM     23  H5  UNL     1      -0.352   6.798  15.280  1.00  0.00     0.169 HD
BRANCH  21  24
HETATM   24  C12 UNL     1      -1.845   5.360  16.850  1.00  0.00     0.172 C 
HETATM   25  C13 UNL     1      -1.458   6.647  17.546  1.00  0.00     0.042 C 
BRANCH  24  26
HETATM   26  N6  UNL     1      -0.769   4.413  16.958  1.00  0.00    -0.348 N 
HETATM   27  C14 UNL     1      -1.029   3.026  17.020  1.00  0.00     0.214 C 
HETATM   28  C15 UNL     1       0.065   2.026  17.132  1.00  0.00     0.117 C 
HETATM   29  O3  UNL     1      -2.211   2.590  16.981  1.00  0.00    -0.274 OA
ATOM     30  H6  UNL     1       0.194   4.747  16.991  1.00  0.00     0.163 HD
ENDBRANCH  24  26
ENDBRANCH  21  24
ENDBRANCH   6  20
TORSDOF 7
ENDMDL
MODEL 3
REMARK VINA RESULT: -8.089102373      1.338      1.641
REMARK  7 active torsions:
REMARK  status: ('A' for Active; 'I' for Inactive)
REMARK    1  A    between atoms: O1_2  and  C2_3 
REMARK    2  A    between atoms: C4_5  and  C5_6 
REMARK    3  A    between atoms: C5_6  and  N1_7 
REMARK    4  A    between atoms: N1_7  and  C6_9 
REMARK    5  A    between atoms: C10_19  and  N5_20 
REMARK       I    between atoms: N5_20  and  C11_22 
REMARK    6  A    between atoms: C11_22  and  C12_24 
REMARK    7  A    between atoms: C12_24  and  N6_26 
REMARK       I    between atoms: N6_26  and  C14_28 
ROOT
HETATM    1  C2  UNL     1      -1.279   6.940  12.542  1.00  0.00     0.095 A 
HETATM    2  C3  UNL     1      -1.036   7.585  11.357  1.00  0.00     0.048 A 
HETATM    3  C4  UNL     1      -0.137   7.124  10.423  1.00  0.00    -0.038 A 
HETATM    4  C8  UNL     1       0.551   5.962  10.693  1.00  0.00     0.011 A 
HETATM    5  C9  UNL     1       0.305   5.301  11.902  1.00  0.00     0.033 A 
HETATM    6  C10 UNL     1      -0.592   5.755  12.841  1.00  0.00     0.068 A 
ENDROOT
BRANCH   3   7
HETATM    7  C5  UNL     1       0.073   7.884   9.152  1.00  0.00     0.160 C 
BRANCH   7   8
HETATM    8  N1  UNL     1      -0.897   8.914   8.968  1.00  0.00    -0.370 N 
ATOM      9  H1  UNL     1      -1.834   8.646   8.665  1.00  0.00     0.161 HD
BRANCH   8  10
HETATM   10  C6  UNL     1      -0.652  10.172   9.166  1.00  0.00     0.134 A 
HETATM   11  C7  UNL     1      -1.069  11.213   8.370  1.00  0.00     0.158 A 
HETATM   12  N2  UNL     1      -0.586  12.347   8.956  1.00  0.00    -0.294 N 
HETATM   13  N3  UNL     1       0.086  12.032  10.044  1.00  0.00    -0.241 N 
ATOM     14  H2  UNL     1      -0.725  13.294   8.605  1.00  0.00     0.187 HD
HETATM   15  N4  UNL     1       0.046  10.733  10.169  1.00  0.00    -0.270 N 
ATOM     16  H3  UNL     1       0.551  12.685  10.674  1.00  0.00     0.208 HD
ATOM     17  H4  UNL     1       0.487  10.213  10.928  1.00  0.00     0.190 HD
ENDBRANCH   8  10
ENDBRANCH   7   8
ENDBRANCH   3   7
BRANCH   1  18
HETATM   18  O1  UNL     1      -2.193   7.421  13.476  1.00  0.00    -0.354 OA
HETATM   19  C1  UNL     1      -1.820   8.517  14.291  1.00  0.00     0.210 C 
ENDBRANCH   1  18
BRANCH   6  20
HETATM   20  N5  UNL     1      -0.870   5.118  14.076  1.00  0.00    -0.323 N 
HETATM   21  C11 UNL     1      -0.194   5.243  15.284  1.00  0.00     0.244 C 
HETATM   22  O2  UNL     1       0.802   5.964  15.470  1.00  0.00    -0.271 OA
ATOM     23  H5  UNL     1      -1.671   4.486  14.079  1.00  0.00     0.169 HD
BRANCH  21  24
HETATM   24  C12 UNL     1      -0.674   4.460  16.481  1.00  0.00     0.172 C 
HETATM   25  C13 UNL     1       0.392   4.631  17.542  1.00  0.00     0.042 C 
BRANCH  24  26
HETATM   26  N6  UNL     1      -0.815   3.066  16.163  1.00  0.00    -0.348 N 
HETATM   27  C14 UNL     1      -2.061   2.538  15.758  1.00  0.00     0.214 C 
HETATM   28  C15 UNL     1      -2.234   1.100  15.422  1.00  0.00     0.117 C 
HETATM   29  O3  UNL     1      -3.076   3.281  15.667  1.00  0.00    -0.274 OA
ATOM     30  H6  UNL     1      -0.006   2.449  16.230  1.00  0.00     0.163 HD
ENDBRANCH  24  26
ENDBRANCH  21  24
ENDBRANCH   6  20
TORSDOF 7
ENDMDL
MODEL 4
REMARK VINA RESULT: -8.073077803      1.055      1.099
REMARK  7 active torsions:
REMARK  status: ('A' for Active; 'I' for Inactive)
REMARK    1  A    between atoms: O1_2  and  C2_3 
REMARK    2  A    between atoms: C4_5  and  C5_6 
REMARK    3  A    between atoms: C5_6  and  N1_7 
REMARK    4  A    between atoms: N1_7  and  C6_9 
REMARK    5  A    between atoms: C10_19  and  N5_20 
REMARK       I    between atoms: N5_20  and  C11_22 
REMARK    6  A    between atoms: C11_22  and  C12_24 
REMARK    7  A    between atoms: C12_24  and  N6_26 
REMARK       I    between atoms: N6_26  and  C14_28 
ROOT
HETATM    1  C2  UNL     1      -0.757   6.821  12.487  1.00  0.00     0.095 A 
HETATM    2  C3  UNL     1      -0.800   7.419  11.254  1.00  0.00     0.048 A 
HETATM    3  C4  UNL     1       0.179   7.245  10.303  1.00  0.00    -0.038 A 
HETATM    4  C8  UNL     1       1.251   6.435  10.605  1.00  0.00     0.011 A 
HETATM    5  C9  UNL     1       1.298   5.823  11.864  1.00  0.00     0.033 A 
HETATM    6  C10 UNL     1       0.322   5.991  12.820  1.00  0.00     0.068 A 
ENDROOT
BRANCH   3   7
HETATM    7  C5  UNL     1       0.062   7.931   8.979  1.00  0.00     0.160 C 
BRANCH   7   8
HETATM    8  N1  UNL     1      -0.933   8.954   8.983  1.00  0.00    -0.370 N 
ATOM      9  H1  UNL     1      -1.904   8.684   8.830  1.00  0.00     0.161 HD
BRANCH   8  10
HETATM   10  C6  UNL     1      -0.667  10.210   9.173  1.00  0.00     0.134 A 
HETATM   11  C7  UNL     1      -1.007  11.244   8.332  1.00  0.00     0.158 A 
HETATM   12  N2  UNL     1      -0.532  12.378   8.926  1.00  0.00    -0.294 N 
HETATM   13  N3  UNL     1       0.064  12.069  10.059  1.00  0.00    -0.241 N 
ATOM     14  H2  UNL     1      -0.624  13.321   8.549  1.00  0.00     0.187 HD
HETATM   15  N4  UNL     1      -0.017  10.774  10.206  1.00  0.00    -0.270 N 
ATOM     16  H3  UNL     1       0.507  12.722  10.704  1.00  0.00     0.208 HD
ATOM     17  H4  UNL     1       0.363  10.258  11.000  1.00  0.00     0.190 HD
ENDBRANCH   8  10
ENDBRANCH   7   8
ENDBRANCH   3   7
BRANCH   1  18
HETATM   18  O1  UNL     1      -1.758   7.008  13.438  1.00  0.00    -0.354 OA
HETATM   19  C1  UNL     1      -1.895   8.282  14.040  1.00  0.00     0.210 C 
ENDBRANCH   1  18
BRANCH   6  20
HETATM   20  N5  UNL     1       0.331   5.392  14.104  1.00  0.00    -0.323 N 
HETATM   21  C11 UNL     1       0.384   4.041  14.426  1.00  0.00     0.244 C 
HETATM   22  O2  UNL     1       0.433   3.114  13.599  1.00  0.00    -0.271 OA
ATOM     23  H5  UNL     1       0.293   6.036  14.894  1.00  0.00     0.169 HD
BRANCH  21  24
HETATM   24  C12 UNL     1       0.382   3.630  15.878  1.00  0.00     0.172 C 
HETATM   25  C13 UNL     1       0.760   2.164  15.894  1.00  0.00     0.042 C 
BRANCH  24  26
HETATM   26  N6  UNL     1      -0.922   3.796  16.460  1.00  0.00    -0.348 N 
HETATM   27  C14 UNL     1      -1.352   5.058  16.925  1.00  0.00     0.214 C 
HETATM   28  C15 UNL     1      -2.695   5.256  17.530  1.00  0.00     0.117 C 
HETATM   29  O3  UNL     1      -0.600   6.066  16.840  1.00  0.00    -0.274 OA
ATOM     30  H6  UNL     1      -1.545   2.992  16.538  1.00  0.00     0.163 HD
ENDBRANCH  24  26
ENDBRANCH  21  24
ENDBRANCH   6  20
TORSDOF 7
ENDMDL
MODEL 5
REMARK VINA RESULT: -7.991054516      1.027      1.791
REMARK  7 active torsions:
REMARK  status: ('A' for Active; 'I' for Inactive)
REMARK    1  A    between atoms: O1_2  and  C2_3 
REMARK    2  A    between atoms: C4_5  and  C5_6 
REMARK    3  A    between atoms: C5_6  and  N1_7 
REMARK    4  A    between atoms: N1_7  and  C6_9 
REMARK    5  A    between atoms: C10_19  and  N5_20 
REMARK       I    between atoms: N5_20  and  C11_22 
REMARK    6  A    between atoms: C11_22  and  C12_24 
REMARK    7  A    between atoms: C12_24  and  N6_26 
REMARK       I    between atoms: N6_26  and  C14_28 
ROOT
HETATM    1  C2  UNL     1      -0.179   5.387  12.122  1.00  0.00     0.095 A 
HETATM    2  C3  UNL     1       0.022   6.011  10.917  1.00  0.00     0.048 A 
HETATM    3  C4  UNL     1      -0.347   7.315  10.679  1.00  0.00    -0.038 A 
HETATM    4  C8  UNL     1      -0.945   8.025  11.696  1.00  0.00     0.011 A 
HETATM    5  C9  UNL     1      -1.151   7.390  12.927  1.00  0.00     0.033 A 
HETATM    6  C10 UNL     1      -0.785   6.087  13.174  1.00  0.00     0.068 A 
ENDROOT
BRANCH   3   7
HETATM    7  C5  UNL     1      -0.094   7.927   9.337  1.00  0.00     0.160 C 
BRANCH   7   8
HETATM    8  N1  UNL     1      -1.003   8.988   9.045  1.00  0.00    -0.370 N 
ATOM      9  H1  UNL     1      -1.931   8.747   8.697  1.00  0.00     0.161 HD
BRANCH   8  10
HETATM   10  C6  UNL     1      -0.711  10.243   9.199  1.00  0.00     0.134 A 
HETATM   11  C7  UNL     1      -1.150  11.278   8.407  1.00  0.00     0.158 A 
HETATM   12  N2  UNL     1      -0.600  12.410   8.935  1.00  0.00    -0.294 N 
HETATM   13  N3  UNL     1       0.132  12.100   9.985  1.00  0.00    -0.241 N 
ATOM     14  H2  UNL     1      -0.736  13.353   8.572  1.00  0.00     0.187 HD
HETATM   15  N4  UNL     1       0.066  10.805  10.142  1.00  0.00    -0.270 N 
ATOM     16  H3  UNL     1       0.655  12.752  10.569  1.00  0.00     0.208 HD
ATOM     17  H4  UNL     1       0.540  10.289  10.883  1.00  0.00     0.190 HD
ENDBRANCH   8  10
ENDBRANCH   7   8
ENDBRANCH   3   7
BRANCH   1  18
HETATM   18  O1  UNL     1       0.201   4.066  12.346  1.00  0.00    -0.354 OA
HETATM   19  C1  UNL     1       1.580   3.764  12.454  1.00  0.00     0.210 C 
ENDBRANCH   1  18
BRANCH   6  20
HETATM   20  N5  UNL     1      -0.975   5.408  14.403  1.00  0.00    -0.323 N 
HETATM   21  C11 UNL     1      -0.165   5.423  15.533  1.00  0.00     0.244 C 
HETATM   22  O2  UNL     1       0.896   6.064  15.639  1.00  0.00    -0.271 OA
ATOM     23  H5  UNL     1      -1.815   4.833  14.467  1.00  0.00     0.169 HD
BRANCH  21  24
HETATM   24  C12 UNL     1      -0.570   4.614  16.740  1.00  0.00     0.172 C 
HETATM   25  C13 UNL     1      -0.075   3.207  16.481  1.00  0.00     0.042 C 
BRANCH  24  26
HETATM   26  N6  UNL     1      -1.999   4.599  16.896  1.00  0.00    -0.348 N 
HETATM   27  C14 UNL     1      -2.713   5.792  17.146  1.00  0.00     0.214 C 
HETATM   28  C15 UNL     1      -4.190   5.803  17.310  1.00  0.00     0.117 C 
HETATM   29  O3  UNL     1      -2.110   6.895  17.238  1.00  0.00    -0.274 OA
ATOM     30  H6  UNL     1      -2.504   3.715  16.825  1.00  0.00     0.163 HD
ENDBRANCH  24  26
ENDBRANCH  21  24
ENDBRANCH   6  20
TORSDOF 7
ENDMDL
