MODEL 1
REMARK VINA RESULT: -7.990258435      0.000      0.000
REMARK  8 active torsions:
REMARK  status: ('A' for Active; 'I' for Inactive)
REMARK    1  A    between atoms: N1_1  and  C1_5 
REMARK    2  A    between atoms: C1_5  and  C2_6 
REMARK       I    between atoms: C2_6  and  N2_8 
REMARK    3  A    between atoms: N2_8  and  C3_10 
REMARK    4  A    between atoms: C6_13  and  S1_14 
REMARK    5  A    between atoms: S1_14  and  N3_17 
REMARK    6  A    between atoms: N3_17  and  N4_19 
REMARK    7  A    between atoms: N4_19  and  C7_20 
REMARK    8  A    between atoms: C7_20  and  C8_21 
ROOT
HETATM    1  C3  UNL     1      -1.441   7.844  13.014  1.00  0.00     0.034 A 
HETATM    2  C4  UNL     1      -1.798   6.534  12.874  1.00  0.00     0.031 A 
HETATM    3  C5  UNL     1      -2.510   5.913  13.889  1.00  0.00     0.027 A 
HETATM    4  C6  UNL     1      -2.874   6.570  15.035  1.00  0.00     0.081 A 
HETATM    5  C14 UNL     1      -2.499   7.894  15.147  1.00  0.00     0.027 A 
HETATM    6  C15 UNL     1      -1.800   8.540  14.175  1.00  0.00     0.031 A 
ENDROOT
BRANCH   4   7
HETATM    7  S1  UNL     1      -3.766   5.713  16.257  1.00  0.00     0.273 S 
HETATM    8  O2  UNL     1      -4.457   4.544  15.617  1.00  0.00    -0.199 OA
HETATM    9  O3  UNL     1      -4.835   6.637  16.786  1.00  0.00    -0.199 OA
BRANCH   7  10
HETATM   10  N3  UNL     1      -2.755   5.193  17.546  1.00  0.00    -0.227 N 
ATOM     11  H3  UNL     1      -2.572   5.735  18.391  1.00  0.00     0.195 HD
BRANCH  10  12
HETATM   12  N4  UNL     1      -2.219   3.931  17.284  1.00  0.00    -0.127 NA
BRANCH  12  13
HETATM   13  C7  UNL     1      -0.780   3.964  17.546  1.00  0.00     0.174 C 
BRANCH  13  14
HETATM   14  C8  UNL     1      -0.054   4.215  16.274  1.00  0.00    -0.042 A 
HETATM   15  C9  UNL     1       0.417   5.492  16.046  1.00  0.00     0.008 A 
HETATM   16  C10 UNL     1       1.092   5.783  14.894  1.00  0.00     0.001 A 
HETATM   17  C11 UNL     1       1.307   4.805  13.955  1.00  0.00     0.000 A 
HETATM   18  C12 UNL     1       0.835   3.548  14.194  1.00  0.00     0.001 A 
HETATM   19  C13 UNL     1       0.146   3.207  15.346  1.00  0.00     0.008 A 
ENDBRANCH  13  14
ENDBRANCH  12  13
ENDBRANCH  10  12
ENDBRANCH   7  10
ENDBRANCH   4   7
BRANCH   1  20
HETATM   20  N2  UNL     1      -0.700   8.564  12.063  1.00  0.00    -0.326 N 
HETATM   21  C2  UNL     1      -1.249   9.078  10.876  1.00  0.00     0.247 C 
HETATM   22  O1  UNL     1      -2.430   8.957  10.525  1.00  0.00    -0.271 OA
ATOM     23  H2  UNL     1       0.291   8.721  12.243  1.00  0.00     0.169 HD
BRANCH  21  24
HETATM   24  C1  UNL     1      -0.357   9.855   9.912  1.00  0.00     0.332 C 
BRANCH  24  25
HETATM   25  N1  UNL     1      -0.317  11.200  10.379  1.00  0.00    -0.071 N 
ATOM     26  H13 UNL     1      -0.457  11.280  11.387  1.00  0.00     0.274 HD
ATOM     27  H12 UNL     1       0.616  11.610  10.346  1.00  0.00     0.274 HD
ATOM     28  H11 UNL     1      -1.005  11.722   9.836  1.00  0.00     0.274 HD
ENDBRANCH  24  25
ENDBRANCH  21  24
ENDBRANCH   1  20
TORSDOF 8
ENDMDL
MODEL 2
REMARK VINA RESULT: -7.426208221      2.782      3.862
REMARK  8 active torsions:
REMARK  status: ('A' for Active; 'I' for Inactive)
REMARK    1  A    between atoms: N1_1  and  C1_5 
REMARK    2  A    between atoms: C1_5  and  C2_6 
REMARK       I    between atoms: C2_6  and  N2_8 
REMARK    3  A    between atoms: N2_8  and  C3_10 
REMARK    4  A    between atoms: C6_13  and  S1_14 
REMARK    5  A    between atoms: S1_14  and  N3_17 
REMARK    6  A    between atoms: N3_17  and  N4_19 
REMARK    7  A    between atoms: N4_19  and  C7_20 
REMARK    8  A    between atoms: C7_20  and  C8_21 
ROOT
HETATM    1  C3  UNL     1      -1.472   8.056  11.534  1.00  0.00     0.034 A 
HETATM    2  C4  UNL     1      -1.462   8.278  12.880  1.00  0.00     0.031 A 
HETATM    3  C5  UNL     1      -0.820   7.373  13.712  1.00  0.00     0.027 A 
HETATM    4  C6  UNL     1      -0.188   6.257  13.230  1.00  0.00     0.081 A 
HETATM    5  C14 UNL     1      -0.214   6.061  11.864  1.00  0.00     0.027 A 
HETATM    6  C15 UNL     1      -0.833   6.924  11.013  1.00  0.00     0.031 A 
ENDROOT
BRANCH   4   7
HETATM    7  S1  UNL     1       0.592   5.176  14.345  1.00  0.00     0.273 S 
HETATM    8  O2  UNL     1       0.793   5.892  15.650  1.00  0.00    -0.199 OA
HETATM    9  O3  UNL     1       1.958   4.846  13.796  1.00  0.00    -0.199 OA
BRANCH   7  10
HETATM   10  N3  UNL     1      -0.307   3.729  14.575  1.00  0.00    -0.227 N 
ATOM     11  H3  UNL     1      -0.595   3.103  13.823  1.00  0.00     0.195 HD
BRANCH  10  12
HETATM   12  N4  UNL     1      -0.589   3.525  15.928  1.00  0.00    -0.127 NA
BRANCH  12  13
HETATM   13  C7  UNL     1      -2.023   3.275  16.079  1.00  0.00     0.174 C 
BRANCH  13  14
HETATM   14  C8  UNL     1      -2.771   4.534  15.826  1.00  0.00    -0.042 A 
HETATM   15  C9  UNL     1      -2.579   5.581  16.704  1.00  0.00     0.008 A 
HETATM   16  C10 UNL     1      -3.239   6.764  16.522  1.00  0.00     0.001 A 
HETATM   17  C11 UNL     1      -4.100   6.918  15.464  1.00  0.00     0.000 A 
HETATM   18  C12 UNL     1      -4.280   5.874  14.606  1.00  0.00     0.001 A 
HETATM   19  C13 UNL     1      -3.633   4.658  14.749  1.00  0.00     0.008 A 
ENDBRANCH  13  14
ENDBRANCH  12  13
ENDBRANCH  10  12
ENDBRANCH   7  10
ENDBRANCH   4   7
BRANCH   1  20
HETATM   20  N2  UNL     1      -2.111   8.891  10.604  1.00  0.00    -0.326 N 
HETATM   21  C2  UNL     1      -1.457   9.916   9.899  1.00  0.00     0.247 C 
HETATM   22  O1  UNL     1      -0.259  10.209  10.015  1.00  0.00    -0.271 OA
ATOM     23  H2  UNL     1      -3.105   8.746  10.430  1.00  0.00     0.169 HD
BRANCH  21  24
HETATM   24  C1  UNL     1      -2.243  10.761   8.902  1.00  0.00     0.332 C 
BRANCH  24  25
HETATM   25  N1  UNL     1      -1.880  10.309   7.601  1.00  0.00    -0.071 N 
ATOM     26  H13 UNL     1      -0.911  10.516   7.360  1.00  0.00     0.274 HD
ATOM     27  H12 UNL     1      -1.816   9.294   7.532  1.00  0.00     0.274 HD
ATOM     28  H11 UNL     1      -2.551  10.715   6.949  1.00  0.00     0.274 HD
ENDBRANCH  24  25
ENDBRANCH  21  24
ENDBRANCH   1  20
TORSDOF 8
ENDMDL
MODEL 3
REMARK VINA RESULT: -7.340395475      1.452      1.925
REMARK  8 active torsions:
REMARK  status: ('A' for Active; 'I' for Inactive)
REMARK    1  A    between atoms: N1_1  and  C1_5 
REMARK    2  A    between atoms: C1_5  and  C2_6 
REMARK       I    between atoms: C2_6  and  N2_8 
REMARK    3  A    between atoms: N2_8  and  C3_10 
REMARK    4  A    between atoms: C6_13  and  S1_14 
REMARK    5  A    between atoms: S1_14  and  N3_17 
REMARK    6  A    between atoms: N3_17  and  N4_19 
REMARK    7  A    between atoms: N4_19  and  C7_20 
REMARK    8  A    between atoms: C7_20  and  C8_21 
ROOT
HETATM    1  C3  UNL     1      -1.326   7.983  13.145  1.00  0.00     0.034 A 
HETATM    2  C4  UNL     1      -0.400   7.613  14.077  1.00  0.00     0.031 A 
HETATM    3  C5  UNL     1      -0.747   6.687  15.048  1.00  0.00     0.027 A 
HETATM    4  C6  UNL     1      -1.995   6.121  15.107  1.00  0.00     0.081 A 
HETATM    5  C14 UNL     1      -2.908   6.514  14.150  1.00  0.00     0.027 A 
HETATM    6  C15 UNL     1      -2.608   7.421  13.181  1.00  0.00     0.031 A 
ENDROOT
BRANCH   4   7
HETATM    7  S1  UNL     1      -2.344   4.967  16.359  1.00  0.00     0.273 S 
HETATM    8  O2  UNL     1      -3.423   4.043  15.875  1.00  0.00    -0.199 OA
HETATM    9  O3  UNL     1      -2.892   5.720  17.546  1.00  0.00    -0.199 OA
BRANCH   7  10
HETATM   10  N3  UNL     1      -0.947   4.082  16.827  1.00  0.00    -0.227 N 
ATOM     11  H3  UNL     1      -0.291   4.377  17.551  1.00  0.00     0.195 HD
BRANCH  10  12
HETATM   12  N4  UNL     1      -0.828   2.905  16.083  1.00  0.00    -0.127 NA
BRANCH  12  13
HETATM   13  C7  UNL     1       0.510   2.850  15.495  1.00  0.00     0.174 C 
BRANCH  13  14
HETATM   14  C8  UNL     1       0.484   3.490  14.154  1.00  0.00    -0.042 A 
HETATM   15  C9  UNL     1       1.589   4.223  13.773  1.00  0.00     0.008 A 
HETATM   16  C10 UNL     1       1.624   4.834  12.551  1.00  0.00     0.001 A 
HETATM   17  C11 UNL     1       0.557   4.723  11.693  1.00  0.00     0.000 A 
HETATM   18  C12 UNL     1      -0.528   3.996  12.085  1.00  0.00     0.001 A 
HETATM   19  C13 UNL     1      -0.608   3.360  13.312  1.00  0.00     0.008 A 
ENDBRANCH  13  14
ENDBRANCH  12  13
ENDBRANCH  10  12
ENDBRANCH   7  10
ENDBRANCH   4   7
BRANCH   1  20
HETATM   20  N2  UNL     1      -1.090   8.928  12.134  1.00  0.00    -0.326 N 
HETATM   21  C2  UNL     1      -0.897   8.592  10.784  1.00  0.00     0.247 C 
HETATM   22  O1  UNL     1      -0.902   7.441  10.327  1.00  0.00    -0.271 OA
ATOM     23  H2  UNL     1      -1.058   9.914  12.395  1.00  0.00     0.169 HD
BRANCH  21  24
HETATM   24  C1  UNL     1      -0.657   9.699   9.762  1.00  0.00     0.332 C 
BRANCH  24  25
HETATM   25  N1  UNL     1      -0.862  10.937  10.438  1.00  0.00    -0.071 N 
ATOM     26  H13 UNL     1      -1.568  11.524   9.994  1.00  0.00     0.274 HD
ATOM     27  H12 UNL     1      -1.329  10.830  11.338  1.00  0.00     0.274 HD
ATOM     28  H11 UNL     1       0.050  11.389  10.509  1.00  0.00     0.274 HD
ENDBRANCH  24  25
ENDBRANCH  21  24
ENDBRANCH   1  20
TORSDOF 8
ENDMDL
MODEL 4
REMARK VINA RESULT: -7.297906829      3.341      4.422
REMARK  8 active torsions:
REMARK  status: ('A' for Active; 'I' for Inactive)
REMARK    1  A    between atoms: N1_1  and  C1_5 
REMARK    2  A    between atoms: C1_5  and  C2_6 
REMARK       I    between atoms: C2_6  and  N2_8 
REMARK    3  A    between atoms: N2_8  and  C3_10 
REMARK    4  A    between atoms: C6_13  and  S1_14 
REMARK    5  A    between atoms: S1_14  and  N3_17 
REMARK    6  A    between atoms: N3_17  and  N4_19 
REMARK    7  A    between atoms: N4_19  and  C7_20 
REMARK    8  A    between atoms: C7_20  and  C8_21 
ROOT
HETATM    1  C3  UNL     1      -0.228   7.055   9.741  1.00  0.00     0.034 A 
HETATM    2  C4  UNL     1      -0.934   5.887   9.742  1.00  0.00     0.031 A 
HETATM    3  C5  UNL     1      -0.524   4.846  10.560  1.00  0.00     0.027 A 
HETATM    4  C6  UNL     1       0.572   4.947  11.378  1.00  0.00     0.081 A 
HETATM    5  C14 UNL     1       1.264   6.141  11.356  1.00  0.00     0.027 A 
HETATM    6  C15 UNL     1       0.895   7.186  10.567  1.00  0.00     0.031 A 
ENDROOT
BRANCH   4   7
HETATM    7  S1  UNL     1       1.016   3.592  12.372  1.00  0.00     0.273 S 
HETATM    8  O2  UNL     1       2.011   2.752  11.625  1.00  0.00    -0.199 OA
HETATM    9  O3  UNL     1      -0.217   2.750  12.587  1.00  0.00    -0.199 OA
BRANCH   7  10
HETATM   10  N3  UNL     1       1.653   4.088  13.889  1.00  0.00    -0.227 N 
ATOM     11  H3  UNL     1       2.606   4.425  14.034  1.00  0.00     0.195 HD
BRANCH  10  12
HETATM   12  N4  UNL     1       0.693   3.971  14.897  1.00  0.00    -0.127 NA
BRANCH  12  13
HETATM   13  C7  UNL     1       0.523   5.273  15.542  1.00  0.00     0.174 C 
BRANCH  13  14
HETATM   14  C8  UNL     1      -0.458   6.079  14.770  1.00  0.00    -0.042 A 
HETATM   15  C9  UNL     1      -1.694   5.517  14.520  1.00  0.00     0.008 A 
HETATM   16  C10 UNL     1      -2.637   6.211  13.816  1.00  0.00     0.001 A 
HETATM   17  C11 UNL     1      -2.362   7.473  13.350  1.00  0.00     0.000 A 
HETATM   18  C12 UNL     1      -1.136   8.014  13.604  1.00  0.00     0.001 A 
HETATM   19  C13 UNL     1      -0.150   7.350  14.313  1.00  0.00     0.008 A 
ENDBRANCH  13  14
ENDBRANCH  12  13
ENDBRANCH  10  12
ENDBRANCH   7  10
ENDBRANCH   4   7
BRANCH   1  20
HETATM   20  N2  UNL     1      -0.540   8.162   8.936  1.00  0.00    -0.326 N 
HETATM   21  C2  UNL     1      -1.467   9.153   9.300  1.00  0.00     0.247 C 
HETATM   22  O1  UNL     1      -2.118   9.169  10.353  1.00  0.00    -0.271 OA
ATOM     23  H2  UNL     1      -0.067   8.252   8.037  1.00  0.00     0.169 HD
BRANCH  21  24
HETATM   24  C1  UNL     1      -1.726  10.322   8.354  1.00  0.00     0.332 C 
BRANCH  24  25
HETATM   25  N1  UNL     1      -2.493  11.279   9.080  1.00  0.00    -0.071 N 
ATOM     26  H13 UNL     1      -3.466  11.325   8.777  1.00  0.00     0.274 HD
ATOM     27  H12 UNL     1      -2.671  11.002  10.045  1.00  0.00     0.274 HD
ATOM     28  H11 UNL     1      -2.005  12.170   9.001  1.00  0.00     0.274 HD
ENDBRANCH  24  25
ENDBRANCH  21  24
ENDBRANCH   1  20
TORSDOF 8
ENDMDL
MODEL 5
REMARK VINA RESULT: -7.283680824      1.694      2.241
REMARK  8 active torsions:
REMARK  status: ('A' for Active; 'I' for Inactive)
REMARK    1  A    between atoms: N1_1  and  C1_5 
REMARK    2  A    between atoms: C1_5  and  C2_6 
REMARK       I    between atoms: C2_6  and  N2_8 
REMARK    3  A    between atoms: N2_8  and  C3_10 
REMARK    4  A    between atoms: C6_13  and  S1_14 
REMARK    5  A    between atoms: S1_14  and  N3_17 
REMARK    6  A    between atoms: N3_17  and  N4_19 
REMARK    7  A    between atoms: N4_19  and  C7_20 
REMARK    8  A    between atoms: C7_20  and  C8_21 
ROOT
HETATM    1  C3  UNL     1      -1.522   7.840  13.409  1.00  0.00     0.034 A 
HETATM    2  C4  UNL     1      -2.709   7.167  13.460  1.00  0.00     0.031 A 
HETATM    3  C5  UNL     1      -2.890   6.183  14.419  1.00  0.00     0.027 A 
HETATM    4  C6  UNL     1      -1.915   5.858  15.327  1.00  0.00     0.081 A 
HETATM    5  C14 UNL     1      -0.728   6.556  15.250  1.00  0.00     0.027 A 
HETATM    6  C15 UNL     1      -0.509   7.529  14.324  1.00  0.00     0.031 A 
ENDROOT
BRANCH   4   7
HETATM    7  S1  UNL     1      -2.228   4.609  16.496  1.00  0.00     0.273 S 
HETATM    8  O2  UNL     1      -3.496   4.942  17.228  1.00  0.00    -0.199 OA
HETATM    9  O3  UNL     1      -1.106   4.624  17.504  1.00  0.00    -0.199 OA
BRANCH   7  10
HETATM   10  N3  UNL     1      -2.334   3.057  15.766  1.00  0.00    -0.227 N 
ATOM     11  H3  UNL     1      -3.193   2.651  15.393  1.00  0.00     0.195 HD
BRANCH  10  12
HETATM   12  N4  UNL     1      -1.089   2.425  15.751  1.00  0.00    -0.127 NA
BRANCH  12  13
HETATM   13  C7  UNL     1      -0.789   2.003  14.383  1.00  0.00     0.174 C 
BRANCH  13  14
HETATM   14  C8  UNL     1      -0.062   3.091  13.680  1.00  0.00    -0.042 A 
HETATM   15  C9  UNL     1      -0.656   3.642  12.562  1.00  0.00     0.008 A 
HETATM   16  C10 UNL     1      -0.035   4.646  11.875  1.00  0.00     0.001 A 
HETATM   17  C11 UNL     1       1.186   5.115  12.291  1.00  0.00     0.000 A 
HETATM   18  C12 UNL     1       1.760   4.561  13.397  1.00  0.00     0.001 A 
HETATM   19  C13 UNL     1       1.169   3.543  14.125  1.00  0.00     0.008 A 
ENDBRANCH  13  14
ENDBRANCH  12  13
ENDBRANCH  10  12
ENDBRANCH   7  10
ENDBRANCH   4   7
BRANCH   1  20
HETATM   20  N2  UNL     1      -1.223   8.836  12.466  1.00  0.00    -0.326 N 
HETATM   21  C2  UNL     1      -1.036   8.581  11.097  1.00  0.00     0.247 C 
HETATM   22  O1  UNL     1      -1.105   7.467  10.563  1.00  0.00    -0.271 OA
ATOM     23  H2  UNL     1      -1.135   9.798  12.793  1.00  0.00     0.169 HD
BRANCH  21  24
HETATM   24  C1  UNL     1      -0.723   9.739  10.154  1.00  0.00     0.332 C 
BRANCH  24  25
HETATM   25  N1  UNL     1      -1.327  10.902  10.713  1.00  0.00    -0.071 N 
ATOM     26  H13 UNL     1      -1.598  11.591  10.011  1.00  0.00     0.274 HD
ATOM     27  H12 UNL     1      -2.258  10.729  11.090  1.00  0.00     0.274 HD
ATOM     28  H11 UNL     1      -0.675  11.270  11.406  1.00  0.00     0.274 HD
ENDBRANCH  24  25
ENDBRANCH  21  24
ENDBRANCH   1  20
TORSDOF 8
ENDMDL
