MODEL 1
REMARK VINA RESULT: -5.710492202      0.000      0.000
REMARK  3 active torsions:
REMARK  status: ('A' for Active; 'I' for Inactive)
REMARK       I    between atoms: C1_2  and  N1_3 
REMARK    1  A    between atoms: C1_2  and  C6_9 
REMARK    2  A    between atoms: N1_3  and  C2_5 
REMARK    3  A    between atoms: C2_5  and  C3_6 
ROOT
HETATM    1  C6  UNL     1     124.459 106.922 -44.204  1.00  0.00     0.042 C 
HETATM    2  C7  UNL     1     124.565 107.140 -42.734  1.00  0.00     0.024 C 
HETATM    3  C8  UNL     1     124.175 108.542 -42.340  1.00  0.00    -0.013 C 
HETATM    4  C9  UNL     1     122.784 108.804 -42.835  1.00  0.00     0.009 C 
HETATM    5  C10 UNL     1     122.751 108.690 -44.330  1.00  0.00    -0.013 C 
HETATM    6  C11 UNL     1     123.730 109.617 -45.008  1.00  0.00     0.009 C 
HETATM    7  C12 UNL     1     125.120 109.246 -44.506  1.00  0.00    -0.013 C 
HETATM    8  C13 UNL     1     125.137 109.487 -43.026  1.00  0.00     0.009 C 
HETATM    9  C14 UNL     1     125.448 107.830 -44.889  1.00  0.00     0.024 C 
HETATM   10  C15 UNL     1     123.070 107.289 -44.728  1.00  0.00     0.024 C 
ENDROOT
BRANCH   1  11
HETATM   11  C1  UNL     1     124.664 105.502 -44.516  1.00  0.00     0.226 C 
HETATM   12  O1  UNL     1     124.768 105.182 -45.726  1.00  0.00    -0.273 OA
HETATM   13  N1  UNL     1     124.752 104.479 -43.539  1.00  0.00    -0.360 N 
ATOM     14  H1  UNL     1     124.670 104.724 -42.553  1.00  0.00     0.162 HD
BRANCH  13  15
HETATM   15  C2  UNL     1     124.955 103.095 -43.910  1.00  0.00     0.127 C 
BRANCH  15  16
HETATM   16  C3  UNL     1     125.265 102.221 -42.722  1.00  0.00     0.003 A 
HETATM   17  C4  UNL     1     126.668 102.304 -42.201  1.00  0.00     0.007 A 
HETATM   18  C5  UNL     1     125.505 102.969 -41.435  1.00  0.00     0.007 A 
ENDBRANCH  15  16
ENDBRANCH  13  15
ENDBRANCH   1  11
TORSDOF 3
ENDMDL
MODEL 2
REMARK VINA RESULT: -5.676142542      0.159      1.804
REMARK  3 active torsions:
REMARK  status: ('A' for Active; 'I' for Inactive)
REMARK       I    between atoms: C1_2  and  N1_3 
REMARK    1  A    between atoms: C1_2  and  C6_9 
REMARK    2  A    between atoms: N1_3  and  C2_5 
REMARK    3  A    between atoms: C2_5  and  C3_6 
ROOT
HETATM    1  C6  UNL     1     124.317 106.906 -44.218  1.00  0.00     0.042 C 
HETATM    2  C7  UNL     1     125.269 107.832 -44.893  1.00  0.00     0.024 C 
HETATM    3  C8  UNL     1     125.103 109.255 -44.425  1.00  0.00    -0.013 C 
HETATM    4  C9  UNL     1     125.272 109.286 -42.935  1.00  0.00     0.009 C 
HETATM    5  C10 UNL     1     124.218 108.434 -42.290  1.00  0.00    -0.013 C 
HETATM    6  C11 UNL     1     122.818 108.853 -42.668  1.00  0.00     0.009 C 
HETATM    7  C12 UNL     1     122.706 108.732 -44.182  1.00  0.00    -0.013 C 
HETATM    8  C13 UNL     1     123.697 109.686 -44.779  1.00  0.00     0.009 C 
HETATM    9  C14 UNL     1     122.916 107.305 -44.604  1.00  0.00     0.024 C 
HETATM   10  C15 UNL     1     124.414 107.013 -42.696  1.00  0.00     0.024 C 
ENDROOT
BRANCH   1  11
HETATM   11  C1  UNL     1     124.639 105.516 -44.563  1.00  0.00     0.226 C 
HETATM   12  O1  UNL     1     124.789 105.238 -45.778  1.00  0.00    -0.273 OA
HETATM   13  N1  UNL     1     124.789 104.476 -43.611  1.00  0.00    -0.360 N 
ATOM     14  H1  UNL     1     124.670 104.687 -42.621  1.00  0.00     0.162 HD
BRANCH  13  15
HETATM   15  C2  UNL     1     125.107 103.123 -44.014  1.00  0.00     0.127 C 
BRANCH  15  16
HETATM   16  C3  UNL     1     125.320 102.208 -42.835  1.00  0.00     0.003 A 
HETATM   17  C4  UNL     1     126.701 102.210 -42.251  1.00  0.00     0.007 A 
HETATM   18  C5  UNL     1     125.538 102.914 -41.521  1.00  0.00     0.007 A 
ENDBRANCH  15  16
ENDBRANCH  13  15
ENDBRANCH   1  11
TORSDOF 3
ENDMDL
MODEL 3
REMARK VINA RESULT: -5.604502453      0.182      1.806
REMARK  3 active torsions:
REMARK  status: ('A' for Active; 'I' for Inactive)
REMARK       I    between atoms: C1_2  and  N1_3 
REMARK    1  A    between atoms: C1_2  and  C6_9 
REMARK    2  A    between atoms: N1_3  and  C2_5 
REMARK    3  A    between atoms: C2_5  and  C3_6 
ROOT
HETATM    1  C6  UNL     1     124.323 107.013 -44.145  1.00  0.00     0.042 C 
HETATM    2  C7  UNL     1     122.970 107.424 -44.614  1.00  0.00     0.024 C 
HETATM    3  C8  UNL     1     122.730 108.901 -44.428  1.00  0.00    -0.013 C 
HETATM    4  C9  UNL     1     123.811 109.650 -45.148  1.00  0.00     0.009 C 
HETATM    5  C10 UNL     1     125.146 109.296 -44.563  1.00  0.00    -0.013 C 
HETATM    6  C11 UNL     1     125.223 109.562 -43.080  1.00  0.00     0.009 C 
HETATM    7  C12 UNL     1     124.142 108.718 -42.416  1.00  0.00    -0.013 C 
HETATM    8  C13 UNL     1     122.821 109.189 -42.946  1.00  0.00     0.009 C 
HETATM    9  C14 UNL     1     124.403 107.258 -42.660  1.00  0.00     0.024 C 
HETATM   10  C15 UNL     1     125.423 107.850 -44.801  1.00  0.00     0.024 C 
ENDROOT
BRANCH   1  11
HETATM   11  C1  UNL     1     124.581 105.616 -44.516  1.00  0.00     0.226 C 
HETATM   12  O1  UNL     1     124.707 105.353 -45.737  1.00  0.00    -0.273 OA
HETATM   13  N1  UNL     1     124.695 104.556 -43.583  1.00  0.00    -0.360 N 
ATOM     14  H1  UNL     1     124.595 104.755 -42.588  1.00  0.00     0.162 HD
BRANCH  13  15
HETATM   15  C2  UNL     1     124.950 103.197 -44.010  1.00  0.00     0.127 C 
BRANCH  15  16
HETATM   16  C3  UNL     1     125.245 102.276 -42.854  1.00  0.00     0.003 A 
HETATM   17  C4  UNL     1     126.643 102.333 -42.317  1.00  0.00     0.007 A 
HETATM   18  C5  UNL     1     125.476 102.973 -41.537  1.00  0.00     0.007 A 
ENDBRANCH  15  16
ENDBRANCH  13  15
ENDBRANCH   1  11
TORSDOF 3
ENDMDL
MODEL 4
REMARK VINA RESULT: -5.470946285      1.817      2.920
REMARK  3 active torsions:
REMARK  status: ('A' for Active; 'I' for Inactive)
REMARK       I    between atoms: C1_2  and  N1_3 
REMARK    1  A    between atoms: C1_2  and  C6_9 
REMARK    2  A    between atoms: N1_3  and  C2_5 
REMARK    3  A    between atoms: C2_5  and  C3_6 
ROOT
HETATM    1  C6  UNL     1     124.697 108.021 -42.405  1.00  0.00     0.042 C 
HETATM    2  C7  UNL     1     125.393 108.102 -43.720  1.00  0.00     0.024 C 
HETATM    3  C8  UNL     1     125.245 109.461 -44.356  1.00  0.00    -0.013 C 
HETATM    4  C9  UNL     1     125.762 110.491 -43.397  1.00  0.00     0.009 C 
HETATM    5  C10 UNL     1     124.955 110.454 -42.133  1.00  0.00    -0.013 C 
HETATM    6  C11 UNL     1     123.480 110.660 -42.377  1.00  0.00     0.009 C 
HETATM    7  C12 UNL     1     123.018 109.541 -43.301  1.00  0.00    -0.013 C 
HETATM    8  C13 UNL     1     123.768 109.691 -44.591  1.00  0.00     0.009 C 
HETATM    9  C14 UNL     1     123.219 108.206 -42.640  1.00  0.00     0.024 C 
HETATM   10  C15 UNL     1     125.147 109.137 -41.462  1.00  0.00     0.024 C 
ENDROOT
BRANCH   1  11
HETATM   11  C1  UNL     1     125.023 106.753 -41.742  1.00  0.00     0.226 C 
HETATM   12  O1  UNL     1     125.620 106.810 -40.639  1.00  0.00    -0.273 OA
HETATM   13  N1  UNL     1     124.704 105.476 -42.269  1.00  0.00    -0.360 N 
ATOM     14  H1  UNL     1     124.218 105.414 -43.164  1.00  0.00     0.162 HD
BRANCH  13  15
HETATM   15  C2  UNL     1     125.052 104.260 -41.567  1.00  0.00     0.127 C 
BRANCH  15  16
HETATM   16  C3  UNL     1     124.839 103.028 -42.410  1.00  0.00     0.003 A 
HETATM   17  C4  UNL     1     124.775 103.256 -43.891  1.00  0.00     0.007 A 
HETATM   18  C5  UNL     1     126.028 102.625 -43.247  1.00  0.00     0.007 A 
ENDBRANCH  15  16
ENDBRANCH  13  15
ENDBRANCH   1  11
TORSDOF 3
ENDMDL
MODEL 5
REMARK VINA RESULT: -5.434518566      1.830      2.304
REMARK  3 active torsions:
REMARK  status: ('A' for Active; 'I' for Inactive)
REMARK       I    between atoms: C1_2  and  N1_3 
REMARK    1  A    between atoms: C1_2  and  C6_9 
REMARK    2  A    between atoms: N1_3  and  C2_5 
REMARK    3  A    between atoms: C2_5  and  C3_6 
ROOT
HETATM    1  C6  UNL     1     124.744 108.020 -42.335  1.00  0.00     0.042 C 
HETATM    2  C7  UNL     1     125.171 109.106 -41.408  1.00  0.00     0.024 C 
HETATM    3  C8  UNL     1     124.741 110.467 -41.892  1.00  0.00    -0.013 C 
HETATM    4  C9  UNL     1     123.252 110.456 -42.074  1.00  0.00     0.009 C 
HETATM    5  C10 UNL     1     122.877 109.430 -43.104  1.00  0.00    -0.013 C 
HETATM    6  C11 UNL     1     123.565 109.655 -44.428  1.00  0.00     0.009 C 
HETATM    7  C12 UNL     1     125.065 109.586 -44.172  1.00  0.00    -0.013 C 
HETATM    8  C13 UNL     1     125.408 110.701 -43.230  1.00  0.00     0.009 C 
HETATM    9  C14 UNL     1     125.441 108.225 -43.656  1.00  0.00     0.024 C 
HETATM   10  C15 UNL     1     123.239 108.073 -42.605  1.00  0.00     0.024 C 
ENDROOT
BRANCH   1  11
HETATM   11  C1  UNL     1     125.017 106.710 -41.734  1.00  0.00     0.226 C 
HETATM   12  O1  UNL     1     125.569 106.691 -40.606  1.00  0.00    -0.273 OA
HETATM   13  N1  UNL     1     124.696 105.473 -42.347  1.00  0.00    -0.360 N 
ATOM     14  H1  UNL     1     124.247 105.472 -43.262  1.00  0.00     0.162 HD
BRANCH  13  15
HETATM   15  C2  UNL     1     124.991 104.211 -41.703  1.00  0.00     0.127 C 
BRANCH  15  16
HETATM   16  C3  UNL     1     124.753 103.032 -42.612  1.00  0.00     0.003 A 
HETATM   17  C4  UNL     1     124.725 103.337 -44.080  1.00  0.00     0.007 A 
HETATM   18  C5  UNL     1     125.943 102.631 -43.448  1.00  0.00     0.007 A 
ENDBRANCH  15  16
ENDBRANCH  13  15
ENDBRANCH   1  11
TORSDOF 3
ENDMDL
