MODEL 1
REMARK VINA RESULT: -7.623691388      0.000      0.000
REMARK  9 active torsions:
REMARK  status: ('A' for Active; 'I' for Inactive)
REMARK    1  A    between atoms: C2_2  and  C3_3 
REMARK    2  A    between atoms: C7_9  and  N2_10 
REMARK       I    between atoms: N2_10  and  C8_12 
REMARK    3  A    between atoms: C8_12  and  C9_14 
REMARK    4  A    between atoms: N4_22  and  C13_24 
REMARK    5  A    between atoms: C13_24  and  C14_25 
REMARK    6  A    between atoms: C14_25  and  N5_26 
REMARK    7  A    between atoms: N5_26  and  C16_28 
REMARK    8  A    between atoms: C16_28  and  C17_29 
REMARK    9  A    between atoms: C17_29  and  O2_30 
ROOT
HETATM    1  C3  UNL     1      10.371   5.431  24.983  1.00  0.00     0.056 A 
HETATM    2  C4  UNL     1      11.270   6.464  24.822  1.00  0.00     0.048 A 
HETATM    3  C5  UNL     1      12.469   6.376  25.463  1.00  0.00     0.014 A 
HETATM    4  C6  UNL     1      13.446   7.360  25.369  1.00  0.00     0.120 A 
HETATM    5  N1  UNL     1      14.587   7.161  26.049  1.00  0.00    -0.201 N 
ATOM      6  H1  UNL     1      15.321   7.868  25.997  1.00  0.00     0.183 HD
HETATM    7  C7  UNL     1      14.795   6.059  26.798  1.00  0.00     0.685 A 
HETATM    8  N3  UNL     1      13.848   5.105  26.889  1.00  0.00    -0.186 N 
ATOM      9  H3  UNL     1      14.018   4.276  27.458  1.00  0.00     0.184 HD
HETATM   10  C11 UNL     1      12.702   5.237  26.246  1.00  0.00     0.112 A 
HETATM   11  C12 UNL     1      11.782   4.225  26.385  1.00  0.00     0.172 A 
HETATM   12  N4  UNL     1      11.927   3.204  27.053  1.00  0.00    -0.367 N 
ATOM     13  H4  UNL     1      11.080   2.643  26.967  1.00  0.00     0.161 HD
HETATM   14  O3  UNL     1      10.629   4.382  25.724  1.00  0.00    -0.296 OA
ENDROOT
BRANCH  12  15
HETATM   15  C13 UNL     1      12.804   2.535  27.874  1.00  0.00     0.152 C 
BRANCH  15  16
HETATM   16  C14 UNL     1      12.732   1.044  27.468  1.00  0.00     0.291 C 
BRANCH  16  17
HETATM   17  N5  UNL     1      12.486   0.191  28.590  1.00  0.00     0.087 N 
HETATM   18  C15 UNL     1      13.717  -0.359  29.088  1.00  0.00     0.310 C 
BRANCH  17  19
HETATM   19  C16 UNL     1      11.692   0.822  29.605  1.00  0.00     0.297 C 
BRANCH  19  20
HETATM   20  C17 UNL     1      11.652   0.009  30.886  1.00  0.00     0.194 C 
BRANCH  20  21
HETATM   21  O2  UNL     1      11.247   0.793  31.963  1.00  0.00    -0.399 OA
ATOM     22  H2  UNL     1      10.744   0.283  32.586  1.00  0.00     0.209 HD
ENDBRANCH  20  21
ENDBRANCH  19  20
ENDBRANCH  17  19
ENDBRANCH  16  17
ENDBRANCH  15  16
ENDBRANCH  12  15
BRANCH   1  23
HETATM   23  C2  UNL     1       9.062   5.566  24.258  1.00  0.00     0.060 C 
HETATM   24  C1  UNL     1       9.243   6.299  22.946  1.00  0.00     0.012 C 
ENDBRANCH   1  23
BRANCH   7  25
HETATM   25  N2  UNL     1      15.920   5.944  27.426  1.00  0.00    -0.157 N 
HETATM   26  C8  UNL     1      16.934   6.896  27.507  1.00  0.00     0.266 C 
HETATM   27  O1  UNL     1      17.648   7.051  26.459  1.00  0.00    -0.270 OA
ATOM     28  H2  UNL     1      16.081   5.063  27.914  1.00  0.00     0.187 HD
BRANCH  26  29
HETATM   29  C9  UNL     1      17.236   7.722  28.696  1.00  0.00     0.153 C 
HETATM   30  C10 UNL     1      18.156   6.906  29.600  1.00  0.00     0.051 C 
HETATM   31 BR1  UNL     1      15.692   8.223  29.711  1.00  0.00    -0.063 Br
HETATM   32 BR2  UNL     1      18.236   9.295  28.171  1.00  0.00    -0.063 Br
ENDBRANCH  26  29
ENDBRANCH   7  25
TORSDOF 9
ENDMDL
MODEL 2
REMARK VINA RESULT: -7.577847308      7.197     10.830
REMARK  9 active torsions:
REMARK  status: ('A' for Active; 'I' for Inactive)
REMARK    1  A    between atoms: C2_2  and  C3_3 
REMARK    2  A    between atoms: C7_9  and  N2_10 
REMARK       I    between atoms: N2_10  and  C8_12 
REMARK    3  A    between atoms: C8_12  and  C9_14 
REMARK    4  A    between atoms: N4_22  and  C13_24 
REMARK    5  A    between atoms: C13_24  and  C14_25 
REMARK    6  A    between atoms: C14_25  and  N5_26 
REMARK    7  A    between atoms: N5_26  and  C16_28 
REMARK    8  A    between atoms: C16_28  and  C17_29 
REMARK    9  A    between atoms: C17_29  and  O2_30 
ROOT
HETATM    1  C3  UNL     1      16.169   9.052  29.968  1.00  0.00     0.056 A 
HETATM    2  C4  UNL     1      16.262   8.719  31.303  1.00  0.00     0.048 A 
HETATM    3  C5  UNL     1      16.893   9.592  32.139  1.00  0.00     0.014 A 
HETATM    4  C6  UNL     1      17.042   9.356  33.501  1.00  0.00     0.120 A 
HETATM    5  N1  UNL     1      17.685  10.289  34.220  1.00  0.00    -0.201 N 
ATOM      6  H1  UNL     1      17.808  10.140  35.222  1.00  0.00     0.183 HD
HETATM    7  C7  UNL     1      18.173  11.416  33.664  1.00  0.00     0.685 A 
HETATM    8  N3  UNL     1      18.029  11.646  32.344  1.00  0.00    -0.186 N 
ATOM      9  H3  UNL     1      18.402  12.502  31.935  1.00  0.00     0.184 HD
HETATM   10  C11 UNL     1      17.407  10.769  31.577  1.00  0.00     0.112 A 
HETATM   11  C12 UNL     1      17.297  11.068  30.239  1.00  0.00     0.172 A 
HETATM   12  N4  UNL     1      17.723  12.081  29.689  1.00  0.00    -0.367 N 
ATOM     13  H4  UNL     1      17.495  12.024  28.696  1.00  0.00     0.161 HD
HETATM   14  O3  UNL     1      16.663  10.164  29.484  1.00  0.00    -0.296 OA
ENDROOT
BRANCH  12  15
HETATM   15  C13 UNL     1      18.393  13.261  29.910  1.00  0.00     0.152 C 
BRANCH  15  16
HETATM   16  C14 UNL     1      18.308  14.065  28.591  1.00  0.00     0.291 C 
BRANCH  16  17
HETATM   17  N5  UNL     1      17.044  14.716  28.437  1.00  0.00     0.087 N 
HETATM   18  C15 UNL     1      17.178  16.134  28.629  1.00  0.00     0.310 C 
BRANCH  17  19
HETATM   19  C16 UNL     1      16.384  14.367  27.211  1.00  0.00     0.297 C 
BRANCH  19  20
HETATM   20  C17 UNL     1      15.220  13.420  27.439  1.00  0.00     0.194 C 
BRANCH  20  21
HETATM   21  O2  UNL     1      15.640  12.093  27.396  1.00  0.00    -0.399 OA
ATOM     22  H2  UNL     1      14.939  11.505  27.650  1.00  0.00     0.209 HD
ENDBRANCH  20  21
ENDBRANCH  19  20
ENDBRANCH  17  19
ENDBRANCH  16  17
ENDBRANCH  15  16
ENDBRANCH  12  15
BRANCH   1  23
HETATM   23  C2  UNL     1      15.464   8.064  29.082  1.00  0.00     0.060 C 
HETATM   24  C1  UNL     1      16.231   6.761  29.007  1.00  0.00     0.012 C 
ENDBRANCH   1  23
BRANCH   7  25
HETATM   25  N2  UNL     1      18.785  12.265  34.425  1.00  0.00    -0.157 N 
HETATM   26  C8  UNL     1      20.026  12.099  35.035  1.00  0.00     0.266 C 
HETATM   27  O1  UNL     1      20.059  11.319  36.046  1.00  0.00    -0.270 OA
ATOM     28  H2  UNL     1      18.307  13.150  34.596  1.00  0.00     0.187 HD
BRANCH  26  29
HETATM   29  C9  UNL     1      21.282  12.749  34.603  1.00  0.00     0.153 C 
HETATM   30  C10 UNL     1      21.447  14.022  35.429  1.00  0.00     0.051 C 
HETATM   31 BR1  UNL     1      21.317  13.229  32.751  1.00  0.00    -0.063 Br
HETATM   32 BR2  UNL     1      22.794  11.616  35.033  1.00  0.00    -0.063 Br
ENDBRANCH  26  29
ENDBRANCH   7  25
TORSDOF 9
ENDMDL
MODEL 3
REMARK VINA RESULT: -7.535800333      3.463      6.270
REMARK  9 active torsions:
REMARK  status: ('A' for Active; 'I' for Inactive)
REMARK    1  A    between atoms: C2_2  and  C3_3 
REMARK    2  A    between atoms: C7_9  and  N2_10 
REMARK       I    between atoms: N2_10  and  C8_12 
REMARK    3  A    between atoms: C8_12  and  C9_14 
REMARK    4  A    between atoms: N4_22  and  C13_24 
REMARK    5  A    between atoms: C13_24  and  C14_25 
REMARK    6  A    between atoms: C14_25  and  N5_26 
REMARK    7  A    between atoms: N5_26  and  C16_28 
REMARK    8  A    between atoms: C16_28  and  C17_29 
REMARK    9  A    between atoms: C17_29  and  O2_30 
ROOT
HETATM    1  C3  UNL     1      16.300   8.214  30.214  1.00  0.00     0.056 A 
HETATM    2  C4  UNL     1      17.581   7.872  29.837  1.00  0.00     0.048 A 
HETATM    3  C5  UNL     1      17.739   7.109  28.719  1.00  0.00     0.014 A 
HETATM    4  C6  UNL     1      18.984   6.708  28.250  1.00  0.00     0.120 A 
HETATM    5  N1  UNL     1      19.011   5.955  27.139  1.00  0.00    -0.201 N 
ATOM      6  H1  UNL     1      19.912   5.648  26.773  1.00  0.00     0.183 HD
HETATM    7  C7  UNL     1      17.886   5.593  26.489  1.00  0.00     0.685 A 
HETATM    8  N3  UNL     1      16.679   5.981  26.942  1.00  0.00    -0.186 N 
ATOM      9  H3  UNL     1      15.836   5.701  26.441  1.00  0.00     0.184 HD
HETATM   10  C11 UNL     1      16.580   6.723  28.031  1.00  0.00     0.112 A 
HETATM   11  C12 UNL     1      15.316   7.082  28.436  1.00  0.00     0.172 A 
HETATM   12  N4  UNL     1      14.265   6.778  27.876  1.00  0.00    -0.367 N 
ATOM     13  H4  UNL     1      13.493   7.184  28.405  1.00  0.00     0.161 HD
HETATM   14  O3  UNL     1      15.243   7.832  29.541  1.00  0.00    -0.296 OA
ENDROOT
BRANCH  12  15
HETATM   15  C13 UNL     1      13.740   6.094  26.805  1.00  0.00     0.152 C 
BRANCH  15  16
HETATM   16  C14 UNL     1      12.353   5.577  27.253  1.00  0.00     0.291 C 
BRANCH  16  17
HETATM   17  N5  UNL     1      11.937   4.431  26.504  1.00  0.00     0.087 N 
HETATM   18  C15 UNL     1      12.540   4.434  25.199  1.00  0.00     0.310 C 
BRANCH  17  19
HETATM   19  C16 UNL     1      12.127   3.201  27.217  1.00  0.00     0.297 C 
BRANCH  19  20
HETATM   20  C17 UNL     1      13.089   2.270  26.503  1.00  0.00     0.194 C 
BRANCH  20  21
HETATM   21  O2  UNL     1      14.319   2.227  27.155  1.00  0.00    -0.399 OA
ATOM     22  H2  UNL     1      14.245   2.551  28.044  1.00  0.00     0.209 HD
ENDBRANCH  20  21
ENDBRANCH  19  20
ENDBRANCH  17  19
ENDBRANCH  16  17
ENDBRANCH  15  16
ENDBRANCH  12  15
BRANCH   1  23
HETATM   23  C2  UNL     1      16.171   9.057  31.451  1.00  0.00     0.060 C 
HETATM   24  C1  UNL     1      17.398   8.924  32.327  1.00  0.00     0.012 C 
ENDBRANCH   1  23
BRANCH   7  25
HETATM   25  N2  UNL     1      17.996   4.863  25.426  1.00  0.00    -0.157 N 
HETATM   26  C8  UNL     1      16.959   4.404  24.616  1.00  0.00     0.266 C 
HETATM   27  O1  UNL     1      16.259   3.444  25.084  1.00  0.00    -0.270 OA
ATOM     28  H2  UNL     1      18.941   4.596  25.152  1.00  0.00     0.187 HD
BRANCH  26  29
HETATM   29  C9  UNL     1      16.620   4.940  23.280  1.00  0.00     0.153 C 
HETATM   30  C10 UNL     1      15.563   6.023  23.476  1.00  0.00     0.051 C 
HETATM   31 BR1  UNL     1      15.921   3.635  22.068  1.00  0.00    -0.063 Br
HETATM   32 BR2  UNL     1      18.166   5.815  22.508  1.00  0.00    -0.063 Br
ENDBRANCH  26  29
ENDBRANCH   7  25
TORSDOF 9
ENDMDL
MODEL 4
REMARK VINA RESULT: -7.507272997      3.316      6.267
REMARK  9 active torsions:
REMARK  status: ('A' for Active; 'I' for Inactive)
REMARK    1  A    between atoms: C2_2  and  C3_3 
REMARK    2  A    between atoms: C7_9  and  N2_10 
REMARK       I    between atoms: N2_10  and  C8_12 
REMARK    3  A    between atoms: C8_12  and  C9_14 
REMARK    4  A    between atoms: N4_22  and  C13_24 
REMARK    5  A    between atoms: C13_24  and  C14_25 
REMARK    6  A    between atoms: C14_25  and  N5_26 
REMARK    7  A    between atoms: N5_26  and  C16_28 
REMARK    8  A    between atoms: C16_28  and  C17_29 
REMARK    9  A    between atoms: C17_29  and  O2_30 
ROOT
HETATM    1  C3  UNL     1      16.303   8.206  30.204  1.00  0.00     0.056 A 
HETATM    2  C4  UNL     1      17.583   7.868  29.819  1.00  0.00     0.048 A 
HETATM    3  C5  UNL     1      17.735   7.093  28.708  1.00  0.00     0.014 A 
HETATM    4  C6  UNL     1      18.979   6.694  28.233  1.00  0.00     0.120 A 
HETATM    5  N1  UNL     1      19.000   5.930  27.130  1.00  0.00    -0.201 N 
ATOM      6  H1  UNL     1      19.900   5.623  26.760  1.00  0.00     0.183 HD
HETATM    7  C7  UNL     1      17.871   5.553  26.494  1.00  0.00     0.685 A 
HETATM    8  N3  UNL     1      16.666   5.939  26.954  1.00  0.00    -0.186 N 
ATOM      9  H3  UNL     1      15.820   5.648  26.465  1.00  0.00     0.184 HD
HETATM   10  C11 UNL     1      16.572   6.693  28.036  1.00  0.00     0.112 A 
HETATM   11  C12 UNL     1      15.310   7.049  28.448  1.00  0.00     0.172 A 
HETATM   12  N4  UNL     1      14.256   6.731  27.902  1.00  0.00    -0.367 N 
ATOM     13  H4  UNL     1      13.486   7.140  28.433  1.00  0.00     0.161 HD
HETATM   14  O3  UNL     1      15.242   7.811  29.546  1.00  0.00    -0.296 OA
ENDROOT
BRANCH  12  15
HETATM   15  C13 UNL     1      13.725   6.033  26.843  1.00  0.00     0.152 C 
BRANCH  15  16
HETATM   16  C14 UNL     1      12.376   5.456  27.332  1.00  0.00     0.291 C 
BRANCH  16  17
HETATM   17  N5  UNL     1      11.961   4.325  26.560  1.00  0.00     0.087 N 
HETATM   18  C15 UNL     1      12.535   4.375  25.242  1.00  0.00     0.310 C 
BRANCH  17  19
HETATM   19  C16 UNL     1      12.186   3.078  27.232  1.00  0.00     0.297 C 
BRANCH  19  20
HETATM   20  C17 UNL     1      13.170   2.196  26.486  1.00  0.00     0.194 C 
BRANCH  20  21
HETATM   21  O2  UNL     1      14.410   2.186  27.117  1.00  0.00    -0.399 OA
ATOM     22  H2  UNL     1      15.107   2.014  26.496  1.00  0.00     0.209 HD
ENDBRANCH  20  21
ENDBRANCH  19  20
ENDBRANCH  17  19
ENDBRANCH  16  17
ENDBRANCH  15  16
ENDBRANCH  12  15
BRANCH   1  23
HETATM   23  C2  UNL     1      16.181   9.063  31.433  1.00  0.00     0.060 C 
HETATM   24  C1  UNL     1      17.410   8.937  32.306  1.00  0.00     0.012 C 
ENDBRANCH   1  23
BRANCH   7  25
HETATM   25  N2  UNL     1      17.976   4.812  25.439  1.00  0.00    -0.157 N 
HETATM   26  C8  UNL     1      16.933   4.301  24.670  1.00  0.00     0.266 C 
HETATM   27  O1  UNL     1      16.285   3.321  25.174  1.00  0.00    -0.270 OA
ATOM     28  H2  UNL     1      18.921   4.576  25.139  1.00  0.00     0.187 HD
BRANCH  26  29
HETATM   29  C9  UNL     1      16.530   4.803  23.338  1.00  0.00     0.153 C 
HETATM   30  C10 UNL     1      17.805   5.045  22.535  1.00  0.00     0.051 C 
HETATM   31 BR1  UNL     1      15.536   6.437  23.386  1.00  0.00    -0.063 Br
HETATM   32 BR2  UNL     1      15.536   3.437  22.390  1.00  0.00    -0.063 Br
ENDBRANCH  26  29
ENDBRANCH   7  25
TORSDOF 9
ENDMDL
MODEL 5
REMARK VINA RESULT: -7.444736906      3.485      6.369
REMARK  9 active torsions:
REMARK  status: ('A' for Active; 'I' for Inactive)
REMARK    1  A    between atoms: C2_2  and  C3_3 
REMARK    2  A    between atoms: C7_9  and  N2_10 
REMARK       I    between atoms: N2_10  and  C8_12 
REMARK    3  A    between atoms: C8_12  and  C9_14 
REMARK    4  A    between atoms: N4_22  and  C13_24 
REMARK    5  A    between atoms: C13_24  and  C14_25 
REMARK    6  A    between atoms: C14_25  and  N5_26 
REMARK    7  A    between atoms: N5_26  and  C16_28 
REMARK    8  A    between atoms: C16_28  and  C17_29 
REMARK    9  A    between atoms: C17_29  and  O2_30 
ROOT
HETATM    1  C3  UNL     1      16.255   8.429  30.278  1.00  0.00     0.056 A 
HETATM    2  C4  UNL     1      17.440   7.829  29.907  1.00  0.00     0.048 A 
HETATM    3  C5  UNL     1      17.438   7.040  28.796  1.00  0.00     0.014 A 
HETATM    4  C6  UNL     1      18.576   6.389  28.333  1.00  0.00     0.120 A 
HETATM    5  N1  UNL     1      18.449   5.638  27.228  1.00  0.00    -0.201 N 
ATOM      6  H1  UNL     1      19.268   5.149  26.868  1.00  0.00     0.183 HD
HETATM    7  C7  UNL     1      17.274   5.507  26.579  1.00  0.00     0.685 A 
HETATM    8  N3  UNL     1      16.171   6.137  27.027  1.00  0.00    -0.186 N 
ATOM      9  H3  UNL     1      15.288   6.031  26.527  1.00  0.00     0.184 HD
HETATM   10  C11 UNL     1      16.225   6.893  28.109  1.00  0.00     0.112 A 
HETATM   11  C12 UNL     1      15.061   7.506  28.508  1.00  0.00     0.172 A 
HETATM   12  N4  UNL     1      13.970   7.418  27.950  1.00  0.00    -0.367 N 
ATOM     13  H4  UNL     1      13.297   7.978  28.473  1.00  0.00     0.161 HD
HETATM   14  O3  UNL     1      15.142   8.265  29.607  1.00  0.00    -0.296 OA
ENDROOT
BRANCH  12  15
HETATM   15  C13 UNL     1      13.317   6.846  26.883  1.00  0.00     0.152 C 
BRANCH  15  16
HETATM   16  C14 UNL     1      12.227   5.926  27.480  1.00  0.00     0.291 C 
BRANCH  16  17
HETATM   17  N5  UNL     1      12.201   4.642  26.850  1.00  0.00     0.087 N 
HETATM   18  C15 UNL     1      11.999   4.778  25.433  1.00  0.00     0.310 C 
BRANCH  17  19
HETATM   19  C16 UNL     1      13.336   3.832  27.189  1.00  0.00     0.297 C 
BRANCH  19  20
HETATM   20  C17 UNL     1      13.706   2.872  26.074  1.00  0.00     0.194 C 
BRANCH  20  21
HETATM   21  O2  UNL     1      15.083   2.671  26.023  1.00  0.00    -0.399 OA
ATOM     22  H2  UNL     1      15.339   1.930  26.559  1.00  0.00     0.209 HD
ENDBRANCH  20  21
ENDBRANCH  19  20
ENDBRANCH  17  19
ENDBRANCH  16  17
ENDBRANCH  15  16
ENDBRANCH  12  15
BRANCH   1  23
HETATM   23  C2  UNL     1      16.301   9.292  31.508  1.00  0.00     0.060 C 
HETATM   24  C1  UNL     1      17.427   8.867  32.426  1.00  0.00     0.012 C 
ENDBRANCH   1  23
BRANCH   7  25
HETATM   25  N2  UNL     1      17.232   4.760  25.523  1.00  0.00    -0.157 N 
HETATM   26  C8  UNL     1      16.747   5.116  24.267  1.00  0.00     0.266 C 
HETATM   27  O1  UNL     1      15.477   5.183  24.149  1.00  0.00    -0.270 OA
ATOM     28  H2  UNL     1      17.592   3.811  25.621  1.00  0.00     0.187 HD
BRANCH  26  29
HETATM   29  C9  UNL     1      17.583   5.415  23.084  1.00  0.00     0.153 C 
HETATM   30  C10 UNL     1      18.606   4.290  22.949  1.00  0.00     0.051 C 
HETATM   31 BR1  UNL     1      18.530   7.074  23.195  1.00  0.00    -0.063 Br
HETATM   32 BR2  UNL     1      16.498   5.366  21.479  1.00  0.00    -0.063 Br
ENDBRANCH  26  29
ENDBRANCH   7  25
TORSDOF 9
ENDMDL
