MODEL 1
REMARK VINA RESULT: -8.355950809      0.000      0.000
REMARK  12 active torsions:
REMARK  status: ('A' for Active; 'I' for Inactive)
REMARK       I    between atoms: C2_2  and  N1_4 
REMARK    1  A    between atoms: N1_4  and  C3_6 
REMARK    2  A    between atoms: C3_6  and  C4_7 
REMARK    3  A    between atoms: C3_6  and  C7_12 
REMARK    4  A    between atoms: C4_7  and  C5_8 
REMARK    5  A    between atoms: C5_8  and  C6_10 
REMARK    6  A    between atoms: C7_12  and  O4_14 
REMARK    7  A    between atoms: O4_14  and  C8_15 
REMARK    8  A    between atoms: C8_15  and  O5_16 
REMARK    9  A    between atoms: C8_15  and  C9_18 
REMARK   10  A    between atoms: C9_18  and  C21_33 
REMARK   11  A    between atoms: C11_20  and  C12_22 
REMARK   12  A    between atoms: C15_25  and  O6_26 
ROOT
HETATM    1  C8  UNL     1      13.370   7.100  26.634  1.00  0.00     0.277 C 
ENDROOT
BRANCH   1   2
HETATM    2  O4  UNL     1      13.386   5.728  26.293  1.00  0.00    -0.287 OA
BRANCH   2   3
HETATM    3  C7  UNL     1      12.667   4.774  26.985  1.00  0.00     0.284 C 
HETATM    4  O3  UNL     1      11.774   5.186  27.764  1.00  0.00    -0.263 OA
BRANCH   3   5
HETATM    5  C3  UNL     1      12.886   3.307  26.863  1.00  0.00     0.191 C 
BRANCH   5   6
HETATM    6  N1  UNL     1      13.098   2.976  25.487  1.00  0.00    -0.347 N 
HETATM    7  C2  UNL     1      14.332   2.836  24.846  1.00  0.00     0.214 C 
HETATM    8  C1  UNL     1      14.402   2.487  23.415  1.00  0.00     0.117 C 
HETATM    9  O1  UNL     1      15.396   3.004  25.475  1.00  0.00    -0.274 OA
ATOM     10  H1  UNL     1      12.266   2.826  24.917  1.00  0.00     0.163 HD
ENDBRANCH   5   6
BRANCH   5  11
HETATM   11  C4  UNL     1      11.833   2.519  27.562  1.00  0.00     0.115 C 
BRANCH  11  12
HETATM   12  C5  UNL     1      12.323   1.225  28.089  1.00  0.00     0.142 C 
HETATM   13  O2  UNL     1      13.230   0.606  27.568  1.00  0.00    -0.297 OA
BRANCH  12  14
HETATM   14  C6  UNL     1      11.704   0.625  29.307  1.00  0.00     0.192 C 
HETATM   15 CL1  UNL     1      12.816  -0.518  30.087  1.00  0.00    -0.123 Cl
ENDBRANCH  12  14
ENDBRANCH  11  12
ENDBRANCH   5  11
ENDBRANCH   3   5
ENDBRANCH   2   3
ENDBRANCH   1   2
BRANCH   1  16
HETATM   16  O5  UNL     1      12.079   7.597  26.753  1.00  0.00    -0.370 OA
ATOM     17  H5  UNL     1      11.640   7.276  27.532  1.00  0.00     0.212 HD
ENDBRANCH   1  16
BRANCH   1  18
HETATM   18  C9  UNL     1      14.258   7.460  27.790  1.00  0.00     0.034 A 
HETATM   19  C10 UNL     1      15.195   8.591  27.460  1.00  0.00     0.039 A 
HETATM   20  C11 UNL     1      15.669   7.247  27.897  1.00  0.00     0.036 A 
HETATM   21 BR1  UNL     1      16.735   6.371  26.514  1.00  0.00    -0.084 Br
BRANCH  20  22
HETATM   22  C12 UNL     1      16.225   7.099  29.256  1.00  0.00     0.011 C 
HETATM   23  C13 UNL     1      15.627   8.118  30.218  1.00  0.00     0.014 C 
HETATM   24  C14 UNL     1      16.599   9.257  30.212  1.00  0.00     0.021 C 
HETATM   25  C15 UNL     1      16.623  10.037  28.889  1.00  0.00     0.131 C 
HETATM   26  C18 UNL     1      17.900   8.683  29.826  1.00  0.00     0.007 C 
HETATM   27  C16 UNL     1      17.827   9.366  28.449  1.00  0.00    -0.009 C 
HETATM   28  C17 UNL     1      19.018  10.312  28.235  1.00  0.00     0.018 C 
HETATM   29  C21 UNL     1      17.849   8.299  27.430  1.00  0.00     0.012 C 
HETATM   30  C20 UNL     1      18.517   7.190  28.209  1.00  0.00     0.012 C 
HETATM   31  C19 UNL     1      17.671   7.214  29.445  1.00  0.00    -0.003 C 
BRANCH  25  32
HETATM   32  O6  UNL     1      16.855  11.398  29.189  1.00  0.00    -0.394 OA
ATOM     33  H6  UNL     1      16.058  11.881  29.000  1.00  0.00     0.210 HD
ENDBRANCH  25  32
ENDBRANCH  20  22
ENDBRANCH   1  18
TORSDOF 12
ENDMDL
MODEL 2
REMARK VINA RESULT: -8.328579803      1.506      2.016
REMARK  12 active torsions:
REMARK  status: ('A' for Active; 'I' for Inactive)
REMARK       I    between atoms: C2_2  and  N1_4 
REMARK    1  A    between atoms: N1_4  and  C3_6 
REMARK    2  A    between atoms: C3_6  and  C4_7 
REMARK    3  A    between atoms: C3_6  and  C7_12 
REMARK    4  A    between atoms: C4_7  and  C5_8 
REMARK    5  A    between atoms: C5_8  and  C6_10 
REMARK    6  A    between atoms: C7_12  and  O4_14 
REMARK    7  A    between atoms: O4_14  and  C8_15 
REMARK    8  A    between atoms: C8_15  and  O5_16 
REMARK    9  A    between atoms: C8_15  and  C9_18 
REMARK   10  A    between atoms: C9_18  and  C21_33 
REMARK   11  A    between atoms: C11_20  and  C12_22 
REMARK   12  A    between atoms: C15_25  and  O6_26 
ROOT
HETATM    1  C8  UNL     1      13.543   7.015  26.736  1.00  0.00     0.277 C 
ENDROOT
BRANCH   1   2
HETATM    2  O4  UNL     1      13.383   5.614  26.645  1.00  0.00    -0.287 OA
BRANCH   2   3
HETATM    3  C7  UNL     1      12.198   4.972  26.947  1.00  0.00     0.284 C 
HETATM    4  O3  UNL     1      11.577   5.369  27.962  1.00  0.00    -0.263 OA
BRANCH   3   5
HETATM    5  C3  UNL     1      11.623   3.854  26.151  1.00  0.00     0.191 C 
BRANCH   5   6
HETATM    6  N1  UNL     1      10.368   4.265  25.600  1.00  0.00    -0.347 N 
HETATM    7  C2  UNL     1      10.159   5.309  24.694  1.00  0.00     0.214 C 
HETATM    8  C1  UNL     1       8.804   5.622  24.205  1.00  0.00     0.117 C 
HETATM    9  O1  UNL     1      11.118   5.993  24.284  1.00  0.00    -0.274 OA
ATOM     10  H1  UNL     1       9.543   3.744  25.897  1.00  0.00     0.163 HD
ENDBRANCH   5   6
BRANCH   5  11
HETATM   11  C4  UNL     1      11.605   2.572  26.909  1.00  0.00     0.115 C 
BRANCH  11  12
HETATM   12  C5  UNL     1      12.901   1.855  26.878  1.00  0.00     0.142 C 
HETATM   13  O2  UNL     1      13.760   2.091  26.051  1.00  0.00    -0.297 OA
BRANCH  12  14
HETATM   14  C6  UNL     1      13.199   0.794  27.883  1.00  0.00     0.192 C 
HETATM   15 CL1  UNL     1      11.857   0.616  29.033  1.00  0.00    -0.123 Cl
ENDBRANCH  12  14
ENDBRANCH  11  12
ENDBRANCH   5  11
ENDBRANCH   3   5
ENDBRANCH   2   3
ENDBRANCH   1   2
BRANCH   1  16
HETATM   16  O5  UNL     1      12.334   7.690  26.642  1.00  0.00    -0.370 OA
ATOM     17  H5  UNL     1      12.245   8.156  25.819  1.00  0.00     0.212 HD
ENDBRANCH   1  16
BRANCH   1  18
HETATM   18  C9  UNL     1      14.391   7.466  27.889  1.00  0.00     0.034 A 
HETATM   19  C10 UNL     1      15.301   8.606  27.517  1.00  0.00     0.039 A 
HETATM   20  C11 UNL     1      15.805   7.305  28.039  1.00  0.00     0.036 A 
HETATM   21 BR1  UNL     1      16.931   6.388  26.732  1.00  0.00    -0.084 Br
BRANCH  20  22
HETATM   22  C12 UNL     1      16.332   7.250  29.417  1.00  0.00     0.011 C 
HETATM   23  C13 UNL     1      15.682   8.303  30.307  1.00  0.00     0.014 C 
HETATM   24  C14 UNL     1      16.620   9.469  30.258  1.00  0.00     0.021 C 
HETATM   25  C15 UNL     1      16.653  10.173  28.893  1.00  0.00     0.131 C 
HETATM   26  C18 UNL     1      17.946   8.914  29.934  1.00  0.00     0.007 C 
HETATM   27  C16 UNL     1      17.887   9.516  28.519  1.00  0.00    -0.009 C 
HETATM   28  C17 UNL     1      19.055  10.485  28.279  1.00  0.00     0.018 C 
HETATM   29  C21 UNL     1      17.965   8.395  27.563  1.00  0.00     0.012 C 
HETATM   30  C20 UNL     1      18.646   7.352  28.418  1.00  0.00     0.012 C 
HETATM   31  C19 UNL     1      17.769   7.419  29.632  1.00  0.00    -0.003 C 
BRANCH  25  32
HETATM   32  O6  UNL     1      16.838  11.556  29.120  1.00  0.00    -0.394 OA
ATOM     33  H6  UNL     1      16.647  12.015  28.311  1.00  0.00     0.210 HD
ENDBRANCH  25  32
ENDBRANCH  20  22
ENDBRANCH   1  18
TORSDOF 12
ENDMDL
MODEL 3
REMARK VINA RESULT: -8.169148533      1.861      2.842
REMARK  12 active torsions:
REMARK  status: ('A' for Active; 'I' for Inactive)
REMARK       I    between atoms: C2_2  and  N1_4 
REMARK    1  A    between atoms: N1_4  and  C3_6 
REMARK    2  A    between atoms: C3_6  and  C4_7 
REMARK    3  A    between atoms: C3_6  and  C7_12 
REMARK    4  A    between atoms: C4_7  and  C5_8 
REMARK    5  A    between atoms: C5_8  and  C6_10 
REMARK    6  A    between atoms: C7_12  and  O4_14 
REMARK    7  A    between atoms: O4_14  and  C8_15 
REMARK    8  A    between atoms: C8_15  and  O5_16 
REMARK    9  A    between atoms: C8_15  and  C9_18 
REMARK   10  A    between atoms: C9_18  and  C21_33 
REMARK   11  A    between atoms: C11_20  and  C12_22 
REMARK   12  A    between atoms: C15_25  and  O6_26 
ROOT
HETATM    1  C8  UNL     1      13.527   6.952  27.202  1.00  0.00     0.277 C 
ENDROOT
BRANCH   1   2
HETATM    2  O4  UNL     1      12.755   5.837  27.599  1.00  0.00    -0.287 OA
BRANCH   2   3
HETATM    3  C7  UNL     1      11.717   5.334  26.838  1.00  0.00     0.284 C 
HETATM    4  O3  UNL     1      10.667   6.017  26.783  1.00  0.00    -0.263 OA
BRANCH   3   5
HETATM    5  C3  UNL     1      11.772   4.047  26.092  1.00  0.00     0.191 C 
BRANCH   5   6
HETATM    6  N1  UNL     1      12.068   2.986  27.006  1.00  0.00    -0.347 N 
HETATM    7  C2  UNL     1      11.144   2.140  27.626  1.00  0.00     0.214 C 
HETATM    8  C1  UNL     1      11.593   1.082  28.549  1.00  0.00     0.117 C 
HETATM    9  O1  UNL     1       9.922   2.267  27.407  1.00  0.00    -0.274 OA
ATOM     10  H1  UNL     1      13.052   2.831  27.227  1.00  0.00     0.163 HD
ENDBRANCH   5   6
BRANCH   5  11
HETATM   11  C4  UNL     1      12.649   4.128  24.891  1.00  0.00     0.115 C 
BRANCH  11  12
HETATM   12  C5  UNL     1      13.731   3.117  24.888  1.00  0.00     0.142 C 
HETATM   13  O2  UNL     1      13.532   1.945  24.635  1.00  0.00    -0.297 OA
BRANCH  12  14
HETATM   14  C6  UNL     1      15.134   3.515  25.204  1.00  0.00     0.192 C 
HETATM   15 CL1  UNL     1      16.218   3.150  23.846  1.00  0.00    -0.123 Cl
ENDBRANCH  12  14
ENDBRANCH  11  12
ENDBRANCH   5  11
ENDBRANCH   3   5
ENDBRANCH   2   3
ENDBRANCH   1   2
BRANCH   1  16
HETATM   16  O5  UNL     1      12.757   7.937  26.600  1.00  0.00    -0.370 OA
ATOM     17  H5  UNL     1      12.901   8.793  26.987  1.00  0.00     0.212 HD
ENDBRANCH   1  16
BRANCH   1  18
HETATM   18  C9  UNL     1      14.444   7.479  28.268  1.00  0.00     0.034 A 
HETATM   19  C10 UNL     1      15.299   8.616  27.775  1.00  0.00     0.039 A 
HETATM   20  C11 UNL     1      15.869   7.353  28.324  1.00  0.00     0.036 A 
HETATM   21 BR1  UNL     1      16.920   6.392  26.987  1.00  0.00    -0.084 Br
BRANCH  20  22
HETATM   22  C12 UNL     1      16.492   7.379  29.662  1.00  0.00     0.011 C 
HETATM   23  C13 UNL     1      15.868   8.449  30.549  1.00  0.00     0.014 C 
HETATM   24  C14 UNL     1      16.756   9.642  30.383  1.00  0.00     0.021 C 
HETATM   25  C15 UNL     1      16.667  10.285  28.990  1.00  0.00     0.131 C 
HETATM   26  C18 UNL     1      18.076   9.119  29.989  1.00  0.00     0.007 C 
HETATM   27  C16 UNL     1      17.895   9.653  28.557  1.00  0.00    -0.009 C 
HETATM   28  C17 UNL     1      19.007  10.649  28.192  1.00  0.00     0.018 C 
HETATM   29  C21 UNL     1      17.947   8.493  27.647  1.00  0.00     0.012 C 
HETATM   30  C20 UNL     1      18.725   7.514  28.496  1.00  0.00     0.012 C 
HETATM   31  C19 UNL     1      17.934   7.606  29.765  1.00  0.00    -0.003 C 
BRANCH  25  32
HETATM   32  O6  UNL     1      16.816  11.682  29.143  1.00  0.00    -0.394 OA
ATOM     33  H6  UNL     1      16.043  12.013  29.585  1.00  0.00     0.210 HD
ENDBRANCH  25  32
ENDBRANCH  20  22
ENDBRANCH   1  18
TORSDOF 12
ENDMDL
MODEL 4
REMARK VINA RESULT: -8.075909674      1.974      3.176
REMARK  12 active torsions:
REMARK  status: ('A' for Active; 'I' for Inactive)
REMARK       I    between atoms: C2_2  and  N1_4 
REMARK    1  A    between atoms: N1_4  and  C3_6 
REMARK    2  A    between atoms: C3_6  and  C4_7 
REMARK    3  A    between atoms: C3_6  and  C7_12 
REMARK    4  A    between atoms: C4_7  and  C5_8 
REMARK    5  A    between atoms: C5_8  and  C6_10 
REMARK    6  A    between atoms: C7_12  and  O4_14 
REMARK    7  A    between atoms: O4_14  and  C8_15 
REMARK    8  A    between atoms: C8_15  and  O5_16 
REMARK    9  A    between atoms: C8_15  and  C9_18 
REMARK   10  A    between atoms: C9_18  and  C21_33 
REMARK   11  A    between atoms: C11_20  and  C12_22 
REMARK   12  A    between atoms: C15_25  and  O6_26 
ROOT
HETATM    1  C8  UNL     1      13.482   6.954  26.741  1.00  0.00     0.277 C 
ENDROOT
BRANCH   1   2
HETATM    2  O4  UNL     1      13.535   5.567  26.471  1.00  0.00    -0.287 OA
BRANCH   2   3
HETATM    3  C7  UNL     1      13.085   5.017  25.287  1.00  0.00     0.284 C 
HETATM    4  O3  UNL     1      12.742   5.813  24.381  1.00  0.00    -0.263 OA
BRANCH   3   5
HETATM    5  C3  UNL     1      12.985   3.555  25.027  1.00  0.00     0.191 C 
BRANCH   5   6
HETATM    6  N1  UNL     1      12.956   2.856  26.276  1.00  0.00    -0.347 N 
HETATM    7  C2  UNL     1      11.821   2.549  27.031  1.00  0.00     0.214 C 
HETATM    8  C1  UNL     1      11.940   1.818  28.307  1.00  0.00     0.117 C 
HETATM    9  O1  UNL     1      10.686   2.888  26.637  1.00  0.00    -0.274 OA
ATOM     10  H1  UNL     1      13.853   2.552  26.654  1.00  0.00     0.163 HD
ENDBRANCH   5   6
BRANCH   5  11
HETATM   11  C4  UNL     1      14.004   3.083  24.049  1.00  0.00     0.115 C 
BRANCH  11  12
HETATM   12  C5  UNL     1      15.393   3.404  24.449  1.00  0.00     0.142 C 
HETATM   13  O2  UNL     1      15.867   3.050  25.511  1.00  0.00    -0.297 OA
BRANCH  12  14
HETATM   14  C6  UNL     1      16.275   4.194  23.542  1.00  0.00     0.192 C 
HETATM   15 CL1  UNL     1      17.583   3.184  22.892  1.00  0.00    -0.123 Cl
ENDBRANCH  12  14
ENDBRANCH  11  12
ENDBRANCH   5  11
ENDBRANCH   3   5
ENDBRANCH   2   3
ENDBRANCH   1   2
BRANCH   1  16
HETATM   16  O5  UNL     1      12.180   7.427  26.816  1.00  0.00    -0.370 OA
ATOM     17  H5  UNL     1      12.139   8.324  27.127  1.00  0.00     0.212 HD
ENDBRANCH   1  16
BRANCH   1  18
HETATM   18  C9  UNL     1      14.344   7.392  27.890  1.00  0.00     0.034 A 
HETATM   19  C10 UNL     1      15.232   8.552  27.527  1.00  0.00     0.039 A 
HETATM   20  C11 UNL     1      15.763   7.247  28.013  1.00  0.00     0.036 A 
HETATM   21 BR1  UNL     1      16.878   6.373  26.667  1.00  0.00    -0.084 Br
BRANCH  20  22
HETATM   22  C12 UNL     1      16.313   7.170  29.380  1.00  0.00     0.011 C 
HETATM   23  C13 UNL     1      15.685   8.214  30.295  1.00  0.00     0.014 C 
HETATM   24  C14 UNL     1      16.629   9.375  30.246  1.00  0.00     0.021 C 
HETATM   25  C15 UNL     1      16.642  10.099  28.892  1.00  0.00     0.131 C 
HETATM   26  C18 UNL     1      17.946   8.818  29.891  1.00  0.00     0.007 C 
HETATM   27  C16 UNL     1      17.865   9.440  28.486  1.00  0.00    -0.009 C 
HETATM   28  C17 UNL     1      19.034  10.405  28.238  1.00  0.00     0.018 C 
HETATM   29  C21 UNL     1      17.919   8.332  27.513  1.00  0.00     0.012 C 
HETATM   30  C20 UNL     1      18.609   7.274  28.341  1.00  0.00     0.012 C 
HETATM   31  C19 UNL     1      17.755   7.328  29.572  1.00  0.00    -0.003 C 
BRANCH  25  32
HETATM   32  O6  UNL     1      16.838  11.477  29.134  1.00  0.00    -0.394 OA
ATOM     33  H6  UNL     1      17.003  11.902  28.301  1.00  0.00     0.210 HD
ENDBRANCH  25  32
ENDBRANCH  20  22
ENDBRANCH   1  18
TORSDOF 12
ENDMDL
MODEL 5
REMARK VINA RESULT: -8.065767484      2.322      3.383
REMARK  12 active torsions:
REMARK  status: ('A' for Active; 'I' for Inactive)
REMARK       I    between atoms: C2_2  and  N1_4 
REMARK    1  A    between atoms: N1_4  and  C3_6 
REMARK    2  A    between atoms: C3_6  and  C4_7 
REMARK    3  A    between atoms: C3_6  and  C7_12 
REMARK    4  A    between atoms: C4_7  and  C5_8 
REMARK    5  A    between atoms: C5_8  and  C6_10 
REMARK    6  A    between atoms: C7_12  and  O4_14 
REMARK    7  A    between atoms: O4_14  and  C8_15 
REMARK    8  A    between atoms: C8_15  and  O5_16 
REMARK    9  A    between atoms: C8_15  and  C9_18 
REMARK   10  A    between atoms: C9_18  and  C21_33 
REMARK   11  A    between atoms: C11_20  and  C12_22 
REMARK   12  A    between atoms: C15_25  and  O6_26 
ROOT
HETATM    1  C8  UNL     1      13.769   7.277  26.397  1.00  0.00     0.277 C 
ENDROOT
BRANCH   1   2
HETATM    2  O4  UNL     1      13.786   5.901  26.076  1.00  0.00    -0.287 OA
BRANCH   2   3
HETATM    3  C7  UNL     1      13.257   4.930  26.904  1.00  0.00     0.284 C 
HETATM    4  O3  UNL     1      13.942   4.593  27.899  1.00  0.00    -0.263 OA
BRANCH   3   5
HETATM    5  C3  UNL     1      11.941   4.269  26.687  1.00  0.00     0.191 C 
BRANCH   5   6
HETATM    6  N1  UNL     1      12.036   2.894  27.070  1.00  0.00    -0.347 N 
HETATM    7  C2  UNL     1      11.349   2.272  28.116  1.00  0.00     0.214 C 
HETATM    8  C1  UNL     1      11.544   0.838  28.399  1.00  0.00     0.117 C 
HETATM    9  O1  UNL     1      10.558   2.923  28.830  1.00  0.00    -0.274 OA
ATOM     10  H1  UNL     1      12.669   2.308  26.525  1.00  0.00     0.163 HD
ENDBRANCH   5   6
BRANCH   5  11
HETATM   11  C4  UNL     1      11.400   4.522  25.322  1.00  0.00     0.115 C 
BRANCH  11  12
HETATM   12  C5  UNL     1      10.431   5.641  25.274  1.00  0.00     0.142 C 
HETATM   13  O2  UNL     1      10.154   6.309  26.251  1.00  0.00    -0.297 OA
BRANCH  12  14
HETATM   14  C6  UNL     1       9.747   5.990  23.995  1.00  0.00     0.192 C 
HETATM   15 CL1  UNL     1       8.078   5.383  23.983  1.00  0.00    -0.123 Cl
ENDBRANCH  12  14
ENDBRANCH  11  12
ENDBRANCH   5  11
ENDBRANCH   3   5
ENDBRANCH   2   3
ENDBRANCH   1   2
BRANCH   1  16
HETATM   16  O5  UNL     1      12.486   7.806  26.379  1.00  0.00    -0.370 OA
ATOM     17  H5  UNL     1      12.459   8.673  25.991  1.00  0.00     0.212 HD
ENDBRANCH   1  16
BRANCH   1  18
HETATM   18  C9  UNL     1      14.544   7.632  27.633  1.00  0.00     0.034 A 
HETATM   19  C10 UNL     1      15.476   8.793  27.409  1.00  0.00     0.039 A 
HETATM   20  C11 UNL     1      15.946   7.452  27.858  1.00  0.00     0.036 A 
HETATM   21 BR1  UNL     1      17.151   6.633  26.555  1.00  0.00    -0.084 Br
BRANCH  20  22
HETATM   22  C12 UNL     1      16.386   7.287  29.257  1.00  0.00     0.011 C 
HETATM   23  C13 UNL     1      15.656   8.246  30.189  1.00  0.00     0.014 C 
HETATM   24  C14 UNL     1      16.568   9.428  30.302  1.00  0.00     0.021 C 
HETATM   25  C15 UNL     1      16.671  10.250  29.008  1.00  0.00     0.131 C 
HETATM   26  C18 UNL     1      17.924   8.927  30.018  1.00  0.00     0.007 C 
HETATM   27  C16 UNL     1      17.941   9.650  28.659  1.00  0.00    -0.009 C 
HETATM   28  C17 UNL     1      19.099  10.656  28.579  1.00  0.00     0.018 C 
HETATM   29  C21 UNL     1      18.105   8.618  27.618  1.00  0.00     0.012 C 
HETATM   30  C20 UNL     1      18.755   7.516  28.423  1.00  0.00     0.012 C 
HETATM   31  C19 UNL     1      17.802   7.462  29.578  1.00  0.00    -0.003 C 
BRANCH  25  32
HETATM   32  O6  UNL     1      16.809  11.610  29.364  1.00  0.00    -0.394 OA
ATOM     33  H6  UNL     1      17.302  12.045  28.679  1.00  0.00     0.210 HD
ENDBRANCH  25  32
ENDBRANCH  20  22
ENDBRANCH   1  18
TORSDOF 12
ENDMDL
