MODEL 1
REMARK VINA RESULT: -7.355770085      0.000      0.000
REMARK  2 active torsions:
REMARK  status: ('A' for Active; 'I' for Inactive)
REMARK    1  A    between atoms: C2_3  and  S1_4 
REMARK    2  A    between atoms: S1_4  and  C3_5 
ROOT
HETATM    1  C3  UNL     1       5.565 -13.887   1.314  1.00  0.00     0.158 A 
HETATM    2  N2  UNL     1       6.074 -13.988   2.556  1.00  0.00    -0.288 N 
ATOM      3  H2  UNL     1       6.327 -14.909   2.914  1.00  0.00     0.172 HD
HETATM    4  C4  UNL     1       6.261 -12.907   3.342  1.00  0.00     0.330 A 
HETATM    5  O1  UNL     1       6.737 -12.999   4.503  1.00  0.00    -0.246 OA
HETATM    6  N3  UNL     1       5.934 -11.670   2.896  1.00  0.00    -0.260 N 
ATOM      7  H3  UNL     1       6.073 -10.849   3.485  1.00  0.00     0.175 HD
HETATM    8  C5  UNL     1       5.418 -11.548   1.647  1.00  0.00     0.330 A 
HETATM    9  O2  UNL     1       5.129 -10.386   1.272  1.00  0.00    -0.246 OA
HETATM   10  N4  UNL     1       5.249 -12.639   0.898  1.00  0.00    -0.288 N 
ATOM     11  H4  UNL     1       4.861 -12.526  -0.038  1.00  0.00     0.172 HD
ENDROOT
BRANCH   1  12
HETATM   12  S1  UNL     1       5.321 -15.319   0.282  1.00  0.00    -0.033 SA
BRANCH  12  13
HETATM   13  C2  UNL     1       6.565 -15.487  -0.955  1.00  0.00     0.120 A 
HETATM   14  C1  UNL     1       7.737 -16.177  -0.645  1.00  0.00     0.133 A 
HETATM   15  N1  UNL     1       7.952 -16.744   0.636  1.00  0.00    -0.095 NA
HETATM   16  C7  UNL     1       8.669 -16.270  -1.665  1.00  0.00     0.215 A 
HETATM   17  C6  UNL     1       8.447 -15.715  -2.900  1.00  0.00     0.164 A 
HETATM   18  O3  UNL     1       9.742 -16.884  -1.429  1.00  0.00    -0.285 OA
HETATM   19  N6  UNL     1       7.287 -15.072  -3.097  1.00  0.00    -0.307 N 
HETATM   20  N5  UNL     1       6.354 -14.945  -2.169  1.00  0.00    -0.292 N 
ATOM     21  H6  UNL     1       7.115 -14.659  -4.013  1.00  0.00     0.186 HD
ATOM     22  H5  UNL     1       5.488 -14.445  -2.371  1.00  0.00     0.187 HD
ENDBRANCH  12  13
ENDBRANCH   1  12
TORSDOF 2
ENDMDL
MODEL 2
REMARK VINA RESULT: -7.341256118      0.021      1.895
REMARK  2 active torsions:
REMARK  status: ('A' for Active; 'I' for Inactive)
REMARK    1  A    between atoms: C2_3  and  S1_4 
REMARK    2  A    between atoms: S1_4  and  C3_5 
ROOT
HETATM    1  C3  UNL     1       5.546 -13.873   1.313  1.00  0.00     0.158 A 
HETATM    2  N2  UNL     1       5.230 -12.634   0.890  1.00  0.00    -0.288 N 
ATOM      3  H2  UNL     1       4.841 -12.515  -0.045  1.00  0.00     0.172 HD
HETATM    4  C4  UNL     1       5.412 -11.546   1.667  1.00  0.00     0.330 A 
HETATM    5  O1  UNL     1       5.116 -10.387   1.273  1.00  0.00    -0.246 OA
HETATM    6  N3  UNL     1       5.928 -11.671   2.913  1.00  0.00    -0.260 N 
ATOM      7  H3  UNL     1       6.067 -10.851   3.504  1.00  0.00     0.175 HD
HETATM    8  C5  UNL     1       6.254 -12.911   3.357  1.00  0.00     0.330 A 
HETATM    9  O2  UNL     1       6.728 -12.982   4.517  1.00  0.00    -0.246 OA
HETATM   10  N4  UNL     1       6.058 -13.964   2.562  1.00  0.00    -0.288 N 
ATOM     11  H4  UNL     1       6.309 -14.887   2.914  1.00  0.00     0.172 HD
ENDROOT
BRANCH   1  12
HETATM   12  S1  UNL     1       5.302 -15.306   0.282  1.00  0.00    -0.033 SA
BRANCH  12  13
HETATM   13  C2  UNL     1       6.551 -15.479  -0.950  1.00  0.00     0.120 A 
HETATM   14  C1  UNL     1       7.721 -16.170  -0.634  1.00  0.00     0.133 A 
HETATM   15  N1  UNL     1       7.929 -16.734   0.650  1.00  0.00    -0.095 NA
HETATM   16  C7  UNL     1       8.656 -16.267  -1.650  1.00  0.00     0.215 A 
HETATM   17  C6  UNL     1       8.439 -15.714  -2.887  1.00  0.00     0.164 A 
HETATM   18  O3  UNL     1       9.727 -16.882  -1.408  1.00  0.00    -0.285 OA
HETATM   19  N6  UNL     1       7.281 -15.070  -3.090  1.00  0.00    -0.307 N 
HETATM   20  N5  UNL     1       6.345 -14.939  -2.166  1.00  0.00    -0.292 N 
ATOM     21  H6  UNL     1       7.114 -14.658  -4.008  1.00  0.00     0.186 HD
ATOM     22  H5  UNL     1       5.481 -14.438  -2.372  1.00  0.00     0.187 HD
ENDBRANCH  12  13
ENDBRANCH   1  12
TORSDOF 2
ENDMDL
MODEL 3
REMARK VINA RESULT: -7.273199239      2.134      6.030
REMARK  2 active torsions:
REMARK  status: ('A' for Active; 'I' for Inactive)
REMARK    1  A    between atoms: C2_3  and  S1_4 
REMARK    2  A    between atoms: S1_4  and  C3_5 
ROOT
HETATM    1  C3  UNL     1       5.565 -14.939   0.754  1.00  0.00     0.158 A 
HETATM    2  N2  UNL     1       5.908 -16.193   1.104  1.00  0.00    -0.288 N 
ATOM      3  H2  UNL     1       5.631 -16.545   2.020  1.00  0.00     0.172 HD
HETATM    4  C4  UNL     1       6.609 -16.999   0.278  1.00  0.00     0.330 A 
HETATM    5  O1  UNL     1       6.930 -18.171   0.603  1.00  0.00    -0.246 OA
HETATM    6  N3  UNL     1       6.993 -16.561  -0.944  1.00  0.00    -0.260 N 
ATOM      7  H3  UNL     1       7.523 -17.166  -1.573  1.00  0.00     0.175 HD
HETATM    8  C5  UNL     1       6.658 -15.299  -1.315  1.00  0.00     0.330 A 
HETATM    9  O2  UNL     1       7.033 -14.933  -2.455  1.00  0.00    -0.246 OA
HETATM   10  N4  UNL     1       5.964 -14.532  -0.473  1.00  0.00    -0.288 N 
ATOM     11  H4  UNL     1       5.721 -13.587  -0.770  1.00  0.00     0.172 HD
ENDROOT
BRANCH   1  12
HETATM   12  S1  UNL     1       4.640 -13.881   1.849  1.00  0.00    -0.033 SA
BRANCH  12  13
HETATM   13  C2  UNL     1       5.674 -12.837   2.823  1.00  0.00     0.120 A 
HETATM   14  C1  UNL     1       5.645 -11.461   2.602  1.00  0.00     0.133 A 
HETATM   15  N1  UNL     1       4.805 -10.882   1.617  1.00  0.00    -0.095 NA
HETATM   16  C7  UNL     1       6.482 -10.704   3.403  1.00  0.00     0.215 A 
HETATM   17  C6  UNL     1       7.288 -11.279   4.353  1.00  0.00     0.164 A 
HETATM   18  O3  UNL     1       6.487  -9.456   3.238  1.00  0.00    -0.285 OA
HETATM   19  N6  UNL     1       7.243 -12.612   4.487  1.00  0.00    -0.307 N 
HETATM   20  N5  UNL     1       6.469 -13.395   3.756  1.00  0.00    -0.292 N 
ATOM     21  H6  UNL     1       7.840 -13.045   5.191  1.00  0.00     0.186 HD
ATOM     22  H5  UNL     1       6.473 -14.405   3.898  1.00  0.00     0.187 HD
ENDBRANCH  12  13
ENDBRANCH   1  12
TORSDOF 2
ENDMDL
MODEL 4
REMARK VINA RESULT: -7.270551322      2.136      6.295
REMARK  2 active torsions:
REMARK  status: ('A' for Active; 'I' for Inactive)
REMARK    1  A    between atoms: C2_3  and  S1_4 
REMARK    2  A    between atoms: S1_4  and  C3_5 
ROOT
HETATM    1  C3  UNL     1       5.555 -14.936   0.754  1.00  0.00     0.158 A 
HETATM    2  N2  UNL     1       5.950 -14.531  -0.468  1.00  0.00    -0.288 N 
ATOM      3  H2  UNL     1       5.717 -13.588  -0.776  1.00  0.00     0.172 HD
HETATM    4  C4  UNL     1       6.646 -15.337  -1.297  1.00  0.00     0.330 A 
HETATM    5  O1  UNL     1       7.017 -14.960  -2.439  1.00  0.00    -0.246 OA
HETATM    6  N3  UNL     1       6.970 -16.596  -0.918  1.00  0.00    -0.260 N 
ATOM      7  H3  UNL     1       7.496 -17.210  -1.541  1.00  0.00     0.175 HD
HETATM    8  C5  UNL     1       6.579 -17.023   0.309  1.00  0.00     0.330 A 
HETATM    9  O2  UNL     1       6.900 -18.196   0.621  1.00  0.00    -0.246 OA
HETATM   10  N4  UNL     1       5.894 -16.199   1.102  1.00  0.00    -0.288 N 
ATOM     11  H4  UNL     1       5.610 -16.538   2.021  1.00  0.00     0.172 HD
ENDROOT
BRANCH   1  12
HETATM   12  S1  UNL     1       4.636 -13.867   1.843  1.00  0.00    -0.033 SA
BRANCH  12  13
HETATM   13  C2  UNL     1       5.677 -12.832   2.819  1.00  0.00     0.120 A 
HETATM   14  C1  UNL     1       5.666 -11.456   2.593  1.00  0.00     0.133 A 
HETATM   15  N1  UNL     1       4.840 -10.871   1.600  1.00  0.00    -0.095 NA
HETATM   16  C7  UNL     1       6.507 -10.707   3.396  1.00  0.00     0.215 A 
HETATM   17  C6  UNL     1       7.301 -11.288   4.353  1.00  0.00     0.164 A 
HETATM   18  O3  UNL     1       6.529  -9.460   3.226  1.00  0.00    -0.285 OA
HETATM   19  N6  UNL     1       7.238 -12.619   4.492  1.00  0.00    -0.307 N 
HETATM   20  N5  UNL     1       6.458 -13.396   3.760  1.00  0.00    -0.292 N 
ATOM     21  H6  UNL     1       7.825 -13.057   5.202  1.00  0.00     0.186 HD
ATOM     22  H5  UNL     1       6.449 -14.405   3.906  1.00  0.00     0.187 HD
ENDBRANCH  12  13
ENDBRANCH   1  12
TORSDOF 2
ENDMDL
MODEL 5
REMARK VINA RESULT: -7.192245960      2.183      3.266
REMARK  2 active torsions:
REMARK  status: ('A' for Active; 'I' for Inactive)
REMARK    1  A    between atoms: C2_3  and  S1_4 
REMARK    2  A    between atoms: S1_4  and  C3_5 
ROOT
HETATM    1  C3  UNL     1       5.965 -13.175   3.440  1.00  0.00     0.158 A 
HETATM    2  N2  UNL     1       5.570 -12.433   2.388  1.00  0.00    -0.288 N 
ATOM      3  H2  UNL     1       5.332 -12.902   1.514  1.00  0.00     0.172 HD
HETATM    4  C4  UNL     1       5.481 -11.089   2.454  1.00  0.00     0.330 A 
HETATM    5  O1  UNL     1       5.112 -10.395   1.471  1.00  0.00    -0.246 OA
HETATM    6  N3  UNL     1       5.792 -10.436   3.599  1.00  0.00    -0.260 N 
ATOM      7  H3  UNL     1       5.726  -9.420   3.655  1.00  0.00     0.175 HD
HETATM    8  C5  UNL     1       6.193 -11.166   4.671  1.00  0.00     0.330 A 
HETATM    9  O2  UNL     1       6.471 -10.522   5.712  1.00  0.00    -0.246 OA
HETATM   10  N4  UNL     1       6.268 -12.493   4.569  1.00  0.00    -0.288 N 
ATOM     11  H4  UNL     1       6.570 -13.023   5.386  1.00  0.00     0.172 HD
ENDROOT
BRANCH   1  12
HETATM   12  S1  UNL     1       6.080 -14.950   3.346  1.00  0.00    -0.033 SA
BRANCH  12  13
HETATM   13  C2  UNL     1       6.792 -15.507   1.832  1.00  0.00     0.120 A 
HETATM   14  C1  UNL     1       6.043 -15.415   0.659  1.00  0.00     0.133 A 
HETATM   15  N1  UNL     1       4.728 -14.886   0.654  1.00  0.00    -0.095 NA
HETATM   16  C7  UNL     1       6.666 -15.870  -0.490  1.00  0.00     0.215 A 
HETATM   17  C6  UNL     1       7.940 -16.380  -0.469  1.00  0.00     0.164 A 
HETATM   18  O3  UNL     1       6.027 -15.806  -1.572  1.00  0.00    -0.285 OA
HETATM   19  N6  UNL     1       8.575 -16.425   0.711  1.00  0.00    -0.307 N 
HETATM   20  N5  UNL     1       8.042 -16.008   1.846  1.00  0.00    -0.292 N 
ATOM     21  H6  UNL     1       9.523 -16.802   0.733  1.00  0.00     0.186 HD
ATOM     22  H5  UNL     1       8.568 -16.066   2.718  1.00  0.00     0.187 HD
ENDBRANCH  12  13
ENDBRANCH   1  12
TORSDOF 2
ENDMDL
