MODEL 1
REMARK VINA RESULT: -6.502932190      0.000      0.000
REMARK  2 active torsions:
REMARK  status: ('A' for Active; 'I' for Inactive)
REMARK    1  A    between atoms: C4_6  and  C5_7 
REMARK    2  A    between atoms: C7_11  and  N4_12 
ROOT
HETATM    1  N1  UNL     1       8.335 -17.668   3.357  1.00  0.00    -0.191 NA
HETATM    2  C1  UNL     1       7.889 -17.032   2.508  1.00  0.00     0.103 C 
HETATM    3  C2  UNL     1       7.339 -16.258   1.444  1.00  0.00     0.096 A 
HETATM    4  C3  UNL     1       7.500 -16.666   0.135  1.00  0.00     0.084 A 
HETATM    5  N2  UNL     1       8.213 -17.858  -0.174  1.00  0.00    -0.100 NA
HETATM    6  C4  UNL     1       6.972 -15.925  -0.904  1.00  0.00     0.057 A 
HETATM    7  C6  UNL     1       6.278 -14.768  -0.628  1.00  0.00     0.054 A 
HETATM    8  C7  UNL     1       6.108 -14.345   0.692  1.00  0.00     0.101 A 
HETATM    9  C10 UNL     1       6.642 -15.096   1.715  1.00  0.00     0.099 A 
HETATM   10  N7  UNL     1       6.464 -14.659   3.044  1.00  0.00    -0.098 NA
ENDROOT
BRANCH   6  11
HETATM   11  C5  UNL     1       7.166 -16.391  -2.265  1.00  0.00     0.267 C 
HETATM   12  N3  UNL     1       8.289 -15.904  -2.992  1.00  0.00    -0.057 NA
HETATM   13  O1  UNL     1       6.415 -17.191  -2.846  1.00  0.00    -0.271 OA
ENDBRANCH   6  11
BRANCH   8  14
HETATM   14  N4  UNL     1       5.398 -13.159   0.989  1.00  0.00    -0.196 N 
HETATM   15  N5  UNL     1       5.958 -11.970   1.136  1.00  0.00    -0.289 N 
HETATM   16  C8  UNL     1       5.033 -11.038   1.413  1.00  0.00     0.127 A 
ATOM     17  H5  UNL     1       6.958 -11.786   1.050  1.00  0.00     0.188 HD
HETATM   18  C9  UNL     1       3.830 -11.696   1.438  1.00  0.00     0.127 A 
HETATM   19  N6  UNL     1       4.116 -12.992   1.172  1.00  0.00    -0.289 N 
ATOM     20  H6  UNL     1       3.423 -13.738   1.121  1.00  0.00     0.188 HD
ENDBRANCH   8  14
TORSDOF 2
ENDMDL
MODEL 2
REMARK VINA RESULT: -6.433027244      1.036      1.323
REMARK  2 active torsions:
REMARK  status: ('A' for Active; 'I' for Inactive)
REMARK    1  A    between atoms: C4_6  and  C5_7 
REMARK    2  A    between atoms: C7_11  and  N4_12 
ROOT
HETATM    1  N1  UNL     1       6.169 -18.678   3.036  1.00  0.00    -0.191 NA
HETATM    2  C1  UNL     1       6.157 -17.845   2.243  1.00  0.00     0.103 C 
HETATM    3  C2  UNL     1       6.141 -16.824   1.247  1.00  0.00     0.096 A 
HETATM    4  C3  UNL     1       6.456 -17.129  -0.062  1.00  0.00     0.084 A 
HETATM    5  N2  UNL     1       6.800 -18.458  -0.438  1.00  0.00    -0.100 NA
HETATM    6  C4  UNL     1       6.445 -16.151  -1.036  1.00  0.00     0.057 A 
HETATM    7  C6  UNL     1       6.114 -14.858  -0.695  1.00  0.00     0.054 A 
HETATM    8  C7  UNL     1       5.793 -14.537   0.626  1.00  0.00     0.101 A 
HETATM    9  C10 UNL     1       5.810 -15.526   1.584  1.00  0.00     0.099 A 
HETATM   10  N7  UNL     1       5.485 -15.190   2.914  1.00  0.00    -0.098 NA
ENDROOT
BRANCH   6  11
HETATM   11  C5  UNL     1       6.783 -16.516  -2.399  1.00  0.00     0.267 C 
HETATM   12  N3  UNL     1       8.131 -16.353  -2.827  1.00  0.00    -0.057 NA
HETATM   13  O1  UNL     1       5.974 -16.964  -3.228  1.00  0.00    -0.271 OA
ENDBRANCH   6  11
BRANCH   8  14
HETATM   14  N4  UNL     1       5.452 -13.214   0.990  1.00  0.00    -0.196 N 
HETATM   15  N5  UNL     1       4.213 -12.759   1.077  1.00  0.00    -0.289 N 
HETATM   16  C8  UNL     1       4.204 -11.468   1.443  1.00  0.00     0.127 A 
ATOM     17  H5  UNL     1       3.378 -13.314   0.892  1.00  0.00     0.188 HD
HETATM   18  C9  UNL     1       5.519 -11.107   1.589  1.00  0.00     0.127 A 
HETATM   19  N6  UNL     1       6.237 -12.217   1.298  1.00  0.00    -0.289 N 
ATOM     20  H6  UNL     1       7.255 -12.268   1.317  1.00  0.00     0.188 HD
ENDBRANCH   8  14
TORSDOF 2
ENDMDL
MODEL 3
REMARK VINA RESULT: -6.338183221      2.549      4.082
REMARK  2 active torsions:
REMARK  status: ('A' for Active; 'I' for Inactive)
REMARK    1  A    between atoms: C4_6  and  C5_7 
REMARK    2  A    between atoms: C7_11  and  N4_12 
ROOT
HETATM    1  N1  UNL     1       6.106 -15.254  -1.837  1.00  0.00    -0.191 NA
HETATM    2  C1  UNL     1       6.176 -15.317  -0.690  1.00  0.00     0.103 C 
HETATM    3  C2  UNL     1       6.269 -15.412   0.730  1.00  0.00     0.096 A 
HETATM    4  C3  UNL     1       6.360 -16.649   1.337  1.00  0.00     0.084 A 
HETATM    5  N2  UNL     1       6.363 -17.843   0.562  1.00  0.00    -0.100 NA
HETATM    6  C4  UNL     1       6.450 -16.755   2.710  1.00  0.00     0.057 A 
HETATM    7  C6  UNL     1       6.449 -15.613   3.480  1.00  0.00     0.054 A 
HETATM    8  C7  UNL     1       6.358 -14.356   2.879  1.00  0.00     0.101 A 
HETATM    9  C10 UNL     1       6.268 -14.270   1.507  1.00  0.00     0.099 A 
HETATM   10  N7  UNL     1       6.176 -12.996   0.910  1.00  0.00    -0.098 NA
ENDROOT
BRANCH   6  11
HETATM   11  C5  UNL     1       6.543 -18.075   3.306  1.00  0.00     0.267 C 
HETATM   12  N3  UNL     1       7.836 -18.644   3.487  1.00  0.00    -0.057 NA
HETATM   13  O1  UNL     1       5.568 -18.752   3.671  1.00  0.00    -0.271 OA
ENDBRANCH   6  11
BRANCH   8  14
HETATM   14  N4  UNL     1       6.356 -13.176   3.657  1.00  0.00    -0.196 N 
HETATM   15  N5  UNL     1       7.333 -12.819   4.474  1.00  0.00    -0.289 N 
HETATM   16  C8  UNL     1       7.049 -11.653   5.076  1.00  0.00     0.127 A 
ATOM     17  H5  UNL     1       8.186 -13.356   4.626  1.00  0.00     0.188 HD
HETATM   18  C9  UNL     1       5.821 -11.271   4.598  1.00  0.00     0.127 A 
HETATM   19  N6  UNL     1       5.446 -12.243   3.734  1.00  0.00    -0.289 N 
ATOM     20  H6  UNL     1       4.570 -12.246   3.212  1.00  0.00     0.188 HD
ENDBRANCH   8  14
TORSDOF 2
ENDMDL
MODEL 4
REMARK VINA RESULT: -6.143686900      1.869      2.231
REMARK  2 active torsions:
REMARK  status: ('A' for Active; 'I' for Inactive)
REMARK    1  A    between atoms: C4_6  and  C5_7 
REMARK    2  A    between atoms: C7_11  and  N4_12 
ROOT
HETATM    1  N1  UNL     1       5.930 -19.397   3.376  1.00  0.00    -0.191 NA
HETATM    2  C1  UNL     1       6.059 -18.373   2.868  1.00  0.00     0.103 C 
HETATM    3  C2  UNL     1       6.216 -17.112   2.221  1.00  0.00     0.096 A 
HETATM    4  C3  UNL     1       6.448 -17.054   0.861  1.00  0.00     0.084 A 
HETATM    5  N2  UNL     1       6.535 -18.245   0.086  1.00  0.00    -0.100 NA
HETATM    6  C4  UNL     1       6.602 -15.840   0.223  1.00  0.00     0.057 A 
HETATM    7  C6  UNL     1       6.521 -14.675   0.954  1.00  0.00     0.054 A 
HETATM    8  C7  UNL     1       6.286 -14.719   2.329  1.00  0.00     0.101 A 
HETATM    9  C10 UNL     1       6.136 -15.940   2.948  1.00  0.00     0.099 A 
HETATM   10  N7  UNL     1       5.899 -15.973   4.338  1.00  0.00    -0.098 NA
ENDROOT
BRANCH   6  11
HETATM   11  C5  UNL     1       6.845 -15.827  -1.208  1.00  0.00     0.267 C 
HETATM   12  N3  UNL     1       8.176 -16.035  -1.668  1.00  0.00    -0.057 NA
HETATM   13  O1  UNL     1       5.968 -15.645  -2.068  1.00  0.00    -0.271 OA
ENDBRANCH   6  11
BRANCH   8  14
HETATM   14  N4  UNL     1       6.201 -13.531   3.091  1.00  0.00    -0.196 N 
HETATM   15  N5  UNL     1       5.320 -12.568   2.876  1.00  0.00    -0.289 N 
HETATM   16  C8  UNL     1       5.482 -11.568   3.756  1.00  0.00     0.127 A 
ATOM     17  H5  UNL     1       4.613 -12.583   2.141  1.00  0.00     0.188 HD
HETATM   18  C9  UNL     1       6.528 -11.941   4.562  1.00  0.00     0.127 A 
HETATM   19  N6  UNL     1       6.928 -13.151   4.106  1.00  0.00    -0.289 N 
ATOM     20  H6  UNL     1       7.694 -13.694   4.503  1.00  0.00     0.188 HD
ENDBRANCH   8  14
TORSDOF 2
ENDMDL
MODEL 5
REMARK VINA RESULT: -6.118552409      3.629      6.593
REMARK  2 active torsions:
REMARK  status: ('A' for Active; 'I' for Inactive)
REMARK    1  A    between atoms: C4_6  and  C5_7 
REMARK    2  A    between atoms: C7_11  and  N4_12 
ROOT
HETATM    1  N1  UNL     1       3.101 -11.323   0.886  1.00  0.00    -0.191 NA
HETATM    2  C1  UNL     1       3.970 -11.742   1.512  1.00  0.00     0.103 C 
HETATM    3  C2  UNL     1       5.048 -12.247   2.298  1.00  0.00     0.096 A 
HETATM    4  C3  UNL     1       5.823 -11.383   3.046  1.00  0.00     0.084 A 
HETATM    5  N2  UNL     1       5.562  -9.984   3.047  1.00  0.00    -0.100 NA
HETATM    6  C4  UNL     1       6.869 -11.858   3.811  1.00  0.00     0.057 A 
HETATM    7  C6  UNL     1       7.140 -13.209   3.826  1.00  0.00     0.054 A 
HETATM    8  C7  UNL     1       6.363 -14.093   3.074  1.00  0.00     0.101 A 
HETATM    9  C10 UNL     1       5.324 -13.600   2.317  1.00  0.00     0.099 A 
HETATM   10  N7  UNL     1       4.546 -14.502   1.561  1.00  0.00    -0.098 NA
ENDROOT
BRANCH   6  11
HETATM   11  C5  UNL     1       7.658 -10.915   4.582  1.00  0.00     0.267 C 
HETATM   12  N3  UNL     1       7.374 -10.774   5.970  1.00  0.00    -0.057 NA
HETATM   13  O1  UNL     1       8.570 -10.214   4.114  1.00  0.00    -0.271 OA
ENDBRANCH   6  11
BRANCH   8  14
HETATM   14  N4  UNL     1       6.630 -15.481   3.080  1.00  0.00    -0.196 N 
HETATM   15  N5  UNL     1       5.811 -16.397   3.571  1.00  0.00    -0.289 N 
HETATM   16  C8  UNL     1       6.334 -17.626   3.436  1.00  0.00     0.127 A 
ATOM     17  H5  UNL     1       4.905 -16.196   3.993  1.00  0.00     0.188 HD
HETATM   18  C9  UNL     1       7.550 -17.453   2.825  1.00  0.00     0.127 A 
HETATM   19  N6  UNL     1       7.677 -16.120   2.632  1.00  0.00    -0.289 N 
ATOM     20  H6  UNL     1       8.482 -15.673   2.195  1.00  0.00     0.188 HD
ENDBRANCH   8  14
TORSDOF 2
ENDMDL
