MODEL 1
REMARK VINA RESULT: -6.940437113      0.000      0.000
REMARK  3 active torsions:
REMARK  status: ('A' for Active; 'I' for Inactive)
REMARK    1  A    between atoms: C4_7  and  N3_8 
REMARK    2  A    between atoms: C9_16  and  C10_17 
REMARK       I    between atoms: C10_17  and  N5_19 
REMARK    3  A    between atoms: N5_19  and  N6_21 
ROOT
HETATM    1  N1  UNL     1       4.736 -10.868   1.567  1.00  0.00    -0.191 NA
HETATM    2  C1  UNL     1       5.185 -11.847   1.958  1.00  0.00     0.104 C 
HETATM    3  C2  UNL     1       5.759 -13.041   2.482  1.00  0.00     0.113 A 
HETATM    4  C3  UNL     1       6.217 -13.148   3.778  1.00  0.00     0.181 A 
HETATM    5  N2  UNL     1       6.193 -12.148   4.817  1.00  0.00    -0.073 NA
HETATM    6  O1  UNL     1       6.680 -14.328   3.916  1.00  0.00    -0.277 OA
HETATM    7  C4  UNL     1       6.564 -15.033   2.782  1.00  0.00     0.165 A 
HETATM    8  C9  UNL     1       5.972 -14.237   1.830  1.00  0.00     0.109 A 
ENDROOT
BRANCH   8   9
HETATM    9  C10 UNL     1       5.640 -14.615   0.472  1.00  0.00     0.275 C 
HETATM   10  O2  UNL     1       4.416 -14.982   0.269  1.00  0.00    -0.266 OA
HETATM   11  N5  UNL     1       6.480 -14.636  -0.648  1.00  0.00    -0.272 N 
ATOM     12  H5  UNL     1       7.455 -14.350  -0.554  1.00  0.00     0.189 HD
BRANCH  11  13
HETATM   13  N6  UNL     1       5.984 -15.053  -1.920  1.00  0.00    -0.342 N 
ATOM     14  H62 UNL     1       5.277 -14.480  -2.382  1.00  0.00     0.176 HD
ATOM     15  H61 UNL     1       6.330 -15.907  -2.358  1.00  0.00     0.176 HD
ENDBRANCH  11  13
ENDBRANCH   8   9
BRANCH   7  16
HETATM   16  N3  UNL     1       7.025 -16.365   2.748  1.00  0.00    -0.357 N 
HETATM   17  C5  UNL     1       8.214 -16.877   2.158  1.00  0.00     0.152 C 
HETATM   18  C6  UNL     1       8.984 -17.779   3.123  1.00  0.00     0.252 C 
HETATM   19  N4  UNL     1       8.102 -18.788   3.676  1.00  0.00    -0.072 N 
HETATM   20  C7  UNL     1       6.745 -18.711   3.157  1.00  0.00     0.252 C 
ATOM     21  H42 UNL     1       8.489 -19.722   3.542  1.00  0.00     0.277 HD
ATOM     22  H41 UNL     1       8.103 -18.750   4.696  1.00  0.00     0.277 HD
HETATM   23  C8  UNL     1       6.181 -17.351   3.477  1.00  0.00     0.152 C 
ENDBRANCH   7  16
TORSDOF 3
ENDMDL
MODEL 2
REMARK VINA RESULT: -6.911812387      0.577      1.279
REMARK  3 active torsions:
REMARK  status: ('A' for Active; 'I' for Inactive)
REMARK    1  A    between atoms: C4_7  and  N3_8 
REMARK    2  A    between atoms: C9_16  and  C10_17 
REMARK       I    between atoms: C10_17  and  N5_19 
REMARK    3  A    between atoms: N5_19  and  N6_21 
ROOT
HETATM    1  N1  UNL     1       5.049 -10.838   1.426  1.00  0.00    -0.191 NA
HETATM    2  C1  UNL     1       5.397 -11.832   1.875  1.00  0.00     0.104 C 
HETATM    3  C2  UNL     1       5.848 -13.046   2.470  1.00  0.00     0.113 A 
HETATM    4  C3  UNL     1       6.260 -13.130   3.784  1.00  0.00     0.181 A 
HETATM    5  N2  UNL     1       6.301 -12.083   4.774  1.00  0.00    -0.073 NA
HETATM    6  O1  UNL     1       6.612 -14.339   3.989  1.00  0.00    -0.277 OA
HETATM    7  C4  UNL     1       6.462 -15.085   2.886  1.00  0.00     0.165 A 
HETATM    8  C9  UNL     1       5.969 -14.286   1.881  1.00  0.00     0.109 A 
ENDROOT
BRANCH   8   9
HETATM    9  C10 UNL     1       5.638 -14.699   0.533  1.00  0.00     0.275 C 
HETATM   10  O2  UNL     1       4.475 -15.244   0.375  1.00  0.00    -0.266 OA
HETATM   11  N5  UNL     1       6.423 -14.584  -0.621  1.00  0.00    -0.272 N 
ATOM     12  H5  UNL     1       7.348 -14.157  -0.563  1.00  0.00     0.189 HD
BRANCH  11  13
HETATM   13  N6  UNL     1       5.941 -15.060  -1.877  1.00  0.00    -0.342 N 
ATOM     14  H62 UNL     1       5.250 -15.811  -1.885  1.00  0.00     0.176 HD
ATOM     15  H61 UNL     1       6.283 -14.658  -2.751  1.00  0.00     0.176 HD
ENDBRANCH  11  13
ENDBRANCH   8   9
BRANCH   7  16
HETATM   16  N3  UNL     1       6.801 -16.452   2.928  1.00  0.00    -0.357 N 
HETATM   17  C5  UNL     1       6.021 -17.545   3.399  1.00  0.00     0.152 C 
HETATM   18  C6  UNL     1       5.991 -18.697   2.394  1.00  0.00     0.252 C 
HETATM   19  N4  UNL     1       7.341 -19.047   1.995  1.00  0.00    -0.072 N 
HETATM   20  C7  UNL     1       8.361 -18.254   2.664  1.00  0.00     0.252 C 
ATOM     21  H42 UNL     1       7.512 -20.043   2.126  1.00  0.00     0.277 HD
ATOM     22  H41 UNL     1       7.445 -18.991   0.981  1.00  0.00     0.277 HD
HETATM   23  C8  UNL     1       8.128 -16.799   2.349  1.00  0.00     0.152 C 
ENDBRANCH   7  16
TORSDOF 3
ENDMDL
MODEL 3
REMARK VINA RESULT: -6.132506823      1.716      3.782
REMARK  3 active torsions:
REMARK  status: ('A' for Active; 'I' for Inactive)
REMARK    1  A    between atoms: C4_7  and  N3_8 
REMARK    2  A    between atoms: C9_16  and  C10_17 
REMARK       I    between atoms: C10_17  and  N5_19 
REMARK    3  A    between atoms: N5_19  and  N6_21 
ROOT
HETATM    1  N1  UNL     1       6.422 -12.045   5.040  1.00  0.00    -0.191 NA
HETATM    2  C1  UNL     1       6.301 -12.511   4.001  1.00  0.00     0.104 C 
HETATM    3  C2  UNL     1       6.124 -13.054   2.696  1.00  0.00     0.113 A 
HETATM    4  C3  UNL     1       5.627 -12.321   1.639  1.00  0.00     0.181 A 
HETATM    5  N2  UNL     1       5.226 -10.937   1.625  1.00  0.00    -0.073 NA
HETATM    6  O1  UNL     1       5.580 -13.101   0.631  1.00  0.00    -0.277 OA
HETATM    7  C4  UNL     1       6.020 -14.329   0.943  1.00  0.00     0.165 A 
HETATM    8  C9  UNL     1       6.382 -14.339   2.270  1.00  0.00     0.109 A 
ENDROOT
BRANCH   8   9
HETATM    9  C10 UNL     1       6.932 -15.459   3.006  1.00  0.00     0.275 C 
HETATM   10  O2  UNL     1       6.279 -15.817   4.064  1.00  0.00    -0.266 OA
HETATM   11  N5  UNL     1       8.085 -16.199   2.717  1.00  0.00    -0.272 N 
ATOM     12  H5  UNL     1       8.640 -15.970   1.892  1.00  0.00     0.189 HD
BRANCH  11  13
HETATM   13  N6  UNL     1       8.491 -17.272   3.567  1.00  0.00    -0.342 N 
ATOM     14  H62 UNL     1       8.863 -18.121   3.141  1.00  0.00     0.176 HD
ATOM     15  H61 UNL     1       8.410 -17.190   4.581  1.00  0.00     0.176 HD
ENDBRANCH  11  13
ENDBRANCH   8   9
BRANCH   7  16
HETATM   16  N3  UNL     1       6.042 -15.326  -0.052  1.00  0.00    -0.357 N 
HETATM   17  C5  UNL     1       6.560 -15.248  -1.375  1.00  0.00     0.152 C 
HETATM   18  C6  UNL     1       7.472 -16.432  -1.698  1.00  0.00     0.252 C 
HETATM   19  N4  UNL     1       6.802 -17.679  -1.386  1.00  0.00    -0.072 N 
HETATM   20  C7  UNL     1       5.447 -17.494  -0.888  1.00  0.00     0.252 C 
ATOM     21  H42 UNL     1       6.810 -18.307  -2.190  1.00  0.00     0.277 HD
ATOM     22  H41 UNL     1       7.355 -18.234  -0.733  1.00  0.00     0.277 HD
HETATM   23  C8  UNL     1       5.501 -16.651   0.360  1.00  0.00     0.152 C 
ENDBRANCH   7  16
TORSDOF 3
ENDMDL
MODEL 4
REMARK VINA RESULT: -5.992798256      2.106      5.120
REMARK  3 active torsions:
REMARK  status: ('A' for Active; 'I' for Inactive)
REMARK    1  A    between atoms: C4_7  and  N3_8 
REMARK    2  A    between atoms: C9_16  and  C10_17 
REMARK       I    between atoms: C10_17  and  N5_19 
REMARK    3  A    between atoms: N5_19  and  N6_21 
ROOT
HETATM    1  N1  UNL     1       7.356 -19.740   0.139  1.00  0.00    -0.191 NA
HETATM    2  C1  UNL     1       6.997 -18.769   0.629  1.00  0.00     0.104 C 
HETATM    3  C2  UNL     1       6.529 -17.586   1.271  1.00  0.00     0.113 A 
HETATM    4  C3  UNL     1       6.009 -17.581   2.548  1.00  0.00     0.181 A 
HETATM    5  N2  UNL     1       5.859 -18.693   3.453  1.00  0.00    -0.073 NA
HETATM    6  O1  UNL     1       5.673 -16.379   2.811  1.00  0.00    -0.277 OA
HETATM    7  C4  UNL     1       5.935 -15.563   1.781  1.00  0.00     0.165 A 
HETATM    8  C9  UNL     1       6.490 -16.305   0.765  1.00  0.00     0.109 A 
ENDROOT
BRANCH   8   9
HETATM    9  C10 UNL     1       6.944 -15.809  -0.518  1.00  0.00     0.275 C 
HETATM   10  O2  UNL     1       8.172 -16.075  -0.828  1.00  0.00    -0.266 OA
HETATM   11  N5  UNL     1       6.218 -15.075  -1.465  1.00  0.00    -0.272 N 
ATOM     12  H5  UNL     1       5.242 -14.839  -1.283  1.00  0.00     0.189 HD
BRANCH  11  13
HETATM   13  N6  UNL     1       6.833 -14.653  -2.682  1.00  0.00    -0.342 N 
ATOM     14  H62 UNL     1       7.704 -14.125  -2.634  1.00  0.00     0.176 HD
ATOM     15  H61 UNL     1       6.408 -14.876  -3.583  1.00  0.00     0.176 HD
ENDBRANCH  11  13
ENDBRANCH   8   9
BRANCH   7  16
HETATM   16  N3  UNL     1       5.629 -14.192   1.893  1.00  0.00    -0.357 N 
HETATM   17  C5  UNL     1       6.411 -13.153   2.472  1.00  0.00     0.152 C 
HETATM   18  C6  UNL     1       6.522 -11.942   1.546  1.00  0.00     0.252 C 
HETATM   19  N4  UNL     1       5.204 -11.529   1.103  1.00  0.00    -0.072 N 
HETATM   20  C7  UNL     1       4.131 -12.333   1.669  1.00  0.00     0.252 C 
ATOM     21  H42 UNL     1       5.052 -10.538   1.290  1.00  0.00     0.277 HD
ATOM     22  H41 UNL     1       5.151 -11.519   0.084  1.00  0.00     0.277 HD
HETATM   23  C8  UNL     1       4.343 -13.771   1.272  1.00  0.00     0.152 C 
ENDBRANCH   7  16
TORSDOF 3
ENDMDL
MODEL 5
REMARK VINA RESULT: -5.921045954      2.343      4.174
REMARK  3 active torsions:
REMARK  status: ('A' for Active; 'I' for Inactive)
REMARK    1  A    between atoms: C4_7  and  N3_8 
REMARK    2  A    between atoms: C9_16  and  C10_17 
REMARK       I    between atoms: C10_17  and  N5_19 
REMARK    3  A    between atoms: N5_19  and  N6_21 
ROOT
HETATM    1  N1  UNL     1       6.423 -12.684   4.340  1.00  0.00    -0.191 NA
HETATM    2  C1  UNL     1       6.166 -13.333   3.432  1.00  0.00     0.104 C 
HETATM    3  C2  UNL     1       5.806 -14.117   2.297  1.00  0.00     0.113 A 
HETATM    4  C3  UNL     1       4.796 -13.762   1.429  1.00  0.00     0.181 A 
HETATM    5  N2  UNL     1       3.958 -12.589   1.469  1.00  0.00    -0.073 NA
HETATM    6  O1  UNL     1       4.723 -14.677   0.544  1.00  0.00    -0.277 OA
HETATM    7  C4  UNL     1       5.630 -15.640   0.762  1.00  0.00     0.165 A 
HETATM    8  C9  UNL     1       6.352 -15.314   1.886  1.00  0.00     0.109 A 
ENDROOT
BRANCH   8   9
HETATM    9  C10 UNL     1       7.446 -16.070   2.459  1.00  0.00     0.275 C 
HETATM   10  O2  UNL     1       7.262 -16.512   3.661  1.00  0.00    -0.266 OA
HETATM   11  N5  UNL     1       8.681 -16.379   1.875  1.00  0.00    -0.272 N 
ATOM     12  H5  UNL     1       8.884 -16.064   0.925  1.00  0.00     0.189 HD
BRANCH  11  13
HETATM   13  N6  UNL     1       9.658 -17.130   2.595  1.00  0.00    -0.342 N 
ATOM     14  H62 UNL     1      10.468 -16.641   2.977  1.00  0.00     0.176 HD
ATOM     15  H61 UNL     1       9.547 -18.136   2.725  1.00  0.00     0.176 HD
ENDBRANCH  11  13
ENDBRANCH   8   9
BRANCH   7  16
HETATM   16  N3  UNL     1       5.696 -16.736  -0.121  1.00  0.00    -0.357 N 
HETATM   17  C5  UNL     1       5.320 -18.088   0.115  1.00  0.00     0.152 C 
HETATM   18  C6  UNL     1       4.428 -18.633  -1.001  1.00  0.00     0.252 C 
HETATM   19  N4  UNL     1       5.042 -18.393  -2.293  1.00  0.00    -0.072 N 
HETATM   20  C7  UNL     1       6.340 -17.742  -2.200  1.00  0.00     0.252 C 
ATOM     21  H42 UNL     1       5.108 -19.258  -2.830  1.00  0.00     0.277 HD
ATOM     22  H41 UNL     1       4.414 -17.866  -2.900  1.00  0.00     0.277 HD
HETATM   23  C8  UNL     1       6.169 -16.421  -1.497  1.00  0.00     0.152 C 
ENDBRANCH   7  16
TORSDOF 3
ENDMDL
