MODEL 1
REMARK VINA RESULT: -8.379029835      0.000      0.000
REMARK  7 active torsions:
REMARK  status: ('A' for Active; 'I' for Inactive)
REMARK    1  A    between atoms: N1_1  and  C1_4 
REMARK    2  A    between atoms: C2_10  and  C3_11 
REMARK    3  A    between atoms: C5_13  and  C6_14 
REMARK    4  A    between atoms: C6_14  and  C7_15 
REMARK    5  A    between atoms: C7_15  and  C8_16 
REMARK    6  A    between atoms: C10_21  and  C11_22 
REMARK    7  A    between atoms: C13_29  and  C14_30 
ROOT
HETATM    1  C3  UNL     1      -4.162 -10.886  11.566  1.00  0.00     0.108 A 
HETATM    2  C4  UNL     1      -4.910  -9.728  11.594  1.00  0.00     0.049 A 
HETATM    3  C5  UNL     1      -5.355  -9.513  10.315  1.00  0.00    -0.022 A 
HETATM    4  C13 UNL     1      -4.864 -10.546   9.545  1.00  0.00     0.064 A 
HETATM    5  O4  UNL     1      -4.182 -11.302  10.344  1.00  0.00    -0.312 OA
ENDROOT
BRANCH   3   6
HETATM    6  C6  UNL     1      -6.196  -8.420   9.779  1.00  0.00     0.072 C 
BRANCH   6   7
HETATM    7  C7  UNL     1      -7.625  -8.665  10.074  1.00  0.00     0.026 C 
BRANCH   7   8
HETATM    8  C8  UNL     1      -8.323  -9.494   9.310  1.00  0.00     0.105 A 
HETATM    9  N4  UNL     1      -8.800 -10.714   9.664  1.00  0.00    -0.308 N 
HETATM   10  C9  UNL     1      -9.456 -11.246   8.616  1.00  0.00     0.278 A 
ATOM     11  H4  UNL     1      -8.681 -11.156  10.575  1.00  0.00     0.170 HD
HETATM   12  O2  UNL     1     -10.043 -12.374   8.551  1.00  0.00    -0.265 OA
HETATM   13  C10 UNL     1      -9.397 -10.349   7.571  1.00  0.00     0.154 A 
HETATM   14  N6  UNL     1      -8.701  -9.301   8.037  1.00  0.00    -0.335 N 
ATOM     15  H6  UNL     1      -8.486  -8.466   7.493  1.00  0.00     0.168 HD
BRANCH  13  16
HETATM   16  C11 UNL     1      -9.931 -10.514   6.358  1.00  0.00     0.174 C 
HETATM   17  N5  UNL     1      -9.953 -11.555   5.392  1.00  0.00    -0.347 N 
HETATM   18  C12 UNL     1     -11.127 -10.957   4.822  1.00  0.00     0.302 C 
ATOM     19  H5  UNL     1      -9.382 -12.376   5.191  1.00  0.00     0.163 HD
HETATM   20  O3  UNL     1     -10.702  -9.762   5.488  1.00  0.00    -0.314 OA
ENDBRANCH  13  16
ENDBRANCH   7   8
ENDBRANCH   6   7
ENDBRANCH   3   6
BRANCH   4  21
HETATM   21  C14 UNL     1      -5.063 -10.775   8.084  1.00  0.00     0.044 A 
HETATM   22  C15 UNL     1      -4.049 -10.065   7.168  1.00  0.00     0.012 A 
HETATM   23  C16 UNL     1      -4.027 -11.549   7.356  1.00  0.00     0.012 A 
ENDBRANCH   4  21
BRANCH   1  24
HETATM   24  C2  UNL     1      -3.505 -11.480  12.699  1.00  0.00     0.135 A 
HETATM   25  C1  UNL     1      -2.997 -12.759  12.784  1.00  0.00     0.153 A 
HETATM   26  N2  UNL     1      -2.473 -12.896  14.014  1.00  0.00    -0.224 N 
HETATM   27  O1  UNL     1      -2.641 -11.766  14.670  1.00  0.00    -0.155 OA
ATOM     28  H2  UNL     1      -2.021 -13.735  14.379  1.00  0.00     0.198 HD
HETATM   29  N3  UNL     1      -3.252 -10.917  13.902  1.00  0.00    -0.235 N 
ATOM     30  H3  UNL     1      -3.505  -9.965  14.166  1.00  0.00     0.197 HD
BRANCH  25  31
HETATM   31  N1  UNL     1      -3.002 -13.669  11.893  1.00  0.00    -0.382 N 
ATOM     32  H12 UNL     1      -3.326 -14.633  11.977  1.00  0.00     0.157 HD
ATOM     33  H11 UNL     1      -2.667 -13.547  10.936  1.00  0.00     0.157 HD
ENDBRANCH  25  31
ENDBRANCH   1  24
TORSDOF 7
ENDMDL
MODEL 2
REMARK VINA RESULT: -7.976900478      1.979      3.616
REMARK  7 active torsions:
REMARK  status: ('A' for Active; 'I' for Inactive)
REMARK    1  A    between atoms: N1_1  and  C1_4 
REMARK    2  A    between atoms: C2_10  and  C3_11 
REMARK    3  A    between atoms: C5_13  and  C6_14 
REMARK    4  A    between atoms: C6_14  and  C7_15 
REMARK    5  A    between atoms: C7_15  and  C8_16 
REMARK    6  A    between atoms: C10_21  and  C11_22 
REMARK    7  A    between atoms: C13_29  and  C14_30 
ROOT
HETATM    1  C3  UNL     1      -4.032 -11.428   8.804  1.00  0.00     0.108 A 
HETATM    2  C4  UNL     1      -4.998 -10.492   8.498  1.00  0.00     0.049 A 
HETATM    3  C5  UNL     1      -5.187  -9.735   9.625  1.00  0.00    -0.022 A 
HETATM    4  C13 UNL     1      -4.331 -10.233  10.585  1.00  0.00     0.064 A 
HETATM    5  O4  UNL     1      -3.696 -11.214  10.031  1.00  0.00    -0.312 OA
ENDROOT
BRANCH   3   6
HETATM    6  C6  UNL     1      -6.102  -8.596   9.854  1.00  0.00     0.072 C 
BRANCH   6   7
HETATM    7  C7  UNL     1      -7.425  -9.072  10.318  1.00  0.00     0.026 C 
BRANCH   7   8
HETATM    8  C8  UNL     1      -8.186  -9.795   9.510  1.00  0.00     0.105 A 
HETATM    9  N4  UNL     1      -8.798 -10.969   9.808  1.00  0.00    -0.308 N 
HETATM   10  C9  UNL     1      -9.480 -11.392   8.727  1.00  0.00     0.278 A 
ATOM     11  H4  UNL     1      -8.750 -11.452  10.705  1.00  0.00     0.170 HD
HETATM   12  O2  UNL     1     -10.180 -12.448   8.608  1.00  0.00    -0.265 OA
HETATM   13  C10 UNL     1      -9.300 -10.471   7.718  1.00  0.00     0.154 A 
HETATM   14  N6  UNL     1      -8.509  -9.519   8.237  1.00  0.00    -0.335 N 
ATOM     15  H6  UNL     1      -8.194  -8.694   7.729  1.00  0.00     0.168 HD
BRANCH  13  16
HETATM   16  C11 UNL     1      -9.817 -10.537   6.488  1.00  0.00     0.174 C 
HETATM   17  N5  UNL     1      -9.904 -11.529   5.476  1.00  0.00    -0.347 N 
HETATM   18  C12 UNL     1     -11.010 -10.809   4.910  1.00  0.00     0.302 C 
ATOM     19  H5  UNL     1      -9.399 -12.385   5.248  1.00  0.00     0.163 HD
HETATM   20  O3  UNL     1     -10.501  -9.685   5.638  1.00  0.00    -0.314 OA
ENDBRANCH  13  16
ENDBRANCH   7   8
ENDBRANCH   6   7
ENDBRANCH   3   6
BRANCH   4  21
HETATM   21  C14 UNL     1      -4.152  -9.758  11.988  1.00  0.00     0.044 A 
HETATM   22  C15 UNL     1      -4.114 -10.868  13.054  1.00  0.00     0.012 A 
HETATM   23  C16 UNL     1      -2.886 -10.101  12.681  1.00  0.00     0.012 A 
ENDBRANCH   4  21
BRANCH   1  24
HETATM   24  C2  UNL     1      -3.529 -12.429   7.902  1.00  0.00     0.135 A 
HETATM   25  C1  UNL     1      -3.129 -13.709   8.227  1.00  0.00     0.153 A 
HETATM   26  N2  UNL     1      -2.731 -14.300   7.088  1.00  0.00    -0.224 N 
HETATM   27  O1  UNL     1      -2.870 -13.442   6.098  1.00  0.00    -0.155 OA
ATOM     28  H2  UNL     1      -2.379 -15.254   7.003  1.00  0.00     0.198 HD
HETATM   29  N3  UNL     1      -3.343 -12.328   6.567  1.00  0.00    -0.235 N 
ATOM     30  H3  UNL     1      -3.544 -11.497   6.011  1.00  0.00     0.197 HD
BRANCH  25  31
HETATM   31  N1  UNL     1      -3.122 -14.265   9.373  1.00  0.00    -0.382 N 
ATOM     32  H12 UNL     1      -2.577 -14.006  10.196  1.00  0.00     0.157 HD
ATOM     33  H11 UNL     1      -3.685 -15.076   9.629  1.00  0.00     0.157 HD
ENDBRANCH  25  31
ENDBRANCH   1  24
TORSDOF 7
ENDMDL
MODEL 3
REMARK VINA RESULT: -7.930539372      2.999      4.457
REMARK  7 active torsions:
REMARK  status: ('A' for Active; 'I' for Inactive)
REMARK    1  A    between atoms: N1_1  and  C1_4 
REMARK    2  A    between atoms: C2_10  and  C3_11 
REMARK    3  A    between atoms: C5_13  and  C6_14 
REMARK    4  A    between atoms: C6_14  and  C7_15 
REMARK    5  A    between atoms: C7_15  and  C8_16 
REMARK    6  A    between atoms: C10_21  and  C11_22 
REMARK    7  A    between atoms: C13_29  and  C14_30 
ROOT
HETATM    1  C3  UNL     1      -1.236  -9.730  13.174  1.00  0.00     0.108 A 
HETATM    2  C4  UNL     1      -2.340  -9.536  12.371  1.00  0.00     0.049 A 
HETATM    3  C5  UNL     1      -3.207 -10.565  12.633  1.00  0.00    -0.022 A 
HETATM    4  C13 UNL     1      -2.605 -11.356  13.589  1.00  0.00     0.064 A 
HETATM    5  O4  UNL     1      -1.465 -10.806  13.851  1.00  0.00    -0.312 OA
ENDROOT
BRANCH   3   6
HETATM    6  C6  UNL     1      -4.539 -10.847  12.055  1.00  0.00     0.072 C 
BRANCH   6   7
HETATM    7  C7  UNL     1      -4.696 -10.173  10.747  1.00  0.00     0.026 C 
BRANCH   7   8
HETATM    8  C8  UNL     1      -5.892 -10.103  10.180  1.00  0.00     0.105 A 
HETATM    9  N4  UNL     1      -7.045  -9.696  10.769  1.00  0.00    -0.308 N 
HETATM   10  C9  UNL     1      -8.043  -9.765   9.868  1.00  0.00     0.278 A 
ATOM     11  H4  UNL     1      -7.141  -9.388  11.737  1.00  0.00     0.170 HD
HETATM   12  O2  UNL     1      -9.270  -9.469  10.035  1.00  0.00    -0.265 OA
HETATM   13  C10 UNL     1      -7.517 -10.226   8.680  1.00  0.00     0.154 A 
HETATM   14  N6  UNL     1      -6.211 -10.417   8.915  1.00  0.00    -0.335 N 
ATOM     15  H6  UNL     1      -5.546 -10.758   8.222  1.00  0.00     0.168 HD
BRANCH  13  16
HETATM   16  C11 UNL     1      -8.193 -10.430   7.546  1.00  0.00     0.174 C 
HETATM   17  N5  UNL     1      -8.368 -11.518   6.650  1.00  0.00    -0.347 N 
HETATM   18  C12 UNL     1      -9.573 -10.897   6.181  1.00  0.00     0.302 C 
ATOM     19  H5  UNL     1      -7.856 -12.374   6.433  1.00  0.00     0.163 HD
HETATM   20  O3  UNL     1      -9.027  -9.689   6.725  1.00  0.00    -0.314 OA
ENDBRANCH  13  16
ENDBRANCH   7   8
ENDBRANCH   6   7
ENDBRANCH   3   6
BRANCH   4  21
HETATM   21  C14 UNL     1      -3.138 -12.603  14.214  1.00  0.00     0.044 A 
HETATM   22  C15 UNL     1      -2.766 -13.908  13.489  1.00  0.00     0.012 A 
HETATM   23  C16 UNL     1      -2.165 -13.550  14.811  1.00  0.00     0.012 A 
ENDBRANCH   4  21
BRANCH   1  24
HETATM   24  C2  UNL     1      -0.078  -8.879  13.218  1.00  0.00     0.135 A 
HETATM   25  C1  UNL     1       1.091  -9.106  13.913  1.00  0.00     0.153 A 
HETATM   26  N2  UNL     1       1.902  -8.062  13.677  1.00  0.00    -0.224 N 
HETATM   27  O1  UNL     1       1.281  -7.219  12.877  1.00  0.00    -0.155 OA
ATOM     28  H2  UNL     1       2.843  -7.941  14.054  1.00  0.00     0.198 HD
HETATM   29  N3  UNL     1       0.104  -7.692  12.597  1.00  0.00    -0.235 N 
ATOM     30  H3  UNL     1      -0.582  -7.235  11.997  1.00  0.00     0.197 HD
BRANCH  25  31
HETATM   31  N1  UNL     1       1.387 -10.103  14.650  1.00  0.00    -0.382 N 
ATOM     32  H12 UNL     1       1.310 -10.182  15.664  1.00  0.00     0.157 HD
ATOM     33  H11 UNL     1       1.757 -10.990  14.306  1.00  0.00     0.157 HD
ENDBRANCH  25  31
ENDBRANCH   1  24
TORSDOF 7
ENDMDL
MODEL 4
REMARK VINA RESULT: -7.848640762      1.932      2.547
REMARK  7 active torsions:
REMARK  status: ('A' for Active; 'I' for Inactive)
REMARK    1  A    between atoms: N1_1  and  C1_4 
REMARK    2  A    between atoms: C2_10  and  C3_11 
REMARK    3  A    between atoms: C5_13  and  C6_14 
REMARK    4  A    between atoms: C6_14  and  C7_15 
REMARK    5  A    between atoms: C7_15  and  C8_16 
REMARK    6  A    between atoms: C10_21  and  C11_22 
REMARK    7  A    between atoms: C13_29  and  C14_30 
ROOT
HETATM    1  C3  UNL     1      -3.093 -13.105  12.229  1.00  0.00     0.108 A 
HETATM    2  C4  UNL     1      -3.368 -11.770  12.021  1.00  0.00     0.049 A 
HETATM    3  C5  UNL     1      -3.486 -11.596  10.667  1.00  0.00    -0.022 A 
HETATM    4  C13 UNL     1      -3.279 -12.830  10.089  1.00  0.00     0.064 A 
HETATM    5  O4  UNL     1      -3.058 -13.654  11.061  1.00  0.00    -0.312 OA
ENDROOT
BRANCH   3   6
HETATM    6  C6  UNL     1      -3.775 -10.367   9.894  1.00  0.00     0.072 C 
BRANCH   6   7
HETATM    7  C7  UNL     1      -4.965  -9.675  10.437  1.00  0.00     0.026 C 
BRANCH   7   8
HETATM    8  C8  UNL     1      -6.163  -9.926   9.929  1.00  0.00     0.105 A 
HETATM    9  N4  UNL     1      -7.326 -10.048  10.618  1.00  0.00    -0.308 N 
HETATM   10  C9  UNL     1      -8.322 -10.303   9.749  1.00  0.00     0.278 A 
ATOM     11  H4  UNL     1      -7.429  -9.961  11.629  1.00  0.00     0.170 HD
HETATM   12  O2  UNL     1      -9.556 -10.481  10.005  1.00  0.00    -0.265 OA
HETATM   13  C10 UNL     1      -7.786 -10.345   8.480  1.00  0.00     0.154 A 
HETATM   14  N6  UNL     1      -6.474 -10.111   8.637  1.00  0.00    -0.335 N 
ATOM     15  H6  UNL     1      -5.801 -10.079   7.872  1.00  0.00     0.168 HD
BRANCH  13  16
HETATM   16  C11 UNL     1      -8.456 -10.573   7.348  1.00  0.00     0.174 C 
HETATM   17  N5  UNL     1      -8.674 -11.696   6.506  1.00  0.00    -0.347 N 
HETATM   18  C12 UNL     1      -9.842 -11.041   5.988  1.00  0.00     0.302 C 
ATOM     19  H5  UNL     1      -8.203 -12.585   6.340  1.00  0.00     0.163 HD
HETATM   20  O3  UNL     1      -9.242  -9.836   6.478  1.00  0.00    -0.314 OA
ENDBRANCH  13  16
ENDBRANCH   7   8
ENDBRANCH   6   7
ENDBRANCH   3   6
BRANCH   4  21
HETATM   21  C14 UNL     1      -3.301 -13.178   8.637  1.00  0.00     0.044 A 
HETATM   22  C15 UNL     1      -1.923 -13.475   8.016  1.00  0.00     0.012 A 
HETATM   23  C16 UNL     1      -2.926 -14.560   8.249  1.00  0.00     0.012 A 
ENDBRANCH   4  21
BRANCH   1  24
HETATM   24  C2  UNL     1      -2.892 -13.724  13.511  1.00  0.00     0.135 A 
HETATM   25  C1  UNL     1      -2.630 -15.056  13.756  1.00  0.00     0.153 A 
HETATM   26  N2  UNL     1      -2.514 -15.199  15.087  1.00  0.00    -0.224 N 
HETATM   27  O1  UNL     1      -2.693 -14.023  15.653  1.00  0.00    -0.155 OA
ATOM     28  H2  UNL     1      -2.320 -16.072  15.577  1.00  0.00     0.198 HD
HETATM   29  N3  UNL     1      -2.918 -13.139  14.730  1.00  0.00    -0.235 N 
ATOM     30  H3  UNL     1      -3.090 -12.148  14.898  1.00  0.00     0.197 HD
BRANCH  25  31
HETATM   31  N1  UNL     1      -2.513 -16.003  12.912  1.00  0.00    -0.382 N 
ATOM     32  H12 UNL     1      -1.709 -16.228  12.325  1.00  0.00     0.157 HD
ATOM     33  H11 UNL     1      -3.239 -16.689  12.704  1.00  0.00     0.157 HD
ENDBRANCH  25  31
ENDBRANCH   1  24
TORSDOF 7
ENDMDL
MODEL 5
REMARK VINA RESULT: -7.797498135      1.160      1.306
REMARK  7 active torsions:
REMARK  status: ('A' for Active; 'I' for Inactive)
REMARK    1  A    between atoms: N1_1  and  C1_4 
REMARK    2  A    between atoms: C2_10  and  C3_11 
REMARK    3  A    between atoms: C5_13  and  C6_14 
REMARK    4  A    between atoms: C6_14  and  C7_15 
REMARK    5  A    between atoms: C7_15  and  C8_16 
REMARK    6  A    between atoms: C10_21  and  C11_22 
REMARK    7  A    between atoms: C13_29  and  C14_30 
ROOT
HETATM    1  C3  UNL     1      -3.284 -10.471  12.114  1.00  0.00     0.108 A 
HETATM    2  C4  UNL     1      -4.112  -9.434  11.735  1.00  0.00     0.049 A 
HETATM    3  C5  UNL     1      -4.697  -9.806  10.553  1.00  0.00    -0.022 A 
HETATM    4  C13 UNL     1      -4.208 -11.058  10.246  1.00  0.00     0.064 A 
HETATM    5  O4  UNL     1      -3.394 -11.375  11.199  1.00  0.00    -0.312 OA
ENDROOT
BRANCH   3   6
HETATM    6  C6  UNL     1      -5.668  -9.075   9.709  1.00  0.00     0.072 C 
BRANCH   6   7
HETATM    7  C7  UNL     1      -7.049  -9.287  10.196  1.00  0.00     0.026 C 
BRANCH   7   8
HETATM    8  C8  UNL     1      -7.923  -9.935   9.438  1.00  0.00     0.105 A 
HETATM    9  N4  UNL     1      -8.672 -11.007   9.801  1.00  0.00    -0.308 N 
HETATM   10  C9  UNL     1      -9.436 -11.378   8.757  1.00  0.00     0.278 A 
ATOM     11  H4  UNL     1      -8.658 -11.458  10.715  1.00  0.00     0.170 HD
HETATM   12  O2  UNL     1     -10.271 -12.338   8.700  1.00  0.00    -0.265 OA
HETATM   13  C10 UNL     1      -9.170 -10.527   7.706  1.00  0.00     0.154 A 
HETATM   14  N6  UNL     1      -8.247  -9.668   8.163  1.00  0.00    -0.335 N 
ATOM     15  H6  UNL     1      -7.843  -8.911   7.613  1.00  0.00     0.168 HD
BRANCH  13  16
HETATM   16  C11 UNL     1      -9.730 -10.572   6.494  1.00  0.00     0.174 C 
HETATM   17  N5  UNL     1      -9.822 -11.534   5.453  1.00  0.00    -0.347 N 
HETATM   18  C12 UNL     1     -10.970 -10.834   4.951  1.00  0.00     0.302 C 
ATOM     19  H5  UNL     1      -9.297 -12.365   5.179  1.00  0.00     0.163 HD
HETATM   20  O3  UNL     1     -10.472  -9.717   5.697  1.00  0.00    -0.314 OA
ENDBRANCH  13  16
ENDBRANCH   7   8
ENDBRANCH   6   7
ENDBRANCH   3   6
BRANCH   4  21
HETATM   21  C14 UNL     1      -4.534 -11.903   9.059  1.00  0.00     0.044 A 
HETATM   22  C15 UNL     1      -3.667 -11.643   7.814  1.00  0.00     0.012 A 
HETATM   23  C16 UNL     1      -3.525 -12.897   8.616  1.00  0.00     0.012 A 
ENDBRANCH   4  21
BRANCH   1  24
HETATM   24  C2  UNL     1      -2.474 -10.497  13.301  1.00  0.00     0.135 A 
HETATM   25  C1  UNL     1      -2.287 -11.567  14.152  1.00  0.00     0.153 A 
HETATM   26  N2  UNL     1      -1.460 -11.157  15.129  1.00  0.00    -0.224 N 
HETATM   27  O1  UNL     1      -1.141  -9.898  14.908  1.00  0.00    -0.155 OA
ATOM     28  H2  UNL     1      -1.134 -11.726  15.910  1.00  0.00     0.198 HD
HETATM   29  N3  UNL     1      -1.736  -9.494  13.827  1.00  0.00    -0.235 N 
ATOM     30  H3  UNL     1      -1.658  -8.557  13.432  1.00  0.00     0.197 HD
BRANCH  25  31
HETATM   31  N1  UNL     1      -2.785 -12.737  14.067  1.00  0.00    -0.382 N 
ATOM     32  H12 UNL     1      -3.735 -13.035  14.286  1.00  0.00     0.157 HD
ATOM     33  H11 UNL     1      -2.275 -13.563  13.754  1.00  0.00     0.157 HD
ENDBRANCH  25  31
ENDBRANCH   1  24
TORSDOF 7
ENDMDL
