MODEL 1
REMARK VINA RESULT: -7.456481559      0.000      0.000
REMARK  6 active torsions:
REMARK  status: ('A' for Active; 'I' for Inactive)
REMARK    1  A    between atoms: C4_7  and  N3_8 
REMARK       I    between atoms: N6_17  and  C7_18 
REMARK       I    between atoms: C7_18  and  N7_20 
REMARK    2  A    between atoms: N7_20  and  C8_22 
REMARK    3  A    between atoms: C8_22  and  C9_23 
REMARK    4  A    between atoms: C9_23  and  C10_24 
REMARK    5  A    between atoms: C10_24  and  N8_25 
REMARK    6  A    between atoms: C15_33  and  N10_34 
ROOT
HETATM    1  N1  UNL     1      -2.426 -11.581  15.296  1.00  0.00    -0.190 NA
HETATM    2  C1  UNL     1      -2.672 -11.744  14.175  1.00  0.00     0.121 C 
HETATM    3  C2  UNL     1      -2.983 -11.924  12.764  1.00  0.00     0.159 A 
HETATM    4  N2  UNL     1      -2.479 -12.944  12.067  1.00  0.00    -0.339 N 
ATOM      5  H2  UNL     1      -1.861 -13.625  12.508  1.00  0.00     0.167 HD
HETATM    6  C3  UNL     1      -2.810 -13.048  10.763  1.00  0.00     0.122 A 
HETATM    7  C4  UNL     1      -2.292 -14.101  10.007  1.00  0.00     0.131 A 
HETATM    8  N4  UNL     1      -2.607 -14.217   8.700  1.00  0.00    -0.337 N 
ATOM      9  H4  UNL     1      -2.226 -14.988   8.151  1.00  0.00     0.168 HD
HETATM   10  C5  UNL     1      -3.428 -13.312   8.117  1.00  0.00     0.183 A 
HETATM   11  N5  UNL     1      -3.930 -12.298   8.836  1.00  0.00    -0.336 N 
ATOM     12  H5  UNL     1      -4.548 -11.623   8.384  1.00  0.00     0.168 HD
HETATM   13  C6  UNL     1      -3.635 -12.152  10.144  1.00  0.00     0.149 A 
HETATM   14  N6  UNL     1      -4.172 -11.093  10.827  1.00  0.00    -0.230 N 
HETATM   15  C7  UNL     1      -5.014 -10.231  10.129  1.00  0.00     0.330 C 
HETATM   16  O1  UNL     1      -5.240 -10.542   8.889  1.00  0.00    -0.246 OA
HETATM   17  N7  UNL     1      -5.636  -9.083  10.603  1.00  0.00    -0.342 N 
ATOM     18  H7  UNL     1      -5.482  -8.814  11.575  1.00  0.00     0.164 HD
HETATM   19  C15 UNL     1      -3.827 -11.008  12.132  1.00  0.00     0.149 A 
ENDROOT
BRANCH  19  20
HETATM   20  N10 UNL     1      -4.276 -10.070  12.845  1.00  0.00    -0.382 N 
ATOM     21 2H10 UNL     1      -4.141 -10.087  13.856  1.00  0.00     0.157 HD
ATOM     22 1H10 UNL     1      -4.763  -9.318  12.358  1.00  0.00     0.157 HD
ENDBRANCH  19  20
BRANCH   7  23
HETATM   23  N3  UNL     1      -1.516 -14.931  10.607  1.00  0.00    -0.383 N 
ATOM     24  H32 UNL     1      -1.819 -15.479  11.413  1.00  0.00     0.157 HD
ATOM     25  H31 UNL     1      -0.568 -15.030  10.246  1.00  0.00     0.157 HD
ENDBRANCH   7  23
BRANCH  17  26
HETATM   26  C8  UNL     1      -6.505  -8.237   9.771  1.00  0.00     0.129 C 
BRANCH  26  27
HETATM   27  C9  UNL     1      -7.901  -8.177  10.249  1.00  0.00     0.064 C 
BRANCH  27  28
HETATM   28  C10 UNL     1      -8.676  -9.456  10.156  1.00  0.00     0.065 C 
BRANCH  28  29
HETATM   29  N8  UNL     1      -8.637 -10.159   8.955  1.00  0.00    -0.371 N 
HETATM   30  C11 UNL     1      -8.441  -9.577   7.715  1.00  0.00     0.090 C 
HETATM   31  C12 UNL     1      -9.358 -10.262   6.705  1.00  0.00     0.277 C 
HETATM   32  N9  UNL     1      -8.809 -11.596   6.548  1.00  0.00    -0.069 N 
HETATM   33  C13 UNL     1      -8.791 -12.326   7.790  1.00  0.00     0.252 C 
ATOM     34  H92 UNL     1      -9.301 -12.115   5.821  1.00  0.00     0.277 HD
ATOM     35  H91 UNL     1      -7.881 -11.566   6.125  1.00  0.00     0.277 HD
HETATM   36  C14 UNL     1      -9.105 -11.508   8.991  1.00  0.00     0.154 C 
ENDBRANCH  28  29
ENDBRANCH  27  28
ENDBRANCH  26  27
ENDBRANCH  17  26
TORSDOF 6
ENDMDL
MODEL 2
REMARK VINA RESULT: -7.130592838      2.717      2.808
REMARK  6 active torsions:
REMARK  status: ('A' for Active; 'I' for Inactive)
REMARK    1  A    between atoms: C4_7  and  N3_8 
REMARK       I    between atoms: N6_17  and  C7_18 
REMARK       I    between atoms: C7_18  and  N7_20 
REMARK    2  A    between atoms: N7_20  and  C8_22 
REMARK    3  A    between atoms: C8_22  and  C9_23 
REMARK    4  A    between atoms: C9_23  and  C10_24 
REMARK    5  A    between atoms: C10_24  and  N8_25 
REMARK    6  A    between atoms: C15_33  and  N10_34 
ROOT
HETATM    1  N1  UNL     1      -0.698  -9.714  15.137  1.00  0.00    -0.190 NA
HETATM    2  C1  UNL     1      -0.875  -9.755  13.993  1.00  0.00     0.121 C 
HETATM    3  C2  UNL     1      -1.119  -9.793  12.557  1.00  0.00     0.159 A 
HETATM    4  N2  UNL     1      -0.113  -9.794  11.683  1.00  0.00    -0.339 N 
ATOM      5  H2  UNL     1       0.857  -9.767  11.999  1.00  0.00     0.167 HD
HETATM    6  C3  UNL     1      -0.413  -9.830  10.368  1.00  0.00     0.122 A 
HETATM    7  C4  UNL     1       0.619  -9.824   9.428  1.00  0.00     0.131 A 
HETATM    8  N4  UNL     1       0.337  -9.853   8.109  1.00  0.00    -0.337 N 
ATOM      9  H4  UNL     1       1.094  -9.849   7.426  1.00  0.00     0.168 HD
HETATM   10  C5  UNL     1      -0.950  -9.889   7.692  1.00  0.00     0.183 A 
HETATM   11  N5  UNL     1      -1.948  -9.895   8.587  1.00  0.00    -0.336 N 
ATOM     12  H5  UNL     1      -2.914  -9.922   8.258  1.00  0.00     0.168 HD
HETATM   13  C6  UNL     1      -1.701  -9.865   9.912  1.00  0.00     0.149 A 
HETATM   14  N6  UNL     1      -2.761  -9.867  10.781  1.00  0.00    -0.230 N 
HETATM   15  C7  UNL     1      -4.042  -9.918  10.240  1.00  0.00     0.330 C 
HETATM   16  O1  UNL     1      -4.107  -9.997   8.945  1.00  0.00    -0.246 OA
HETATM   17  N7  UNL     1      -5.253  -9.893  10.920  1.00  0.00    -0.342 N 
ATOM     18  H7  UNL     1      -5.236  -9.836  11.939  1.00  0.00     0.164 HD
HETATM   19  C15 UNL     1      -2.436  -9.831  12.094  1.00  0.00     0.149 A 
ENDROOT
BRANCH  19  20
HETATM   20  N10 UNL     1      -3.342  -9.835  12.969  1.00  0.00    -0.382 N 
ATOM     21 2H10 UNL     1      -3.102  -9.729  13.955  1.00  0.00     0.157 HD
ATOM     22 1H10 UNL     1      -4.300  -9.943  12.635  1.00  0.00     0.157 HD
ENDBRANCH  19  20
BRANCH   7  23
HETATM   23  N3  UNL     1       1.823  -9.788   9.877  1.00  0.00    -0.383 N 
ATOM     24  H32 UNL     1       2.271 -10.596  10.309  1.00  0.00     0.157 HD
ATOM     25  H31 UNL     1       2.330  -8.908   9.785  1.00  0.00     0.157 HD
ENDBRANCH   7  23
BRANCH  17  26
HETATM   26  C8  UNL     1      -6.557  -9.945  10.243  1.00  0.00     0.129 C 
BRANCH  26  27
HETATM   27  C9  UNL     1      -7.098  -8.612   9.903  1.00  0.00     0.064 C 
BRANCH  27  28
HETATM   28  C10 UNL     1      -8.390  -8.609   9.145  1.00  0.00     0.065 C 
BRANCH  28  29
HETATM   29  N8  UNL     1      -8.693  -9.718   8.360  1.00  0.00    -0.371 N 
HETATM   30  C11 UNL     1      -8.437  -9.806   7.003  1.00  0.00     0.090 C 
HETATM   31  C12 UNL     1      -9.616 -10.504   6.330  1.00  0.00     0.277 C 
HETATM   32  N9  UNL     1      -9.542 -11.881   6.782  1.00  0.00    -0.069 N 
HETATM   33  C13 UNL     1      -9.644 -11.988   8.215  1.00  0.00     0.252 C 
ATOM     34  H92 UNL     1     -10.241 -12.460   6.317  1.00  0.00     0.277 HD
ATOM     35  H91 UNL     1      -8.698 -12.338   6.437  1.00  0.00     0.277 HD
HETATM   36  C14 UNL     1      -9.565 -10.691   8.938  1.00  0.00     0.154 C 
ENDBRANCH  28  29
ENDBRANCH  27  28
ENDBRANCH  26  27
ENDBRANCH  17  26
TORSDOF 6
ENDMDL
MODEL 3
REMARK VINA RESULT: -7.107372090      3.099      4.291
REMARK  6 active torsions:
REMARK  status: ('A' for Active; 'I' for Inactive)
REMARK    1  A    between atoms: C4_7  and  N3_8 
REMARK       I    between atoms: N6_17  and  C7_18 
REMARK       I    between atoms: C7_18  and  N7_20 
REMARK    2  A    between atoms: N7_20  and  C8_22 
REMARK    3  A    between atoms: C8_22  and  C9_23 
REMARK    4  A    between atoms: C9_23  and  C10_24 
REMARK    5  A    between atoms: C10_24  and  N8_25 
REMARK    6  A    between atoms: C15_33  and  N10_34 
ROOT
HETATM    1  N1  UNL     1      -2.384 -11.845  15.254  1.00  0.00    -0.190 NA
HETATM    2  C1  UNL     1      -2.078 -11.190  14.348  1.00  0.00     0.121 C 
HETATM    3  C2  UNL     1      -1.716 -10.370  13.200  1.00  0.00     0.159 A 
HETATM    4  N2  UNL     1      -0.882  -9.337  13.321  1.00  0.00    -0.339 N 
ATOM      5  H2  UNL     1      -0.475  -9.095  14.224  1.00  0.00     0.167 HD
HETATM    6  C3  UNL     1      -0.592  -8.621  12.214  1.00  0.00     0.122 A 
HETATM    7  C4  UNL     1       0.273  -7.529  12.311  1.00  0.00     0.131 A 
HETATM    8  N4  UNL     1       0.569  -6.799  11.216  1.00  0.00    -0.337 N 
ATOM      9  H4  UNL     1       1.202  -6.002  11.291  1.00  0.00     0.168 HD
HETATM   10  C5  UNL     1       0.028  -7.122  10.018  1.00  0.00     0.183 A 
HETATM   11  N5  UNL     1      -0.804  -8.169   9.915  1.00  0.00    -0.336 N 
ATOM     12  H5  UNL     1      -1.205  -8.402   9.006  1.00  0.00     0.168 HD
HETATM   13  C6  UNL     1      -1.121  -8.919  10.990  1.00  0.00     0.149 A 
HETATM   14  N6  UNL     1      -1.981  -9.974  10.828  1.00  0.00    -0.230 N 
HETATM   15  C7  UNL     1      -2.467 -10.222   9.547  1.00  0.00     0.330 C 
HETATM   16  O1  UNL     1      -2.022  -9.439   8.611  1.00  0.00    -0.246 OA
HETATM   17  N7  UNL     1      -3.370 -11.203   9.156  1.00  0.00    -0.342 N 
ATOM     18  H7  UNL     1      -3.735 -11.837   9.867  1.00  0.00     0.164 HD
HETATM   19  C15 UNL     1      -2.258 -10.677  11.949  1.00  0.00     0.149 A 
ENDROOT
BRANCH  19  20
HETATM   20  N10 UNL     1      -3.034 -11.668  11.899  1.00  0.00    -0.382 N 
ATOM     21 2H10 UNL     1      -3.853 -11.708  12.505  1.00  0.00     0.157 HD
ATOM     22 1H10 UNL     1      -2.798 -12.401  11.230  1.00  0.00     0.157 HD
ENDBRANCH  19  20
BRANCH   7  23
HETATM   23  N3  UNL     1       0.758  -7.264  13.471  1.00  0.00    -0.383 N 
ATOM     24  H32 UNL     1       0.465  -7.758  14.314  1.00  0.00     0.157 HD
ATOM     25  H31 UNL     1       1.462  -6.529  13.525  1.00  0.00     0.157 HD
ENDBRANCH   7  23
BRANCH  17  26
HETATM   26  C8  UNL     1      -3.824 -11.371   7.767  1.00  0.00     0.129 C 
BRANCH  26  27
HETATM   27  C9  UNL     1      -5.029 -10.581   7.442  1.00  0.00     0.064 C 
BRANCH  27  28
HETATM   28  C10 UNL     1      -5.741  -9.971   8.610  1.00  0.00     0.065 C 
BRANCH  28  29
HETATM   29  N8  UNL     1      -7.130  -9.900   8.567  1.00  0.00    -0.371 N 
HETATM   30  C11 UNL     1      -7.936  -9.695   9.674  1.00  0.00     0.090 C 
HETATM   31  C12 UNL     1      -9.172 -10.583   9.546  1.00  0.00     0.277 C 
HETATM   32  N9  UNL     1      -9.935 -10.004   8.456  1.00  0.00    -0.069 N 
HETATM   33  C13 UNL     1      -9.194  -9.993   7.221  1.00  0.00     0.252 C 
ATOM     34  H92 UNL     1     -10.833 -10.475   8.343  1.00  0.00     0.277 HD
ATOM     35  H91 UNL     1     -10.270  -9.071   8.693  1.00  0.00     0.277 HD
HETATM   36  C14 UNL     1      -7.755 -10.342   7.361  1.00  0.00     0.154 C 
ENDBRANCH  28  29
ENDBRANCH  27  28
ENDBRANCH  26  27
ENDBRANCH  17  26
TORSDOF 6
ENDMDL
MODEL 4
REMARK VINA RESULT: -7.068637031      2.016      6.734
REMARK  6 active torsions:
REMARK  status: ('A' for Active; 'I' for Inactive)
REMARK    1  A    between atoms: C4_7  and  N3_8 
REMARK       I    between atoms: N6_17  and  C7_18 
REMARK       I    between atoms: C7_18  and  N7_20 
REMARK    2  A    between atoms: N7_20  and  C8_22 
REMARK    3  A    between atoms: C8_22  and  C9_23 
REMARK    4  A    between atoms: C9_23  and  C10_24 
REMARK    5  A    between atoms: C10_24  and  N8_25 
REMARK    6  A    between atoms: C15_33  and  N10_34 
ROOT
HETATM    1  N1  UNL     1      -2.356 -13.415   6.124  1.00  0.00    -0.190 NA
HETATM    2  C1  UNL     1      -2.990 -12.719   6.799  1.00  0.00     0.121 C 
HETATM    3  C2  UNL     1      -3.767 -11.831   7.652  1.00  0.00     0.159 A 
HETATM    4  N2  UNL     1      -5.052 -11.578   7.402  1.00  0.00    -0.339 N 
ATOM      5  H2  UNL     1      -5.524 -12.003   6.604  1.00  0.00     0.167 HD
HETATM    6  C3  UNL     1      -5.710 -10.744   8.235  1.00  0.00     0.122 A 
HETATM    7  C4  UNL     1      -7.054 -10.455   7.995  1.00  0.00     0.131 A 
HETATM    8  N4  UNL     1      -7.726  -9.619   8.813  1.00  0.00    -0.337 N 
ATOM      9  H4  UNL     1      -8.708  -9.410   8.634  1.00  0.00     0.168 HD
HETATM   10  C5  UNL     1      -7.097  -9.057   9.872  1.00  0.00     0.183 A 
HETATM   11  N5  UNL     1      -5.806  -9.328  10.111  1.00  0.00    -0.336 N 
ATOM     12  H5  UNL     1      -5.344  -8.898  10.913  1.00  0.00     0.168 HD
HETATM   13  C6  UNL     1      -5.106 -10.159   9.312  1.00  0.00     0.149 A 
HETATM   14  N6  UNL     1      -3.787 -10.396   9.601  1.00  0.00    -0.230 N 
HETATM   15  C7  UNL     1      -3.248  -9.774  10.723  1.00  0.00     0.330 C 
HETATM   16  O1  UNL     1      -4.070  -9.047  11.418  1.00  0.00    -0.246 OA
HETATM   17  N7  UNL     1      -1.938  -9.838  11.183  1.00  0.00    -0.342 N 
ATOM     18  H7  UNL     1      -1.268 -10.404  10.662  1.00  0.00     0.164 HD
HETATM   19  C15 UNL     1      -3.148 -11.234   8.753  1.00  0.00     0.149 A 
ENDROOT
BRANCH  19  20
HETATM   20  N10 UNL     1      -1.934 -11.518   8.940  1.00  0.00    -0.382 N 
ATOM     21 2H10 UNL     1      -1.437 -12.103   8.269  1.00  0.00     0.157 HD
ATOM     22 1H10 UNL     1      -1.498 -11.131   9.777  1.00  0.00     0.157 HD
ENDBRANCH  19  20
BRANCH   7  23
HETATM   23  N3  UNL     1      -7.603 -11.013   6.976  1.00  0.00    -0.383 N 
ATOM     24  H32 UNL     1      -7.260 -10.877   6.025  1.00  0.00     0.157 HD
ATOM     25  H31 UNL     1      -8.410 -11.611   7.150  1.00  0.00     0.157 HD
ENDBRANCH   7  23
BRANCH  17  26
HETATM   26  C8  UNL     1      -1.472  -9.129  12.384  1.00  0.00     0.129 C 
BRANCH  26  27
HETATM   27  C9  UNL     1      -1.521  -9.952  13.610  1.00  0.00     0.064 C 
BRANCH  27  28
HETATM   28  C10 UNL     1      -0.668 -11.184  13.600  1.00  0.00     0.065 C 
BRANCH  28  29
HETATM   29  N8  UNL     1      -1.303 -12.421  13.541  1.00  0.00    -0.371 N 
HETATM   30  C11 UNL     1      -1.410 -13.189  12.394  1.00  0.00     0.090 C 
HETATM   31  C12 UNL     1      -2.803 -13.813  12.355  1.00  0.00     0.277 C 
HETATM   32  N9  UNL     1      -2.802 -14.794  13.426  1.00  0.00    -0.069 N 
HETATM   33  C13 UNL     1      -2.555 -14.193  14.712  1.00  0.00     0.252 C 
ATOM     34  H92 UNL     1      -3.666 -15.336  13.431  1.00  0.00     0.277 HD
ATOM     35  H91 UNL     1      -2.141 -15.547  13.236  1.00  0.00     0.277 HD
HETATM   36  C14 UNL     1      -2.124 -12.771  14.656  1.00  0.00     0.154 C 
ENDBRANCH  28  29
ENDBRANCH  27  28
ENDBRANCH  26  27
ENDBRANCH  17  26
TORSDOF 6
ENDMDL
MODEL 5
REMARK VINA RESULT: -7.012363563      2.103      6.295
REMARK  6 active torsions:
REMARK  status: ('A' for Active; 'I' for Inactive)
REMARK    1  A    between atoms: C4_7  and  N3_8 
REMARK       I    between atoms: N6_17  and  C7_18 
REMARK       I    between atoms: C7_18  and  N7_20 
REMARK    2  A    between atoms: N7_20  and  C8_22 
REMARK    3  A    between atoms: C8_22  and  C9_23 
REMARK    4  A    between atoms: C9_23  and  C10_24 
REMARK    5  A    between atoms: C10_24  and  N8_25 
REMARK    6  A    between atoms: C15_33  and  N10_34 
ROOT
HETATM    1  N1  UNL     1      -3.345 -10.448  13.407  1.00  0.00    -0.190 NA
HETATM    2  C1  UNL     1      -3.906 -10.457  12.392  1.00  0.00     0.121 C 
HETATM    3  C2  UNL     1      -4.598 -10.489  11.111  1.00  0.00     0.159 A 
HETATM    4  N2  UNL     1      -5.849 -10.044  10.987  1.00  0.00    -0.339 N 
ATOM      5  H2  UNL     1      -6.354  -9.670  11.790  1.00  0.00     0.167 HD
HETATM    6  C3  UNL     1      -6.428 -10.105   9.769  1.00  0.00     0.122 A 
HETATM    7  C4  UNL     1      -7.739  -9.654   9.611  1.00  0.00     0.131 A 
HETATM    8  N4  UNL     1      -8.336  -9.713   8.402  1.00  0.00    -0.337 N 
ATOM      9  H4  UNL     1      -9.294  -9.382   8.290  1.00  0.00     0.168 HD
HETATM   10  C5  UNL     1      -7.664 -10.210   7.338  1.00  0.00     0.183 A 
HETATM   11  N5  UNL     1      -6.403 -10.646   7.480  1.00  0.00    -0.336 N 
ATOM     12  H5  UNL     1      -5.908 -11.018   6.670  1.00  0.00     0.168 HD
HETATM   13  C6  UNL     1      -5.778 -10.602   8.674  1.00  0.00     0.149 A 
HETATM   14  N6  UNL     1      -4.492 -11.067   8.764  1.00  0.00    -0.230 N 
HETATM   15  C7  UNL     1      -3.894 -11.545   7.601  1.00  0.00     0.330 C 
HETATM   16  O1  UNL     1      -4.613 -11.468   6.522  1.00  0.00    -0.246 OA
HETATM   17  N7  UNL     1      -2.625 -12.092   7.462  1.00  0.00    -0.342 N 
ATOM     18  H7  UNL     1      -2.033 -12.163   8.290  1.00  0.00     0.164 HD
HETATM   19  C15 UNL     1      -3.932 -10.996   9.993  1.00  0.00     0.149 A 
ENDROOT
BRANCH  19  20
HETATM   20  N10 UNL     1      -2.750 -11.395  10.172  1.00  0.00    -0.382 N 
ATOM     21 2H10 UNL     1      -2.273 -11.200  11.052  1.00  0.00     0.157 HD
ATOM     22 1H10 UNL     1      -2.320 -11.911   9.405  1.00  0.00     0.157 HD
ENDBRANCH  19  20
BRANCH   7  23
HETATM   23  N3  UNL     1      -8.333  -9.193  10.653  1.00  0.00    -0.383 N 
ATOM     24  H32 UNL     1      -7.894  -9.180  11.574  1.00  0.00     0.157 HD
ATOM     25  H31 UNL     1      -9.278  -8.830  10.529  1.00  0.00     0.157 HD
ENDBRANCH   7  23
BRANCH  17  26
HETATM   26  C8  UNL     1      -2.094 -12.576   6.178  1.00  0.00     0.129 C 
BRANCH  26  27
HETATM   27  C9  UNL     1      -2.318 -14.019   5.955  1.00  0.00     0.064 C 
BRANCH  27  28
HETATM   28  C10 UNL     1      -1.544 -14.942   6.845  1.00  0.00     0.065 C 
BRANCH  28  29
HETATM   29  N8  UNL     1      -2.244 -15.670   7.802  1.00  0.00    -0.371 N 
HETATM   30  C11 UNL     1      -2.638 -15.169   9.031  1.00  0.00     0.090 C 
HETATM   31  C12 UNL     1      -2.437 -16.253  10.086  1.00  0.00     0.277 C 
HETATM   32  N9  UNL     1      -3.443 -17.256   9.788  1.00  0.00    -0.069 N 
HETATM   33  C13 UNL     1      -3.287 -17.804   8.465  1.00  0.00     0.252 C 
ATOM     34  H92 UNL     1      -3.453 -17.991  10.494  1.00  0.00     0.277 HD
ATOM     35  H91 UNL     1      -4.384 -16.887   9.925  1.00  0.00     0.277 HD
HETATM   36  C14 UNL     1      -2.306 -17.084   7.610  1.00  0.00     0.154 C 
ENDBRANCH  28  29
ENDBRANCH  27  28
ENDBRANCH  26  27
ENDBRANCH  17  26
TORSDOF 6
ENDMDL
