MODEL 1
REMARK VINA RESULT: -7.519689047      0.000      0.000
REMARK  5 active torsions:
REMARK  status: ('A' for Active; 'I' for Inactive)
REMARK    1  A    between atoms: C3_5  and  C4_6 
REMARK    2  A    between atoms: N3_13  and  C8_14 
REMARK    3  A    between atoms: C10_16  and  O1_17 
REMARK    4  A    between atoms: C10_16  and  C11_19 
REMARK    5  A    between atoms: C14_24  and  N5_25 
ROOT
HETATM    1  C8  UNL     1      -3.881 -10.765  10.360  1.00  0.00     0.131 A 
HETATM    2  C9  UNL     1      -3.514 -11.991  10.779  1.00  0.00     0.110 A 
HETATM    3  C10 UNL     1      -3.490 -13.206  10.004  1.00  0.00     0.076 C 
HETATM    4  N4  UNL     1      -3.310 -12.160  12.134  1.00  0.00    -0.187 N 
ATOM      5  H4  UNL     1      -3.029 -13.083  12.463  1.00  0.00     0.184 HD
HETATM    6  C14 UNL     1      -3.457 -11.195  13.040  1.00  0.00     0.679 A 
HETATM    7  N6  UNL     1      -3.823  -9.978  12.641  1.00  0.00    -0.154 N 
ATOM      8  H6  UNL     1      -3.940  -9.228  13.322  1.00  0.00     0.187 HD
HETATM    9  C15 UNL     1      -4.038  -9.739  11.325  1.00  0.00     0.288 A 
HETATM   10  O2  UNL     1      -4.378  -8.575  11.021  1.00  0.00    -0.265 OA
ENDROOT
BRANCH   1  11
HETATM   11  N3  UNL     1      -3.994 -10.380   9.011  1.00  0.00    -0.339 N 
HETATM   12  C4  UNL     1      -4.840 -10.019   7.990  1.00  0.00     0.357 C 
HETATM   13  N2  UNL     1      -4.254 -10.569   6.738  1.00  0.00    -0.042 N 
HETATM   14  C5  UNL     1      -2.853 -10.387   6.889  1.00  0.00     0.202 C 
ATOM     15  H22 UNL     1      -4.530 -11.531   6.537  1.00  0.00     0.280 HD
ATOM     16  H21 UNL     1      -4.636 -10.161   5.885  1.00  0.00     0.280 HD
HETATM   17  C6  UNL     1      -2.329  -9.069   6.306  1.00  0.00     0.042 C 
HETATM   18  C7  UNL     1      -2.630 -10.322   8.342  1.00  0.00     0.158 C 
BRANCH  12  19
HETATM   19  C3  UNL     1      -6.262 -10.217   7.893  1.00  0.00     0.150 A 
HETATM   20  N1  UNL     1      -6.955 -11.038   7.102  1.00  0.00    -0.330 N 
HETATM   21  C2  UNL     1      -8.273 -10.871   7.253  1.00  0.00     0.093 A 
ATOM     22  H1  UNL     1      -6.531 -11.710   6.463  1.00  0.00     0.168 HD
HETATM   23  C1  UNL     1      -9.327 -11.609   6.506  1.00  0.00     0.090 C 
HETATM   24  N8  UNL     1      -8.405  -9.914   8.173  1.00  0.00    -0.286 N 
HETATM   25  N7  UNL     1      -7.201  -9.518   8.558  1.00  0.00    -0.280 N 
ATOM     26  H8  UNL     1      -9.290  -9.548   8.523  1.00  0.00     0.188 HD
HETATM   27  C16 UNL     1      -7.012  -8.452   9.546  1.00  0.00     0.179 C 
ENDBRANCH  12  19
ENDBRANCH   1  11
BRANCH   3  28
HETATM   28  O1  UNL     1      -4.010 -13.212   8.752  1.00  0.00    -0.362 OA
ATOM     29  H1  UNL     1      -4.683 -13.844   8.526  1.00  0.00     0.217 HD
ENDBRANCH   3  28
BRANCH   3  30
HETATM   30  C11 UNL     1      -2.234 -14.017   9.968  1.00  0.00     0.036 C 
HETATM   31  C12 UNL     1      -2.171 -15.398  10.444  1.00  0.00     0.016 C 
HETATM   32  C13 UNL     1      -1.818 -14.074   8.459  1.00  0.00     0.016 C 
ENDBRANCH   3  30
BRANCH   6  33
HETATM   33  N5  UNL     1      -3.224 -11.449  14.297  1.00  0.00    -0.234 N 
ATOM     34  H52 UNL     1      -3.786 -12.128  14.810  1.00  0.00     0.174 HD
ATOM     35  H51 UNL     1      -2.478 -10.951  14.784  1.00  0.00     0.174 HD
ENDBRANCH   6  33
TORSDOF 5
ENDMDL
MODEL 2
REMARK VINA RESULT: -6.895116125      2.411      5.042
REMARK  5 active torsions:
REMARK  status: ('A' for Active; 'I' for Inactive)
REMARK    1  A    between atoms: C3_5  and  C4_6 
REMARK    2  A    between atoms: N3_13  and  C8_14 
REMARK    3  A    between atoms: C10_16  and  O1_17 
REMARK    4  A    between atoms: C10_16  and  C11_19 
REMARK    5  A    between atoms: C14_24  and  N5_25 
ROOT
HETATM    1  C8  UNL     1      -4.452 -10.888   9.009  1.00  0.00     0.131 A 
HETATM    2  C9  UNL     1      -4.509 -10.678  10.338  1.00  0.00     0.110 A 
HETATM    3  C10 UNL     1      -3.534 -11.073  11.324  1.00  0.00     0.076 C 
HETATM    4  N4  UNL     1      -5.698 -10.202  10.852  1.00  0.00    -0.187 N 
ATOM      5  H4  UNL     1      -5.751 -10.037  11.857  1.00  0.00     0.184 HD
HETATM    6  C14 UNL     1      -6.780  -9.942  10.120  1.00  0.00     0.679 A 
HETATM    7  N6  UNL     1      -6.740 -10.147   8.804  1.00  0.00    -0.154 N 
ATOM      8  H6  UNL     1      -7.561  -9.955   8.231  1.00  0.00     0.187 HD
HETATM    9  C15 UNL     1      -5.605 -10.613   8.232  1.00  0.00     0.288 A 
HETATM   10  O2  UNL     1      -5.638 -10.781   6.993  1.00  0.00    -0.265 OA
ENDROOT
BRANCH   1  11
HETATM   11  N3  UNL     1      -3.286 -11.235   8.301  1.00  0.00    -0.339 N 
HETATM   12  C4  UNL     1      -2.542 -12.249   7.748  1.00  0.00     0.357 C 
HETATM   13  N2  UNL     1      -1.113 -11.870   7.921  1.00  0.00    -0.042 N 
HETATM   14  C5  UNL     1      -1.085 -10.467   7.693  1.00  0.00     0.202 C 
ATOM     15  H22 UNL     1      -0.714 -12.154   8.816  1.00  0.00     0.280 HD
ATOM     16  H21 UNL     1      -0.468 -12.399   7.335  1.00  0.00     0.280 HD
HETATM   17  C6  UNL     1      -0.793 -10.079   6.237  1.00  0.00     0.042 C 
HETATM   18  C7  UNL     1      -2.451 -10.005   7.985  1.00  0.00     0.158 C 
BRANCH  12  19
HETATM   19  C3  UNL     1      -2.620 -13.662   8.008  1.00  0.00     0.150 A 
HETATM   20  N1  UNL     1      -2.777 -14.307   9.164  1.00  0.00    -0.330 N 
HETATM   21  C2  UNL     1      -2.717 -15.634   9.000  1.00  0.00     0.093 A 
ATOM     22  H1  UNL     1      -2.924 -13.847  10.062  1.00  0.00     0.168 HD
HETATM   23  C1  UNL     1      -2.830 -16.643  10.087  1.00  0.00     0.090 C 
HETATM   24  N8  UNL     1      -2.520 -15.820   7.694  1.00  0.00    -0.286 N 
HETATM   25  N7  UNL     1      -2.459 -14.639   7.096  1.00  0.00    -0.280 N 
ATOM     26  H8  UNL     1      -2.431 -16.724   7.232  1.00  0.00     0.188 HD
HETATM   27  C16 UNL     1      -2.221 -14.509   5.655  1.00  0.00     0.179 C 
ENDBRANCH  12  19
ENDBRANCH   1  11
BRANCH   3  28
HETATM   28  O1  UNL     1      -2.493 -11.861  10.959  1.00  0.00    -0.362 OA
ATOM     29  H1  UNL     1      -2.585 -12.807  10.996  1.00  0.00     0.217 HD
ENDBRANCH   3  28
BRANCH   3  30
HETATM   30  C11 UNL     1      -3.003 -10.042  12.268  1.00  0.00     0.036 C 
HETATM   31  C12 UNL     1      -2.294 -10.388  13.500  1.00  0.00     0.016 C 
HETATM   32  C13 UNL     1      -1.990  -9.191  11.428  1.00  0.00     0.016 C 
ENDBRANCH   3  30
BRANCH   6  33
HETATM   33  N5  UNL     1      -7.853  -9.477  10.696  1.00  0.00    -0.234 N 
ATOM     34  H52 UNL     1      -7.886  -8.524  11.056  1.00  0.00     0.174 HD
ATOM     35  H51 UNL     1      -8.670 -10.078  10.803  1.00  0.00     0.174 HD
ENDBRANCH   6  33
TORSDOF 5
ENDMDL
MODEL 3
REMARK VINA RESULT: -6.786172451      1.101      1.298
REMARK  5 active torsions:
REMARK  status: ('A' for Active; 'I' for Inactive)
REMARK    1  A    between atoms: C3_5  and  C4_6 
REMARK    2  A    between atoms: N3_13  and  C8_14 
REMARK    3  A    between atoms: C10_16  and  O1_17 
REMARK    4  A    between atoms: C10_16  and  C11_19 
REMARK    5  A    between atoms: C14_24  and  N5_25 
ROOT
HETATM    1  C8  UNL     1      -3.435 -11.874   9.965  1.00  0.00     0.131 A 
HETATM    2  C9  UNL     1      -3.126 -13.185   9.978  1.00  0.00     0.110 A 
HETATM    3  C10 UNL     1      -3.188 -14.106   8.871  1.00  0.00     0.076 C 
HETATM    4  N4  UNL     1      -2.898 -13.767  11.208  1.00  0.00    -0.187 N 
ATOM      5  H4  UNL     1      -2.660 -14.759  11.230  1.00  0.00     0.184 HD
HETATM    6  C14 UNL     1      -2.968 -13.119  12.369  1.00  0.00     0.679 A 
HETATM    7  N6  UNL     1      -3.277 -11.823  12.372  1.00  0.00    -0.154 N 
ATOM      8  H6  UNL     1      -3.335 -11.312  13.253  1.00  0.00     0.187 HD
HETATM    9  C15 UNL     1      -3.512 -11.185  11.201  1.00  0.00     0.288 A 
HETATM   10  O2  UNL     1      -3.794  -9.970  11.279  1.00  0.00    -0.265 OA
ENDROOT
BRANCH   1  11
HETATM   11  N3  UNL     1      -3.561 -11.092   8.802  1.00  0.00    -0.339 N 
HETATM   12  C4  UNL     1      -4.407 -10.376   7.989  1.00  0.00     0.357 C 
HETATM   13  N2  UNL     1      -3.918 -10.564   6.596  1.00  0.00    -0.042 N 
HETATM   14  C5  UNL     1      -2.501 -10.542   6.709  1.00  0.00     0.202 C 
ATOM     15  H22 UNL     1      -4.286 -11.397   6.135  1.00  0.00     0.280 HD
ATOM     16  H21 UNL     1      -4.292  -9.890   5.929  1.00  0.00     0.280 HD
HETATM   17  C6  UNL     1      -1.882  -9.152   6.515  1.00  0.00     0.042 C 
HETATM   18  C7  UNL     1      -2.222 -10.936   8.099  1.00  0.00     0.158 C 
BRANCH  12  19
HETATM   19  C3  UNL     1      -5.844 -10.429   7.923  1.00  0.00     0.150 A 
HETATM   20  N1  UNL     1      -6.633 -11.075   7.064  1.00  0.00    -0.330 N 
HETATM   21  C2  UNL     1      -7.925 -10.808   7.286  1.00  0.00     0.093 A 
ATOM     22  H1  UNL     1      -6.294 -11.697   6.330  1.00  0.00     0.168 HD
HETATM   23  C1  UNL     1      -9.065 -11.344   6.494  1.00  0.00     0.090 C 
HETATM   24  N8  UNL     1      -7.939  -9.968   8.322  1.00  0.00    -0.286 N 
HETATM   25  N7  UNL     1      -6.693  -9.737   8.706  1.00  0.00    -0.280 N 
ATOM     26  H8  UNL     1      -8.775  -9.569   8.749  1.00  0.00     0.188 HD
HETATM   27  C16 UNL     1      -6.375  -8.828   9.811  1.00  0.00     0.179 C 
ENDBRANCH  12  19
ENDBRANCH   1  11
BRANCH   3  28
HETATM   28  O1  UNL     1      -3.740 -13.707   7.697  1.00  0.00    -0.362 OA
ATOM     29  H1  UNL     1      -3.424 -14.076   6.881  1.00  0.00     0.217 HD
ENDBRANCH   3  28
BRANCH   3  30
HETATM   30  C11 UNL     1      -1.980 -14.923   8.540  1.00  0.00     0.036 C 
HETATM   31  C12 UNL     1      -1.981 -16.384   8.571  1.00  0.00     0.016 C 
HETATM   32  C13 UNL     1      -1.607 -14.536   7.068  1.00  0.00     0.016 C 
ENDBRANCH   3  30
BRANCH   6  33
HETATM   33  N5  UNL     1      -2.718 -13.754  13.480  1.00  0.00    -0.234 N 
ATOM     34  H52 UNL     1      -2.722 -13.268  14.376  1.00  0.00     0.174 HD
ATOM     35  H51 UNL     1      -2.501 -14.750  13.454  1.00  0.00     0.174 HD
ENDBRANCH   6  33
TORSDOF 5
ENDMDL
MODEL 4
REMARK VINA RESULT: -6.731536416      2.442      5.721
REMARK  5 active torsions:
REMARK  status: ('A' for Active; 'I' for Inactive)
REMARK    1  A    between atoms: C3_5  and  C4_6 
REMARK    2  A    between atoms: N3_13  and  C8_14 
REMARK    3  A    between atoms: C10_16  and  O1_17 
REMARK    4  A    between atoms: C10_16  and  C11_19 
REMARK    5  A    between atoms: C14_24  and  N5_25 
ROOT
HETATM    1  C8  UNL     1      -4.178 -11.009   9.366  1.00  0.00     0.131 A 
HETATM    2  C9  UNL     1      -4.082 -11.392   8.079  1.00  0.00     0.110 A 
HETATM    3  C10 UNL     1      -2.887 -11.786   7.374  1.00  0.00     0.076 C 
HETATM    4  N4  UNL     1      -5.198 -11.224   7.285  1.00  0.00    -0.187 N 
ATOM      5  H4  UNL     1      -5.137 -11.513   6.309  1.00  0.00     0.184 HD
HETATM    6  C14 UNL     1      -6.350 -10.708   7.711  1.00  0.00     0.679 A 
HETATM    7  N6  UNL     1      -6.459 -10.321   8.981  1.00  0.00    -0.154 N 
ATOM      8  H6  UNL     1      -7.334  -9.924   9.323  1.00  0.00     0.187 HD
HETATM    9  C15 UNL     1      -5.403 -10.459   9.818  1.00  0.00     0.288 A 
HETATM   10  O2  UNL     1      -5.577 -10.077  10.996  1.00  0.00    -0.265 OA
ENDROOT
BRANCH   1  11
HETATM   11  N3  UNL     1      -3.193 -11.235  10.346  1.00  0.00    -0.339 N 
HETATM   12  C4  UNL     1      -2.146 -10.705  11.061  1.00  0.00     0.357 C 
HETATM   13  N2  UNL     1      -1.168 -11.809  11.264  1.00  0.00    -0.042 N 
HETATM   14  C5  UNL     1      -1.970 -12.957  11.506  1.00  0.00     0.202 C 
ATOM     15  H22 UNL     1      -0.502 -11.920  10.498  1.00  0.00     0.280 HD
ATOM     16  H21 UNL     1      -0.477 -11.624  11.990  1.00  0.00     0.280 HD
HETATM   17  C6  UNL     1      -2.252 -13.217  12.992  1.00  0.00     0.042 C 
HETATM   18  C7  UNL     1      -3.266 -12.658  10.879  1.00  0.00     0.158 C 
BRANCH  12  19
HETATM   19  C3  UNL     1      -1.372  -9.527  10.775  1.00  0.00     0.150 A 
HETATM   20  N1  UNL     1      -1.059  -8.977   9.601  1.00  0.00    -0.330 N 
HETATM   21  C2  UNL     1      -0.248  -7.924   9.750  1.00  0.00     0.093 A 
ATOM     22  H1  UNL     1      -1.397  -9.318   8.701  1.00  0.00     0.168 HD
HETATM   23  C1  UNL     1       0.308  -7.101   8.643  1.00  0.00     0.090 C 
HETATM   24  N8  UNL     1      -0.052  -7.812  11.065  1.00  0.00    -0.286 N 
HETATM   25  N7  UNL     1      -0.723  -8.773  11.683  1.00  0.00    -0.280 N 
ATOM     26  H8  UNL     1       0.521  -7.102  11.520  1.00  0.00     0.188 HD
HETATM   27  C16 UNL     1      -0.686  -8.934  13.140  1.00  0.00     0.179 C 
ENDBRANCH  12  19
ENDBRANCH   1  11
BRANCH   3  28
HETATM   28  O1  UNL     1      -1.679 -11.646   7.974  1.00  0.00    -0.362 OA
ATOM     29  H1  UNL     1      -1.040 -11.044   7.609  1.00  0.00     0.217 HD
ENDBRANCH   3  28
BRANCH   3  30
HETATM   30  C11 UNL     1      -2.874 -13.091   6.645  1.00  0.00     0.036 C 
HETATM   31  C12 UNL     1      -1.783 -13.490   5.758  1.00  0.00     0.016 C 
HETATM   32  C13 UNL     1      -2.931 -14.191   7.759  1.00  0.00     0.016 C 
ENDBRANCH   3  30
BRANCH   6  33
HETATM   33  N5  UNL     1      -7.355 -10.605   6.888  1.00  0.00    -0.234 N 
ATOM     34  H52 UNL     1      -8.110 -11.290   6.891  1.00  0.00     0.174 HD
ATOM     35  H51 UNL     1      -7.383  -9.836   6.218  1.00  0.00     0.174 HD
ENDBRANCH   6  33
TORSDOF 5
ENDMDL
MODEL 5
REMARK VINA RESULT: -6.686556080      1.566      3.241
REMARK  5 active torsions:
REMARK  status: ('A' for Active; 'I' for Inactive)
REMARK    1  A    between atoms: C3_5  and  C4_6 
REMARK    2  A    between atoms: N3_13  and  C8_14 
REMARK    3  A    between atoms: C10_16  and  O1_17 
REMARK    4  A    between atoms: C10_16  and  C11_19 
REMARK    5  A    between atoms: C14_24  and  N5_25 
ROOT
HETATM    1  C8  UNL     1      -2.822 -12.374   9.617  1.00  0.00     0.131 A 
HETATM    2  C9  UNL     1      -2.548 -12.093  10.904  1.00  0.00     0.110 A 
HETATM    3  C10 UNL     1      -2.111 -10.831  11.447  1.00  0.00     0.076 C 
HETATM    4  N4  UNL     1      -2.497 -13.155  11.785  1.00  0.00    -0.187 N 
ATOM      5  H4  UNL     1      -2.293 -12.953  12.764  1.00  0.00     0.184 HD
HETATM    6  C14 UNL     1      -2.698 -14.425  11.440  1.00  0.00     0.679 A 
HETATM    7  N6  UNL     1      -2.967 -14.719  10.169  1.00  0.00    -0.154 N 
ATOM      8  H6  UNL     1      -3.123 -15.687   9.889  1.00  0.00     0.187 HD
HETATM    9  C15 UNL     1      -3.034 -13.726   9.250  1.00  0.00     0.288 A 
HETATM   10  O2  UNL     1      -3.292 -14.075   8.077  1.00  0.00    -0.265 OA
ENDROOT
BRANCH   1  11
HETATM   11  N3  UNL     1      -3.050 -11.410   8.616  1.00  0.00    -0.339 N 
HETATM   12  C4  UNL     1      -3.959 -10.569   8.023  1.00  0.00     0.357 C 
HETATM   13  N2  UNL     1      -3.616 -10.526   6.575  1.00  0.00    -0.042 N 
HETATM   14  C5  UNL     1      -2.195 -10.526   6.544  1.00  0.00     0.202 C 
ATOM     15  H22 UNL     1      -4.044 -11.270   6.024  1.00  0.00     0.280 HD
ATOM     16  H21 UNL     1      -4.042  -9.750   6.069  1.00  0.00     0.280 HD
HETATM   17  C6  UNL     1      -1.572  -9.124   6.519  1.00  0.00     0.042 C 
HETATM   18  C7  UNL     1      -1.785 -11.144   7.815  1.00  0.00     0.158 C 
BRANCH  12  19
HETATM   19  C3  UNL     1      -5.396 -10.607   8.096  1.00  0.00     0.150 A 
HETATM   20  N1  UNL     1      -6.284 -11.015   7.189  1.00  0.00    -0.330 N 
HETATM   21  C2  UNL     1      -7.540 -10.816   7.605  1.00  0.00     0.093 A 
ATOM     22  H1  UNL     1      -6.037 -11.428   6.290  1.00  0.00     0.168 HD
HETATM   23  C1  UNL     1      -8.767 -11.137   6.828  1.00  0.00     0.090 C 
HETATM   24  N8  UNL     1      -7.428 -10.268   8.816  1.00  0.00    -0.286 N 
HETATM   25  N7  UNL     1      -6.144 -10.139   9.113  1.00  0.00    -0.280 N 
ATOM     26  H8  UNL     1      -8.206  -9.994   9.416  1.00  0.00     0.188 HD
HETATM   27  C16 UNL     1      -5.693  -9.541  10.373  1.00  0.00     0.179 C 
ENDBRANCH  12  19
ENDBRANCH   1  11
BRANCH   3  28
HETATM   28  O1  UNL     1      -1.791  -9.815  10.607  1.00  0.00    -0.362 OA
ATOM     29  H1  UNL     1      -1.782  -9.968   9.668  1.00  0.00     0.217 HD
ENDBRANCH   3  28
BRANCH   3  30
HETATM   30  C11 UNL     1      -2.862 -10.238  12.596  1.00  0.00     0.036 C 
HETATM   31  C12 UNL     1      -3.997 -10.908  13.230  1.00  0.00     0.016 C 
HETATM   32  C13 UNL     1      -1.801 -10.045  13.732  1.00  0.00     0.016 C 
ENDBRANCH   3  30
BRANCH   6  33
HETATM   33  N5  UNL     1      -2.646 -15.357  12.350  1.00  0.00    -0.234 N 
ATOM     34  H52 UNL     1      -2.992 -15.191  13.295  1.00  0.00     0.174 HD
ATOM     35  H51 UNL     1      -2.240 -16.265  12.121  1.00  0.00     0.174 HD
ENDBRANCH   6  33
TORSDOF 5
ENDMDL
