MODEL 1
REMARK VINA RESULT: -7.794491203      0.000      0.000
REMARK  6 active torsions:
REMARK  status: ('A' for Active; 'I' for Inactive)
REMARK    1  A    between atoms: N1_1  and  C1_4 
REMARK    2  A    between atoms: C7_14  and  C8_15 
REMARK    3  A    between atoms: C8_15  and  N4_16 
REMARK    4  A    between atoms: N7_28  and  C13_29 
REMARK    5  A    between atoms: C13_29  and  C14_30 
REMARK    6  A    between atoms: C14_30  and  C15_31 
ROOT
HETATM    1  C1  UNL     1      -0.564 -10.746   9.895  1.00  0.00     0.111 A 
HETATM    2  N2  UNL     1       0.055  -9.841   9.119  1.00  0.00    -0.338 N 
ATOM      3  H2  UNL     1       1.036  -9.613   9.273  1.00  0.00     0.168 HD
HETATM    4  C2  UNL     1      -0.645  -9.235   8.125  1.00  0.00     0.183 A 
HETATM    5  N3  UNL     1      -1.915  -9.532   7.924  1.00  0.00    -0.338 N 
ATOM      6  H3  UNL     1      -2.406  -9.056   7.167  1.00  0.00     0.168 HD
HETATM    7  C3  UNL     1      -2.595 -10.420   8.653  1.00  0.00     0.119 A 
HETATM    8  C4  UNL     1      -1.894 -11.066   9.695  1.00  0.00     0.046 A 
HETATM    9  C5  UNL     1      -2.811 -11.985  10.368  1.00  0.00     0.056 C 
HETATM   10  C6  UNL     1      -2.245 -13.289  10.806  1.00  0.00     0.034 C 
HETATM   11  C7  UNL     1      -2.320 -13.355  12.310  1.00  0.00     0.049 C 
HETATM   12  C9  UNL     1      -3.130 -12.198  12.687  1.00  0.00    -0.010 A 
HETATM   13  C10 UNL     1      -3.745 -11.558  13.744  1.00  0.00     0.116 A 
HETATM   14  N5  UNL     1      -4.345 -10.465  13.251  1.00  0.00    -0.311 N 
ATOM     15  H5  UNL     1      -4.879  -9.801  13.813  1.00  0.00     0.186 HD
HETATM   16  N6  UNL     1      -4.160 -10.356  11.966  1.00  0.00    -0.303 N 
ATOM     17  H6  UNL     1      -4.512  -9.614  11.361  1.00  0.00     0.186 HD
HETATM   18  C11 UNL     1      -3.411 -11.416  11.588  1.00  0.00     0.049 A 
HETATM   19  C12 UNL     1      -3.887 -12.205   9.293  1.00  0.00     0.150 C 
HETATM   20  N7  UNL     1      -3.941 -10.866   8.642  1.00  0.00    -0.345 N 
ENDROOT
BRANCH   1  21
HETATM   21  N1  UNL     1       0.072 -11.332  10.849  1.00  0.00    -0.385 N 
ATOM     22  H12 UNL     1       0.965 -11.776  10.637  1.00  0.00     0.157 HD
ATOM     23  H11 UNL     1      -0.315 -11.352  11.792  1.00  0.00     0.157 HD
ENDBRANCH   1  21
BRANCH  11  24
HETATM   24  C8  UNL     1      -2.886 -14.665  12.798  1.00  0.00     0.239 C 
BRANCH  24  25
HETATM   25  N4  UNL     1      -2.614 -14.956  14.158  1.00  0.00    -0.079 N 
ATOM     26  H43 UNL     1      -1.615 -15.114  14.292  1.00  0.00     0.274 HD
ATOM     27  H42 UNL     1      -2.739 -14.122  14.731  1.00  0.00     0.274 HD
ATOM     28  H41 UNL     1      -3.151 -15.733  14.542  1.00  0.00     0.274 HD
ENDBRANCH  24  25
ENDBRANCH  11  24
BRANCH  20  29
HETATM   29  C13 UNL     1      -5.152 -10.243   8.247  1.00  0.00     0.073 C 
BRANCH  29  30
HETATM   30  C14 UNL     1      -6.411 -10.433   8.959  1.00  0.00     0.124 C 
BRANCH  30  31
HETATM   31  C15 UNL     1      -7.478 -11.115   8.209  1.00  0.00     0.117 A 
HETATM   32  N8  UNL     1      -7.543 -11.058   6.843  1.00  0.00    -0.272 N 
HETATM   33  N9  UNL     1      -8.577 -11.779   6.461  1.00  0.00    -0.227 N 
ATOM     34  H8  UNL     1      -6.905 -10.550   6.231  1.00  0.00     0.190 HD
HETATM   35  N10 UNL     1      -9.178 -12.293   7.511  1.00  0.00    -0.227 N 
ATOM     36  H9  UNL     1      -8.869 -11.917   5.494  1.00  0.00     0.210 HD
HETATM   37  N11 UNL     1      -8.485 -11.870   8.553  1.00  0.00    -0.272 N 
ATOM     38  H10 UNL     1     -10.004 -12.891   7.520  1.00  0.00     0.210 HD
ATOM     39  H11 UNL     1      -8.712 -12.108   9.519  1.00  0.00     0.190 HD
ENDBRANCH  30  31
ENDBRANCH  29  30
ENDBRANCH  20  29
TORSDOF 6
ENDMDL
MODEL 2
REMARK VINA RESULT: -7.723844322      1.812      3.178
REMARK  6 active torsions:
REMARK  status: ('A' for Active; 'I' for Inactive)
REMARK    1  A    between atoms: N1_1  and  C1_4 
REMARK    2  A    between atoms: C7_14  and  C8_15 
REMARK    3  A    between atoms: C8_15  and  N4_16 
REMARK    4  A    between atoms: N7_28  and  C13_29 
REMARK    5  A    between atoms: C13_29  and  C14_30 
REMARK    6  A    between atoms: C14_30  and  C15_31 
ROOT
HETATM    1  C1  UNL     1      -1.875 -13.385  10.178  1.00  0.00     0.111 A 
HETATM    2  N2  UNL     1      -2.078 -14.304   9.221  1.00  0.00    -0.338 N 
ATOM      3  H2  UNL     1      -1.442 -15.094   9.120  1.00  0.00     0.168 HD
HETATM    4  C2  UNL     1      -3.143 -14.167   8.389  1.00  0.00     0.183 A 
HETATM    5  N3  UNL     1      -3.967 -13.145   8.521  1.00  0.00    -0.338 N 
ATOM      6  H3  UNL     1      -4.756 -13.077   7.877  1.00  0.00     0.168 HD
HETATM    7  C3  UNL     1      -3.830 -12.194   9.448  1.00  0.00     0.119 A 
HETATM    8  C4  UNL     1      -2.731 -12.310  10.328  1.00  0.00     0.046 A 
HETATM    9  C5  UNL     1      -2.758 -11.177  11.252  1.00  0.00     0.056 C 
HETATM   10  C6  UNL     1      -2.372 -11.458  12.661  1.00  0.00     0.034 C 
HETATM   11  C7  UNL     1      -1.123 -10.673  12.973  1.00  0.00     0.049 C 
HETATM   12  C9  UNL     1      -0.949  -9.789  11.822  1.00  0.00    -0.010 A 
HETATM   13  C10 UNL     1      -0.199  -8.748  11.313  1.00  0.00     0.116 A 
HETATM   14  N5  UNL     1      -0.690  -8.462  10.098  1.00  0.00    -0.311 N 
ATOM     15  H5  UNL     1      -0.324  -7.729   9.490  1.00  0.00     0.186 HD
HETATM   16  N6  UNL     1      -1.691  -9.239   9.792  1.00  0.00    -0.303 N 
ATOM     17  H6  UNL     1      -2.231  -9.222   8.927  1.00  0.00     0.186 HD
HETATM   18  C11 UNL     1      -1.875 -10.071  10.841  1.00  0.00     0.049 A 
HETATM   19  C12 UNL     1      -4.231 -10.743  11.179  1.00  0.00     0.150 C 
HETATM   20  N7  UNL     1      -4.555 -11.013   9.751  1.00  0.00    -0.345 N 
ENDROOT
BRANCH   1  21
HETATM   21  N1  UNL     1      -0.870 -13.485  10.978  1.00  0.00    -0.385 N 
ATOM     22  H12 UNL     1      -1.018 -13.906  11.895  1.00  0.00     0.157 HD
ATOM     23  H11 UNL     1       0.049 -13.147  10.696  1.00  0.00     0.157 HD
ENDBRANCH   1  21
BRANCH  11  24
HETATM   24  C8  UNL     1      -1.223  -9.935  14.284  1.00  0.00     0.239 C 
BRANCH  24  25
HETATM   25  N4  UNL     1      -1.880 -10.649  15.316  1.00  0.00    -0.079 N 
ATOM     26  H43 UNL     1      -2.674 -10.113  15.666  1.00  0.00     0.274 HD
ATOM     27  H42 UNL     1      -2.368 -11.458  14.932  1.00  0.00     0.274 HD
ATOM     28  H41 UNL     1      -1.277 -10.934  16.087  1.00  0.00     0.274 HD
ENDBRANCH  24  25
ENDBRANCH  11  24
BRANCH  20  29
HETATM   29  C13 UNL     1      -5.339 -10.141   8.953  1.00  0.00     0.073 C 
BRANCH  29  30
HETATM   30  C14 UNL     1      -6.789 -10.048   9.071  1.00  0.00     0.124 C 
BRANCH  30  31
HETATM   31  C15 UNL     1      -7.566 -10.883   8.140  1.00  0.00     0.117 A 
HETATM   32  N8  UNL     1      -8.474 -11.802   8.589  1.00  0.00    -0.272 N 
HETATM   33  N9  UNL     1      -9.025 -12.368   7.535  1.00  0.00    -0.227 N 
ATOM     34  H8  UNL     1      -8.686 -12.012   9.564  1.00  0.00     0.190 HD
HETATM   35  N10 UNL     1      -8.516 -11.859   6.435  1.00  0.00    -0.227 N 
ATOM     36  H9  UNL     1      -9.741 -13.095   7.568  1.00  0.00     0.210 HD
HETATM   37  N11 UNL     1      -7.635 -10.962   6.839  1.00  0.00    -0.272 N 
ATOM     38  H10 UNL     1      -8.752 -12.105   5.474  1.00  0.00     0.210 HD
ATOM     39  H11 UNL     1      -7.073 -10.394   6.206  1.00  0.00     0.190 HD
ENDBRANCH  30  31
ENDBRANCH  29  30
ENDBRANCH  20  29
TORSDOF 6
ENDMDL
MODEL 3
REMARK VINA RESULT: -7.625877390      2.163      4.180
REMARK  6 active torsions:
REMARK  status: ('A' for Active; 'I' for Inactive)
REMARK    1  A    between atoms: N1_1  and  C1_4 
REMARK    2  A    between atoms: C7_14  and  C8_15 
REMARK    3  A    between atoms: C8_15  and  N4_16 
REMARK    4  A    between atoms: N7_28  and  C13_29 
REMARK    5  A    between atoms: C13_29  and  C14_30 
REMARK    6  A    between atoms: C14_30  and  C15_31 
ROOT
HETATM    1  C1  UNL     1      -1.979 -10.515  11.058  1.00  0.00     0.111 A 
HETATM    2  N2  UNL     1      -2.256 -10.114  12.309  1.00  0.00    -0.338 N 
ATOM      3  H2  UNL     1      -1.524 -10.094  13.019  1.00  0.00     0.168 HD
HETATM    4  C2  UNL     1      -3.524  -9.736  12.616  1.00  0.00     0.183 A 
HETATM    5  N3  UNL     1      -4.470  -9.762  11.697  1.00  0.00    -0.338 N 
ATOM      6  H3  UNL     1      -5.410  -9.470  11.967  1.00  0.00     0.168 HD
HETATM    7  C3  UNL     1      -4.270 -10.146  10.435  1.00  0.00     0.119 A 
HETATM    8  C4  UNL     1      -2.961 -10.545  10.086  1.00  0.00     0.046 A 
HETATM    9  C5  UNL     1      -2.957 -10.930   8.675  1.00  0.00     0.056 C 
HETATM   10  C6  UNL     1      -1.756 -10.549   7.885  1.00  0.00     0.034 C 
HETATM   11  C7  UNL     1      -1.075 -11.812   7.422  1.00  0.00     0.049 C 
HETATM   12  C9  UNL     1      -2.016 -12.879   7.758  1.00  0.00    -0.010 A 
HETATM   13  C10 UNL     1      -2.265 -14.232   7.638  1.00  0.00     0.116 A 
HETATM   14  N5  UNL     1      -3.428 -14.478   8.259  1.00  0.00    -0.311 N 
ATOM     15  H5  UNL     1      -3.858 -15.401   8.327  1.00  0.00     0.186 HD
HETATM   16  N6  UNL     1      -3.939 -13.391   8.765  1.00  0.00    -0.303 N 
ATOM     17  H6  UNL     1      -4.813 -13.315   9.284  1.00  0.00     0.186 HD
HETATM   18  C11 UNL     1      -3.087 -12.384   8.470  1.00  0.00     0.049 A 
HETATM   19  C12 UNL     1      -4.200 -10.200   8.142  1.00  0.00     0.150 C 
HETATM   20  N7  UNL     1      -5.122 -10.283   9.309  1.00  0.00    -0.345 N 
ENDROOT
BRANCH   1  21
HETATM   21  N1  UNL     1      -0.788 -10.884  10.739  1.00  0.00    -0.385 N 
ATOM     22  H12 UNL     1      -0.659 -11.808  10.326  1.00  0.00     0.157 HD
ATOM     23  H11 UNL     1       0.006 -10.265  10.901  1.00  0.00     0.157 HD
ENDBRANCH   1  21
BRANCH  11  24
HETATM   24  C8  UNL     1      -0.720 -11.768   5.957  1.00  0.00     0.239 C 
BRANCH  24  25
HETATM   25  N4  UNL     1       0.176 -10.731   5.597  1.00  0.00    -0.079 N 
ATOM     26  H43 UNL     1      -0.306  -9.832   5.597  1.00  0.00     0.274 HD
ATOM     27  H42 UNL     1       0.850 -10.570   6.344  1.00  0.00     0.274 HD
ATOM     28  H41 UNL     1       0.658 -10.875   4.710  1.00  0.00     0.274 HD
ENDBRANCH  24  25
ENDBRANCH  11  24
BRANCH  20  29
HETATM   29  C13 UNL     1      -6.508 -10.555   9.186  1.00  0.00     0.073 C 
BRANCH  29  30
HETATM   30  C14 UNL     1      -7.423  -9.688   8.452  1.00  0.00     0.124 C 
BRANCH  30  31
HETATM   31  C15 UNL     1      -8.288 -10.355   7.464  1.00  0.00     0.117 A 
HETATM   32  N8  UNL     1      -7.940 -11.550   6.896  1.00  0.00    -0.272 N 
HETATM   33  N9  UNL     1      -8.913 -11.906   6.084  1.00  0.00    -0.227 N 
ATOM     34  H8  UNL     1      -7.081 -12.071   7.071  1.00  0.00     0.190 HD
HETATM   35  N10 UNL     1      -9.866 -11.001   6.102  1.00  0.00    -0.227 N 
ATOM     36  H9  UNL     1      -8.925 -12.758   5.523  1.00  0.00     0.210 HD
HETATM   37  N11 UNL     1      -9.454 -10.075   6.949  1.00  0.00    -0.272 N 
ATOM     38  H10 UNL     1     -10.738 -11.011   5.573  1.00  0.00     0.210 HD
ATOM     39  H11 UNL     1      -9.988  -9.236   7.175  1.00  0.00     0.190 HD
ENDBRANCH  30  31
ENDBRANCH  29  30
ENDBRANCH  20  29
TORSDOF 6
ENDMDL
MODEL 4
REMARK VINA RESULT: -7.619605123      1.607      4.062
REMARK  6 active torsions:
REMARK  status: ('A' for Active; 'I' for Inactive)
REMARK    1  A    between atoms: N1_1  and  C1_4 
REMARK    2  A    between atoms: C7_14  and  C8_15 
REMARK    3  A    between atoms: C8_15  and  N4_16 
REMARK    4  A    between atoms: N7_28  and  C13_29 
REMARK    5  A    between atoms: C13_29  and  C14_30 
REMARK    6  A    between atoms: C14_30  and  C15_31 
ROOT
HETATM    1  C1  UNL     1      -1.957 -11.797  12.405  1.00  0.00     0.111 A 
HETATM    2  N2  UNL     1      -2.394 -11.752  13.674  1.00  0.00    -0.338 N 
ATOM      3  H2  UNL     1      -1.821 -12.122  14.432  1.00  0.00     0.168 HD
HETATM    4  C2  UNL     1      -3.610 -11.205  13.934  1.00  0.00     0.183 A 
HETATM    5  N3  UNL     1      -4.350 -10.724  12.953  1.00  0.00    -0.338 N 
ATOM      6  H3  UNL     1      -5.258 -10.321  13.189  1.00  0.00     0.168 HD
HETATM    7  C3  UNL     1      -3.982 -10.734  11.670  1.00  0.00     0.119 A 
HETATM    8  C4  UNL     1      -2.722 -11.296  11.369  1.00  0.00     0.046 A 
HETATM    9  C5  UNL     1      -2.515 -11.215   9.924  1.00  0.00     0.056 C 
HETATM   10  C6  UNL     1      -1.136 -10.897   9.466  1.00  0.00     0.034 C 
HETATM   11  C7  UNL     1      -0.614 -12.076   8.684  1.00  0.00     0.049 C 
HETATM   12  C9  UNL     1      -1.776 -12.946   8.515  1.00  0.00    -0.010 A 
HETATM   13  C10 UNL     1      -2.233 -14.098   7.908  1.00  0.00     0.116 A 
HETATM   14  N5  UNL     1      -3.519 -14.249   8.259  1.00  0.00    -0.311 N 
ATOM     15  H5  UNL     1      -4.111 -15.021   7.952  1.00  0.00     0.186 HD
HETATM   16  N6  UNL     1      -3.917 -13.285   9.041  1.00  0.00    -0.303 N 
ATOM     17  H6  UNL     1      -4.847 -13.173   9.443  1.00  0.00     0.186 HD
HETATM   18  C11 UNL     1      -2.859 -12.462   9.217  1.00  0.00     0.049 A 
HETATM   19  C12 UNL     1      -3.482 -10.089   9.526  1.00  0.00     0.150 C 
HETATM   20  N7  UNL     1      -4.611 -10.314  10.470  1.00  0.00    -0.345 N 
ENDROOT
BRANCH   1  21
HETATM   21  N1  UNL     1      -0.811 -12.315  12.127  1.00  0.00    -0.385 N 
ATOM     22  H12 UNL     1      -0.735 -12.919  11.309  1.00  0.00     0.157 HD
ATOM     23  H11 UNL     1      -0.002 -12.126  12.718  1.00  0.00     0.157 HD
ENDBRANCH   1  21
BRANCH  11  24
HETATM   24  C8  UNL     1       0.019 -11.663   7.379  1.00  0.00     0.239 C 
BRANCH  24  25
HETATM   25  N4  UNL     1      -0.850 -10.986   6.489  1.00  0.00    -0.079 N 
ATOM     26  H43 UNL     1      -0.316 -10.546   5.739  1.00  0.00     0.274 HD
ATOM     27  H42 UNL     1      -1.395 -11.656   5.947  1.00  0.00     0.274 HD
ATOM     28  H41 UNL     1      -1.467 -10.305   6.932  1.00  0.00     0.274 HD
ENDBRANCH  24  25
ENDBRANCH  11  24
BRANCH  20  29
HETATM   29  C13 UNL     1      -5.974 -10.205  10.092  1.00  0.00     0.073 C 
BRANCH  29  30
HETATM   30  C14 UNL     1      -6.397  -9.923   8.726  1.00  0.00     0.124 C 
BRANCH  30  31
HETATM   31  C15 UNL     1      -7.410 -10.832   8.164  1.00  0.00     0.117 A 
HETATM   32  N8  UNL     1      -7.586 -10.962   6.814  1.00  0.00    -0.272 N 
HETATM   33  N9  UNL     1      -8.532 -11.857   6.618  1.00  0.00    -0.227 N 
ATOM     34  H8  UNL     1      -7.077 -10.456   6.089  1.00  0.00     0.190 HD
HETATM   35  N10 UNL     1      -8.970 -12.307   7.772  1.00  0.00    -0.227 N 
ATOM     36  H9  UNL     1      -8.874 -12.157   5.704  1.00  0.00     0.210 HD
HETATM   37  N11 UNL     1      -8.268 -11.664   8.688  1.00  0.00    -0.272 N 
ATOM     38  H10 UNL     1      -9.698 -13.004   7.928  1.00  0.00     0.210 HD
ATOM     39  H11 UNL     1      -8.383 -11.802   9.692  1.00  0.00     0.190 HD
ENDBRANCH  30  31
ENDBRANCH  29  30
ENDBRANCH  20  29
TORSDOF 6
ENDMDL
MODEL 5
REMARK VINA RESULT: -7.492598301      1.835      3.922
REMARK  6 active torsions:
REMARK  status: ('A' for Active; 'I' for Inactive)
REMARK    1  A    between atoms: N1_1  and  C1_4 
REMARK    2  A    between atoms: C7_14  and  C8_15 
REMARK    3  A    between atoms: C8_15  and  N4_16 
REMARK    4  A    between atoms: N7_28  and  C13_29 
REMARK    5  A    between atoms: C13_29  and  C14_30 
REMARK    6  A    between atoms: C14_30  and  C15_31 
ROOT
HETATM    1  C1  UNL     1      -2.076 -11.334  11.859  1.00  0.00     0.111 A 
HETATM    2  N2  UNL     1      -2.656 -10.879  12.982  1.00  0.00    -0.338 N 
ATOM      3  H2  UNL     1      -2.259 -11.100  13.895  1.00  0.00     0.168 HD
HETATM    4  C2  UNL     1      -3.779 -10.121  12.885  1.00  0.00     0.183 A 
HETATM    5  N3  UNL     1      -4.291  -9.834  11.704  1.00  0.00    -0.338 N 
ATOM      6  H3  UNL     1      -5.135  -9.261  11.672  1.00  0.00     0.168 HD
HETATM    7  C3  UNL     1      -3.770 -10.248  10.547  1.00  0.00     0.119 A 
HETATM    8  C4  UNL     1      -2.603 -11.039  10.616  1.00  0.00     0.046 A 
HETATM    9  C5  UNL     1      -2.202 -11.391   9.254  1.00  0.00     0.056 C 
HETATM   10  C6  UNL     1      -0.742 -11.403   8.972  1.00  0.00     0.034 C 
HETATM   11  C7  UNL     1      -0.342 -12.812   8.614  1.00  0.00     0.049 C 
HETATM   12  C9  UNL     1      -1.609 -13.528   8.475  1.00  0.00    -0.010 A 
HETATM   13  C10 UNL     1      -2.182 -14.729   8.111  1.00  0.00     0.116 A 
HETATM   14  N5  UNL     1      -3.508 -14.599   8.264  1.00  0.00    -0.311 N 
ATOM     15  H5  UNL     1      -4.184 -15.338   8.067  1.00  0.00     0.186 HD
HETATM   16  N6  UNL     1      -3.825 -13.412   8.698  1.00  0.00    -0.303 N 
ATOM     17  H6  UNL     1      -4.765 -13.066   8.895  1.00  0.00     0.186 HD
HETATM   18  C11 UNL     1      -2.669 -12.725   8.838  1.00  0.00     0.049 A 
HETATM   19  C12 UNL     1      -2.895 -10.297   8.426  1.00  0.00     0.150 C 
HETATM   20  N7  UNL     1      -4.158 -10.095   9.191  1.00  0.00    -0.345 N 
ENDROOT
BRANCH   1  21
HETATM   21  N1  UNL     1      -1.015 -12.060  11.921  1.00  0.00    -0.385 N 
ATOM     22  H12 UNL     1      -0.427 -12.134  11.091  1.00  0.00     0.157 HD
ATOM     23  H11 UNL     1      -0.774 -12.552  12.781  1.00  0.00     0.157 HD
ENDBRANCH   1  21
BRANCH  11  24
HETATM   24  C8  UNL     1       0.514 -12.868   7.375  1.00  0.00     0.239 C 
BRANCH  24  25
HETATM   25  N4  UNL     1      -0.067 -12.275   6.227  1.00  0.00    -0.079 N 
ATOM     26  H43 UNL     1       0.617 -11.693   5.744  1.00  0.00     0.274 HD
ATOM     27  H42 UNL     1      -0.236 -12.981   5.511  1.00  0.00     0.274 HD
ATOM     28  H41 UNL     1      -0.919 -11.744   6.408  1.00  0.00     0.274 HD
ENDBRANCH  24  25
ENDBRANCH  11  24
BRANCH  20  29
HETATM   29  C13 UNL     1      -5.420  -9.910   8.571  1.00  0.00     0.073 C 
BRANCH  29  30
HETATM   30  C14 UNL     1      -6.656 -10.463   9.112  1.00  0.00     0.124 C 
BRANCH  30  31
HETATM   31  C15 UNL     1      -7.550 -11.112   8.139  1.00  0.00     0.117 A 
HETATM   32  N8  UNL     1      -8.568 -11.935   8.538  1.00  0.00    -0.272 N 
HETATM   33  N9  UNL     1      -9.203 -12.339   7.458  1.00  0.00    -0.227 N 
ATOM     34  H8  UNL     1      -8.793 -12.190   9.499  1.00  0.00     0.190 HD
HETATM   35  N10 UNL     1      -8.646 -11.818   6.388  1.00  0.00    -0.227 N 
ATOM     36  H9  UNL     1     -10.010 -12.964   7.453  1.00  0.00     0.210 HD
HETATM   37  N11 UNL     1      -7.647 -11.080   6.838  1.00  0.00    -0.272 N 
ATOM     38  H10 UNL     1      -8.925 -11.954   5.417  1.00  0.00     0.210 HD
ATOM     39  H11 UNL     1      -7.022 -10.544   6.236  1.00  0.00     0.190 HD
ENDBRANCH  30  31
ENDBRANCH  29  30
ENDBRANCH  20  29
TORSDOF 6
ENDMDL
