MODEL 1
REMARK VINA RESULT: -4.216188851      0.000      0.000
REMARK  4 active torsions:
REMARK  status: ('A' for Active; 'I' for Inactive)
REMARK    1  A    between atoms: C2_2  and  C3_3 
REMARK    2  A    between atoms: C3_3  and  N1_4 
REMARK    3  A    between atoms: N1_4  and  C4_7 
REMARK    4  A    between atoms: C4_7  and  C5_8 
ROOT
HETATM    1  C5  UNL     1      17.683  45.073  76.086  1.00  0.00     0.238 C 
HETATM    2  C6  UNL     1      16.514  45.130  75.168  1.00  0.00     0.269 C 
HETATM    3  N2  UNL     1      16.724  44.195  74.101  1.00  0.00    -0.049 N 
ATOM      4  H21 UNL     1      16.797  44.632  73.183  1.00  0.00     0.279 HD
ATOM      5  H22 UNL     1      15.908  43.618  73.896  1.00  0.00     0.279 HD
HETATM    6  C7  UNL     1      17.893  43.431  74.472  1.00  0.00     0.463 C 
HETATM    7  N3  UNL     1      18.658  44.283  75.363  1.00  0.00    -0.044 N 
ATOM      8  H31 UNL     1      19.299  43.769  75.969  1.00  0.00     0.279 HD
ATOM      9  H32 UNL     1      19.365  44.843  74.886  1.00  0.00     0.279 HD
ENDROOT
BRANCH   1  10
HETATM   10  C4  UNL     1      18.206  46.439  76.449  1.00  0.00     0.267 C 
BRANCH  10  11
HETATM   11  N1  UNL     1      18.955  46.993  75.358  1.00  0.00    -0.070 N 
ATOM     12  H12 UNL     1      18.480  46.815  74.474  1.00  0.00     0.277 HD
ATOM     13  H11 UNL     1      19.811  46.459  75.207  1.00  0.00     0.277 HD
BRANCH  11  14
HETATM   14  C3  UNL     1      19.253  48.384  75.492  1.00  0.00     0.259 C 
BRANCH  14  15
HETATM   15  C2  UNL     1      20.667  48.712  75.157  1.00  0.00    -0.010 C 
HETATM   16  C1  UNL     1      20.899  49.239  73.943  1.00  0.00     0.008 C 
ENDBRANCH  14  15
ENDBRANCH  11  14
ENDBRANCH  10  11
ENDBRANCH   1  10
TORSDOF 4
ENDMDL
MODEL 2
REMARK VINA RESULT: -4.180131794      1.211      1.738
REMARK  4 active torsions:
REMARK  status: ('A' for Active; 'I' for Inactive)
REMARK    1  A    between atoms: C2_2  and  C3_3 
REMARK    2  A    between atoms: C3_3  and  N1_4 
REMARK    3  A    between atoms: N1_4  and  C4_7 
REMARK    4  A    between atoms: C4_7  and  C5_8 
ROOT
HETATM    1  C5  UNL     1      18.353  46.074  75.212  1.00  0.00     0.238 C 
HETATM    2  C6  UNL     1      18.463  45.139  76.365  1.00  0.00     0.269 C 
HETATM    3  N2  UNL     1      17.392  44.188  76.287  1.00  0.00    -0.049 N 
ATOM      4  H21 UNL     1      16.742  44.240  77.071  1.00  0.00     0.279 HD
ATOM      5  H22 UNL     1      17.690  43.225  76.440  1.00  0.00     0.279 HD
HETATM    6  C7  UNL     1      16.768  44.404  75.002  1.00  0.00     0.463 C 
HETATM    7  N3  UNL     1      17.051  45.782  74.648  1.00  0.00    -0.044 N 
ATOM      8  H31 UNL     1      16.988  45.968  73.647  1.00  0.00     0.279 HD
ATOM      9  H32 UNL     1      16.324  46.436  74.939  1.00  0.00     0.279 HD
ENDROOT
BRANCH   1  10
HETATM   10  C4  UNL     1      18.492  47.519  75.619  1.00  0.00     0.267 C 
BRANCH  10  11
HETATM   11  N1  UNL     1      19.865  47.928  75.548  1.00  0.00    -0.070 N 
ATOM     12  H12 UNL     1      20.415  47.240  75.034  1.00  0.00     0.277 HD
ATOM     13  H11 UNL     1      20.306  47.854  76.465  1.00  0.00     0.277 HD
BRANCH  11  14
HETATM   14  C3  UNL     1      20.065  49.233  75.003  1.00  0.00     0.259 C 
BRANCH  14  15
HETATM   15  C2  UNL     1      21.136  49.274  73.968  1.00  0.00    -0.010 C 
HETATM   16  C1  UNL     1      22.396  49.069  74.386  1.00  0.00     0.008 C 
ENDBRANCH  14  15
ENDBRANCH  11  14
ENDBRANCH  10  11
ENDBRANCH   1  10
TORSDOF 4
ENDMDL
MODEL 3
REMARK VINA RESULT: -4.150100124      1.577      2.052
REMARK  4 active torsions:
REMARK  status: ('A' for Active; 'I' for Inactive)
REMARK    1  A    between atoms: C2_2  and  C3_3 
REMARK    2  A    between atoms: C3_3  and  N1_4 
REMARK    3  A    between atoms: N1_4  and  C4_7 
REMARK    4  A    between atoms: C4_7  and  C5_8 
ROOT
HETATM    1  C5  UNL     1      18.405  46.161  75.221  1.00  0.00     0.238 C 
HETATM    2  C6  UNL     1      18.518  45.166  76.321  1.00  0.00     0.269 C 
HETATM    3  N2  UNL     1      17.377  44.298  76.272  1.00  0.00    -0.049 N 
ATOM      4  H21 UNL     1      16.782  44.358  77.098  1.00  0.00     0.279 HD
ATOM      5  H22 UNL     1      17.612  43.310  76.363  1.00  0.00     0.279 HD
HETATM    6  C7  UNL     1      16.691  44.619  75.042  1.00  0.00     0.463 C 
HETATM    7  N3  UNL     1      17.053  45.990  74.731  1.00  0.00    -0.044 N 
ATOM      8  H31 UNL     1      16.942  46.228  73.745  1.00  0.00     0.279 HD
ATOM      9  H32 UNL     1      16.395  46.679  75.097  1.00  0.00     0.279 HD
ENDROOT
BRANCH   1  10
HETATM   10  C4  UNL     1      18.675  47.571  75.681  1.00  0.00     0.267 C 
BRANCH  10  11
HETATM   11  N1  UNL     1      19.792  48.123  74.970  1.00  0.00    -0.070 N 
ATOM     12  H12 UNL     1      19.516  48.384  74.023  1.00  0.00     0.277 HD
ATOM     13  H11 UNL     1      20.474  47.395  74.758  1.00  0.00     0.277 HD
BRANCH  11  14
HETATM   14  C3  UNL     1      20.424  49.223  75.625  1.00  0.00     0.259 C 
BRANCH  14  15
HETATM   15  C2  UNL     1      20.104  50.537  75.000  1.00  0.00    -0.010 C 
HETATM   16  C1  UNL     1      19.281  51.351  75.681  1.00  0.00     0.008 C 
ENDBRANCH  14  15
ENDBRANCH  11  14
ENDBRANCH  10  11
ENDBRANCH   1  10
TORSDOF 4
ENDMDL
MODEL 4
REMARK VINA RESULT: -4.115721326      1.091      1.130
REMARK  4 active torsions:
REMARK  status: ('A' for Active; 'I' for Inactive)
REMARK    1  A    between atoms: C2_2  and  C3_3 
REMARK    2  A    between atoms: C3_3  and  N1_4 
REMARK    3  A    between atoms: N1_4  and  C4_7 
REMARK    4  A    between atoms: C4_7  and  C5_8 
ROOT
HETATM    1  C5  UNL     1      17.757  44.325  75.536  1.00  0.00     0.238 C 
HETATM    2  C6  UNL     1      16.548  43.580  75.094  1.00  0.00     0.269 C 
HETATM    3  N2  UNL     1      16.909  42.730  73.997  1.00  0.00    -0.049 N 
ATOM      4  H21 UNL     1      16.435  42.965  73.124  1.00  0.00     0.279 HD
ATOM      5  H22 UNL     1      16.546  41.780  74.079  1.00  0.00     0.279 HD
HETATM    6  C7  UNL     1      18.349  42.793  73.908  1.00  0.00     0.463 C 
HETATM    7  N3  UNL     1      18.729  44.066  74.493  1.00  0.00    -0.044 N 
ATOM      8  H31 UNL     1      19.695  44.094  74.818  1.00  0.00     0.279 HD
ATOM      9  H32 UNL     1      18.807  44.821  73.812  1.00  0.00     0.279 HD
ENDROOT
BRANCH   1  10
HETATM   10  C4  UNL     1      17.498  45.797  75.727  1.00  0.00     0.267 C 
BRANCH  10  11
HETATM   11  N1  UNL     1      18.732  46.501  75.920  1.00  0.00    -0.070 N 
ATOM     12  H12 UNL     1      19.494  46.020  75.443  1.00  0.00     0.277 HD
ATOM     13  H11 UNL     1      19.046  46.411  76.886  1.00  0.00     0.277 HD
BRANCH  11  14
HETATM   14  C3  UNL     1      18.694  47.876  75.535  1.00  0.00     0.259 C 
BRANCH  14  15
HETATM   15  C2  UNL     1      20.045  48.440  75.255  1.00  0.00    -0.010 C 
HETATM   16  C1  UNL     1      20.149  49.779  75.215  1.00  0.00     0.008 C 
ENDBRANCH  14  15
ENDBRANCH  11  14
ENDBRANCH  10  11
ENDBRANCH   1  10
TORSDOF 4
ENDMDL
MODEL 5
REMARK VINA RESULT: -4.054014508      0.937      1.075
REMARK  4 active torsions:
REMARK  status: ('A' for Active; 'I' for Inactive)
REMARK    1  A    between atoms: C2_2  and  C3_3 
REMARK    2  A    between atoms: C3_3  and  N1_4 
REMARK    3  A    between atoms: N1_4  and  C4_7 
REMARK    4  A    between atoms: C4_7  and  C5_8 
ROOT
HETATM    1  C5  UNL     1      17.750  46.149  76.186  1.00  0.00     0.238 C 
HETATM    2  C6  UNL     1      16.403  45.750  75.697  1.00  0.00     0.269 C 
HETATM    3  N2  UNL     1      16.492  44.435  75.132  1.00  0.00    -0.049 N 
ATOM      4  H21 UNL     1      16.282  44.404  74.134  1.00  0.00     0.279 HD
ATOM      5  H22 UNL     1      15.744  43.810  75.432  1.00  0.00     0.279 HD
HETATM    6  C7  UNL     1      17.814  43.954  75.460  1.00  0.00     0.463 C 
HETATM    7  N3  UNL     1      18.634  45.138  75.642  1.00  0.00    -0.044 N 
ATOM      8  H31 UNL     1      19.467  44.975  76.208  1.00  0.00     0.279 HD
ATOM      9  H32 UNL     1      19.119  45.433  74.794  1.00  0.00     0.279 HD
ENDROOT
BRANCH   1  10
HETATM   10  C4  UNL     1      18.138  47.541  75.757  1.00  0.00     0.267 C 
BRANCH  10  11
HETATM   11  N1  UNL     1      19.514  47.576  75.356  1.00  0.00    -0.070 N 
ATOM     12  H12 UNL     1      19.634  47.110  74.456  1.00  0.00     0.277 HD
ATOM     13  H11 UNL     1      20.072  46.959  75.947  1.00  0.00     0.277 HD
BRANCH  11  14
HETATM   14  C3  UNL     1      20.086  48.884  75.320  1.00  0.00     0.259 C 
BRANCH  14  15
HETATM   15  C2  UNL     1      20.855  49.149  74.071  1.00  0.00    -0.010 C 
HETATM   16  C1  UNL     1      22.195  49.113  74.162  1.00  0.00     0.008 C 
ENDBRANCH  14  15
ENDBRANCH  11  14
ENDBRANCH  10  11
ENDBRANCH   1  10
TORSDOF 4
ENDMDL
