MODEL 1
REMARK VINA RESULT: -5.416042236      0.000      0.000
REMARK  5 active torsions:
REMARK  status: ('A' for Active; 'I' for Inactive)
REMARK    1  A    between atoms: C2_2  and  C3_3 
REMARK    2  A    between atoms: C3_3  and  N1_4 
REMARK    3  A    between atoms: N1_4  and  C4_6 
REMARK    4  A    between atoms: C4_6  and  C5_7 
REMARK    5  A    between atoms: C6_10  and  N3_11 
ROOT
HETATM    1  C5  UNL     1      17.442  44.961  75.558  1.00  0.00     0.130 A 
HETATM    2  N2  UNL     1      18.451  44.356  74.910  1.00  0.00    -0.177 N 
ATOM      3  H2  UNL     1      19.426  44.656  74.910  1.00  0.00     0.185 HD
HETATM    4  C6  UNL     1      17.962  43.299  74.267  1.00  0.00     0.691 A 
HETATM    5  N4  UNL     1      16.635  43.213  74.494  1.00  0.00    -0.131 N 
ATOM      6  H4  UNL     1      15.991  42.509  74.135  1.00  0.00     0.205 HD
HETATM    7  N5  UNL     1      16.344  44.238  75.284  1.00  0.00    -0.273 N 
ATOM      8  H5  UNL     1      15.410  44.450  75.636  1.00  0.00     0.189 HD
ENDROOT
BRANCH   1   9
HETATM    9  C4  UNL     1      17.545  46.202  76.416  1.00  0.00     0.197 C 
BRANCH   9  10
HETATM   10  N1  UNL     1      17.992  47.251  75.582  1.00  0.00    -0.392 N 
ATOM     11  H1  UNL     1      17.333  47.747  74.981  1.00  0.00     0.159 HD
BRANCH  10  12
HETATM   12  C3  UNL     1      19.352  47.606  75.586  1.00  0.00     0.082 C 
BRANCH  12  13
HETATM   13  C2  UNL     1      19.742  48.949  75.204  1.00  0.00     0.006 C 
HETATM   14  C1  UNL     1      20.740  49.309  74.421  1.00  0.00     0.012 C 
ENDBRANCH  12  13
ENDBRANCH  10  12
ENDBRANCH   9  10
ENDBRANCH   1   9
BRANCH   4  15
HETATM   15  N3  UNL     1      18.576  42.434  73.522  1.00  0.00    -0.233 N 
ATOM     16  H32 UNL     1      19.161  41.703  73.928  1.00  0.00     0.174 HD
ATOM     17  H31 UNL     1      18.580  42.343  72.505  1.00  0.00     0.174 HD
ENDBRANCH   4  15
TORSDOF 5
ENDMDL
MODEL 2
REMARK VINA RESULT: -5.096082994      1.278      1.942
REMARK  5 active torsions:
REMARK  status: ('A' for Active; 'I' for Inactive)
REMARK    1  A    between atoms: C2_2  and  C3_3 
REMARK    2  A    between atoms: C3_3  and  N1_4 
REMARK    3  A    between atoms: N1_4  and  C4_6 
REMARK    4  A    between atoms: C4_6  and  C5_7 
REMARK    5  A    between atoms: C6_10  and  N3_11 
ROOT
HETATM    1  C5  UNL     1      17.822  45.925  75.581  1.00  0.00     0.130 A 
HETATM    2  N2  UNL     1      16.586  45.398  75.536  1.00  0.00    -0.177 N 
ATOM      3  H2  UNL     1      15.712  45.917  75.625  1.00  0.00     0.185 HD
HETATM    4  C6  UNL     1      16.698  44.086  75.356  1.00  0.00     0.691 A 
HETATM    5  N4  UNL     1      18.003  43.754  75.284  1.00  0.00    -0.131 N 
ATOM      6  H4  UNL     1      18.398  42.823  75.149  1.00  0.00     0.205 HD
HETATM    7  N5  UNL     1      18.667  44.894  75.425  1.00  0.00    -0.273 N 
ATOM      8  H5  UNL     1      19.683  44.977  75.415  1.00  0.00     0.189 HD
ENDROOT
BRANCH   1   9
HETATM    9  C4  UNL     1      18.166  47.386  75.772  1.00  0.00     0.197 C 
BRANCH   9  10
HETATM   10  N1  UNL     1      19.472  47.578  75.270  1.00  0.00    -0.392 N 
ATOM     11  H1  UNL     1      20.029  46.779  74.967  1.00  0.00     0.159 HD
BRANCH  10  12
HETATM   12  C3  UNL     1      19.998  48.878  75.191  1.00  0.00     0.082 C 
BRANCH  12  13
HETATM   13  C2  UNL     1      20.998  49.186  74.188  1.00  0.00     0.006 C 
HETATM   14  C1  UNL     1      22.310  49.160  74.318  1.00  0.00     0.012 C 
ENDBRANCH  12  13
ENDBRANCH  10  12
ENDBRANCH   9  10
ENDBRANCH   1   9
BRANCH   4  15
HETATM   15  N3  UNL     1      15.767  43.188  75.252  1.00  0.00    -0.233 N 
ATOM     16  H32 UNL     1      14.904  43.375  74.742  1.00  0.00     0.174 HD
ATOM     17  H31 UNL     1      15.740  42.239  75.625  1.00  0.00     0.174 HD
ENDBRANCH   4  15
TORSDOF 5
ENDMDL
MODEL 3
REMARK VINA RESULT: -5.079470141      1.189      1.836
REMARK  5 active torsions:
REMARK  status: ('A' for Active; 'I' for Inactive)
REMARK    1  A    between atoms: C2_2  and  C3_3 
REMARK    2  A    between atoms: C3_3  and  N1_4 
REMARK    3  A    between atoms: N1_4  and  C4_6 
REMARK    4  A    between atoms: C4_6  and  C5_7 
REMARK    5  A    between atoms: C6_10  and  N3_11 
ROOT
HETATM    1  C5  UNL     1      17.403  43.668  74.517  1.00  0.00     0.130 A 
HETATM    2  N2  UNL     1      18.696  43.743  74.158  1.00  0.00    -0.177 N 
ATOM      3  H2  UNL     1      19.353  44.470  74.442  1.00  0.00     0.185 HD
HETATM    4  C6  UNL     1      18.972  42.708  73.370  1.00  0.00     0.691 A 
HETATM    5  N4  UNL     1      17.862  41.958  73.213  1.00  0.00    -0.131 N 
ATOM      6  H4  UNL     1      17.766  41.103  72.665  1.00  0.00     0.205 HD
HETATM    7  N5  UNL     1      16.920  42.566  73.922  1.00  0.00    -0.273 N 
ATOM      8  H5  UNL     1      15.957  42.240  74.005  1.00  0.00     0.189 HD
ENDROOT
BRANCH   1   9
HETATM    9  C4  UNL     1      16.664  44.641  75.409  1.00  0.00     0.197 C 
BRANCH   9  10
HETATM   10  N1  UNL     1      16.924  45.940  74.918  1.00  0.00    -0.392 N 
ATOM     11  H1  UNL     1      16.677  46.187  73.959  1.00  0.00     0.159 HD
BRANCH  10  12
HETATM   12  C3  UNL     1      17.527  46.889  75.761  1.00  0.00     0.082 C 
BRANCH  12  13
HETATM   13  C2  UNL     1      18.940  47.180  75.617  1.00  0.00     0.006 C 
HETATM   14  C1  UNL     1      19.502  48.336  75.322  1.00  0.00     0.012 C 
ENDBRANCH  12  13
ENDBRANCH  10  12
ENDBRANCH   9  10
ENDBRANCH   1   9
BRANCH   4  15
HETATM   15  N3  UNL     1      20.091  42.385  72.799  1.00  0.00    -0.233 N 
ATOM     16  H32 UNL     1      20.116  41.736  72.012  1.00  0.00     0.174 HD
ATOM     17  H31 UNL     1      21.040  42.691  73.015  1.00  0.00     0.174 HD
ENDBRANCH   4  15
TORSDOF 5
ENDMDL
MODEL 4
REMARK VINA RESULT: -5.017105024      1.327      2.015
REMARK  5 active torsions:
REMARK  status: ('A' for Active; 'I' for Inactive)
REMARK    1  A    between atoms: C2_2  and  C3_3 
REMARK    2  A    between atoms: C3_3  and  N1_4 
REMARK    3  A    between atoms: N1_4  and  C4_6 
REMARK    4  A    between atoms: C4_6  and  C5_7 
REMARK    5  A    between atoms: C6_10  and  N3_11 
ROOT
HETATM    1  C5  UNL     1      17.898  45.995  75.702  1.00  0.00     0.130 A 
HETATM    2  N2  UNL     1      16.657  45.492  75.585  1.00  0.00    -0.177 N 
ATOM      3  H2  UNL     1      15.789  46.026  75.633  1.00  0.00     0.185 HD
HETATM    4  C6  UNL     1      16.754  44.180  75.394  1.00  0.00     0.691 A 
HETATM    5  N4  UNL     1      18.056  43.825  75.388  1.00  0.00    -0.131 N 
ATOM      6  H4  UNL     1      18.440  42.888  75.263  1.00  0.00     0.205 HD
HETATM    7  N5  UNL     1      18.731  44.950  75.578  1.00  0.00    -0.273 N 
ATOM      8  H5  UNL     1      19.748  45.014  75.624  1.00  0.00     0.189 HD
ENDROOT
BRANCH   1   9
HETATM    9  C4  UNL     1      18.257  47.447  75.929  1.00  0.00     0.197 C 
BRANCH   9  10
HETATM   10  N1  UNL     1      19.353  47.744  75.087  1.00  0.00    -0.392 N 
ATOM     11  H1  UNL     1      19.470  47.250  74.202  1.00  0.00     0.159 HD
BRANCH  10  12
HETATM   12  C3  UNL     1      20.280  48.723  75.480  1.00  0.00     0.082 C 
BRANCH  12  13
HETATM   13  C2  UNL     1      20.154  50.074  74.970  1.00  0.00     0.006 C 
HETATM   14  C1  UNL     1      19.492  51.082  75.503  1.00  0.00     0.012 C 
ENDBRANCH  12  13
ENDBRANCH  10  12
ENDBRANCH   9  10
ENDBRANCH   1   9
BRANCH   4  15
HETATM   15  N3  UNL     1      15.815  43.301  75.231  1.00  0.00    -0.233 N 
ATOM     16  H32 UNL     1      14.900  43.414  75.669  1.00  0.00     0.174 HD
ATOM     17  H31 UNL     1      15.826  42.435  74.692  1.00  0.00     0.174 HD
ENDBRANCH   4  15
TORSDOF 5
ENDMDL
MODEL 5
REMARK VINA RESULT: -4.716727323      1.628      2.705
REMARK  5 active torsions:
REMARK  status: ('A' for Active; 'I' for Inactive)
REMARK    1  A    between atoms: C2_2  and  C3_3 
REMARK    2  A    between atoms: C3_3  and  N1_4 
REMARK    3  A    between atoms: N1_4  and  C4_6 
REMARK    4  A    between atoms: C4_6  and  C5_7 
REMARK    5  A    between atoms: C6_10  and  N3_11 
ROOT
HETATM    1  C5  UNL     1      16.635  44.818  75.265  1.00  0.00     0.130 A 
HETATM    2  N2  UNL     1      15.654  45.511  75.868  1.00  0.00    -0.177 N 
ATOM      3  H2  UNL     1      15.705  46.486  76.162  1.00  0.00     0.185 HD
HETATM    4  C6  UNL     1      14.605  44.707  76.015  1.00  0.00     0.691 A 
HETATM    5  N4  UNL     1      14.900  43.491  75.510  1.00  0.00    -0.131 N 
ATOM      6  H4  UNL     1      14.294  42.671  75.481  1.00  0.00     0.205 HD
HETATM    7  N5  UNL     1      16.143  43.586  75.060  1.00  0.00    -0.273 N 
ATOM      8  H5  UNL     1      16.658  42.825  74.617  1.00  0.00     0.189 HD
ENDROOT
BRANCH   1   9
HETATM    9  C4  UNL     1      18.008  45.342  74.903  1.00  0.00     0.197 C 
BRANCH   9  10
HETATM   10  N1  UNL     1      18.408  46.218  75.936  1.00  0.00    -0.392 N 
ATOM     11  H1  UNL     1      18.617  45.855  76.867  1.00  0.00     0.159 HD
BRANCH  10  12
HETATM   12  C3  UNL     1      18.515  47.594  75.673  1.00  0.00     0.082 C 
BRANCH  12  13
HETATM   13  C2  UNL     1      19.800  48.154  75.301  1.00  0.00     0.006 C 
HETATM   14  C1  UNL     1      20.118  49.425  75.160  1.00  0.00     0.012 C 
ENDBRANCH  12  13
ENDBRANCH  10  12
ENDBRANCH   9  10
ENDBRANCH   1   9
BRANCH   4  15
HETATM   15  N3  UNL     1      13.446  44.955  76.542  1.00  0.00    -0.233 N 
ATOM     16  H32 UNL     1      13.188  44.583  77.455  1.00  0.00     0.174 HD
ATOM     17  H31 UNL     1      12.672  45.508  76.172  1.00  0.00     0.174 HD
ENDBRANCH   4  15
TORSDOF 5
ENDMDL
