MODEL 1
REMARK VINA RESULT: -4.449150237      0.000      0.000
REMARK  4 active torsions:
REMARK  status: ('A' for Active; 'I' for Inactive)
REMARK    1  A    between atoms: C2_2  and  C3_3 
REMARK    2  A    between atoms: C3_3  and  N1_4 
REMARK    3  A    between atoms: N1_4  and  C4_7 
REMARK    4  A    between atoms: C4_7  and  C5_8 
ROOT
HETATM    1  C5  UNL     1      18.517  46.385  75.392  1.00  0.00     0.235 C 
HETATM    2  C6  UNL     1      18.732  45.278  76.393  1.00  0.00     0.202 C 
HETATM    3  O1  UNL     1      18.558  44.074  75.717  1.00  0.00    -0.387 OA
HETATM    4  C7  UNL     1      17.317  43.944  75.138  1.00  0.00     0.195 C 
HETATM    5  C8  UNL     1      16.837  45.142  74.402  1.00  0.00     0.259 C 
HETATM    6  N2  UNL     1      17.097  46.395  75.090  1.00  0.00    -0.065 N 
ATOM      7  H21 UNL     1      16.794  47.219  74.571  1.00  0.00     0.277 HD
ATOM      8  H22 UNL     1      16.505  46.544  75.907  1.00  0.00     0.277 HD
ENDROOT
BRANCH   1   9
HETATM    9  C4  UNL     1      19.004  47.720  75.884  1.00  0.00     0.267 C 
BRANCH   9  10
HETATM   10  N1  UNL     1      19.767  48.351  74.840  1.00  0.00    -0.073 N 
ATOM     11  H12 UNL     1      19.189  48.988  74.291  1.00  0.00     0.277 HD
ATOM     12  H11 UNL     1      20.014  47.687  74.107  1.00  0.00     0.277 HD
BRANCH  10  13
HETATM   13  C3  UNL     1      20.946  49.023  75.364  1.00  0.00     0.232 C 
BRANCH  13  14
HETATM   14  C2  UNL     1      22.001  49.172  74.293  1.00  0.00     0.023 C 
HETATM   15  C1  UNL     1      23.358  49.158  74.959  1.00  0.00     0.007 C 
ENDBRANCH  13  14
ENDBRANCH  10  13
ENDBRANCH   9  10
ENDBRANCH   1   9
TORSDOF 4
ENDMDL
MODEL 2
REMARK VINA RESULT: -4.349897877      1.101      1.629
REMARK  4 active torsions:
REMARK  status: ('A' for Active; 'I' for Inactive)
REMARK    1  A    between atoms: C2_2  and  C3_3 
REMARK    2  A    between atoms: C3_3  and  N1_4 
REMARK    3  A    between atoms: N1_4  and  C4_7 
REMARK    4  A    between atoms: C4_7  and  C5_8 
ROOT
HETATM    1  C5  UNL     1      18.425  46.290  75.435  1.00  0.00     0.235 C 
HETATM    2  C6  UNL     1      18.582  45.207  76.472  1.00  0.00     0.202 C 
HETATM    3  O1  UNL     1      18.518  43.987  75.804  1.00  0.00    -0.387 OA
HETATM    4  C7  UNL     1      17.344  43.802  75.110  1.00  0.00     0.195 C 
HETATM    5  C8  UNL     1      16.895  44.970  74.309  1.00  0.00     0.259 C 
HETATM    6  N2  UNL     1      17.041  46.242  74.996  1.00  0.00    -0.065 N 
ATOM      7  H21 UNL     1      16.761  47.046  74.434  1.00  0.00     0.277 HD
ATOM      8  H22 UNL     1      16.368  46.381  75.749  1.00  0.00     0.277 HD
ENDROOT
BRANCH   1   9
HETATM    9  C4  UNL     1      18.814  47.650  75.946  1.00  0.00     0.267 C 
BRANCH   9  10
HETATM   10  N1  UNL     1      19.705  48.267  75.001  1.00  0.00    -0.073 N 
ATOM     11  H12 UNL     1      19.202  48.603  74.180  1.00  0.00     0.277 HD
ATOM     12  H11 UNL     1      20.303  47.575  74.548  1.00  0.00     0.277 HD
BRANCH  10  13
HETATM   13  C3  UNL     1      20.491  49.327  75.612  1.00  0.00     0.232 C 
BRANCH  13  14
HETATM   14  C2  UNL     1      20.240  50.648  74.922  1.00  0.00     0.023 C 
HETATM   15  C1  UNL     1      19.203  51.408  75.717  1.00  0.00     0.007 C 
ENDBRANCH  13  14
ENDBRANCH  10  13
ENDBRANCH   9  10
ENDBRANCH   1   9
TORSDOF 4
ENDMDL
MODEL 3
REMARK VINA RESULT: -4.333863006      2.795      6.102
REMARK  4 active torsions:
REMARK  status: ('A' for Active; 'I' for Inactive)
REMARK    1  A    between atoms: C2_2  and  C3_3 
REMARK    2  A    between atoms: C3_3  and  N1_4 
REMARK    3  A    between atoms: N1_4  and  C4_7 
REMARK    4  A    between atoms: C4_7  and  C5_8 
ROOT
HETATM    1  C5  UNL     1      21.513  49.567  75.142  1.00  0.00     0.235 C 
HETATM    2  C6  UNL     1      22.904  49.119  74.771  1.00  0.00     0.202 C 
HETATM    3  O1  UNL     1      23.780  49.704  75.680  1.00  0.00    -0.387 OA
HETATM    4  C7  UNL     1      23.720  51.079  75.692  1.00  0.00     0.195 C 
HETATM    5  C8  UNL     1      22.349  51.650  75.698  1.00  0.00     0.259 C 
HETATM    6  N2  UNL     1      21.430  50.975  74.798  1.00  0.00    -0.065 N 
ATOM      7  H21 UNL     1      20.481  51.349  74.825  1.00  0.00     0.277 HD
ATOM      8  H22 UNL     1      21.606  51.167  73.812  1.00  0.00     0.277 HD
ENDROOT
BRANCH   1   9
HETATM    9  C4  UNL     1      20.439  48.753  74.474  1.00  0.00     0.267 C 
BRANCH   9  10
HETATM   10  N1  UNL     1      19.348  48.575  75.395  1.00  0.00    -0.073 N 
ATOM     11  H12 UNL     1      18.530  49.112  75.109  1.00  0.00     0.277 HD
ATOM     12  H11 UNL     1      19.537  49.032  76.287  1.00  0.00     0.277 HD
BRANCH  10  13
HETATM   13  C3  UNL     1      19.021  47.170  75.579  1.00  0.00     0.232 C 
BRANCH  13  14
HETATM   14  C2  UNL     1      17.531  46.981  75.744  1.00  0.00     0.023 C 
HETATM   15  C1  UNL     1      17.116  45.765  74.948  1.00  0.00     0.007 C 
ENDBRANCH  13  14
ENDBRANCH  10  13
ENDBRANCH   9  10
ENDBRANCH   1   9
TORSDOF 4
ENDMDL
MODEL 4
REMARK VINA RESULT: -4.270775850      1.287      1.599
REMARK  4 active torsions:
REMARK  status: ('A' for Active; 'I' for Inactive)
REMARK    1  A    between atoms: C2_2  and  C3_3 
REMARK    2  A    between atoms: C3_3  and  N1_4 
REMARK    3  A    between atoms: N1_4  and  C4_7 
REMARK    4  A    between atoms: C4_7  and  C5_8 
ROOT
HETATM    1  C5  UNL     1      17.771  46.236  75.705  1.00  0.00     0.235 C 
HETATM    2  C6  UNL     1      17.279  45.922  74.315  1.00  0.00     0.202 C 
HETATM    3  O1  UNL     1      16.529  44.753  74.398  1.00  0.00    -0.387 OA
HETATM    4  C7  UNL     1      17.236  43.682  74.896  1.00  0.00     0.195 C 
HETATM    5  C8  UNL     1      18.061  43.975  76.096  1.00  0.00     0.259 C 
HETATM    6  N2  UNL     1      18.777  45.237  76.020  1.00  0.00    -0.065 N 
ATOM      7  H21 UNL     1      19.320  45.452  76.857  1.00  0.00     0.277 HD
ATOM      8  H22 UNL     1      19.561  45.226  75.369  1.00  0.00     0.277 HD
ENDROOT
BRANCH   1   9
HETATM    9  C4  UNL     1      18.299  47.638  75.836  1.00  0.00     0.267 C 
BRANCH   9  10
HETATM   10  N1  UNL     1      19.610  47.700  75.246  1.00  0.00    -0.073 N 
ATOM     11  H12 UNL     1      19.617  47.285  74.314  1.00  0.00     0.277 HD
ATOM     12  H11 UNL     1      20.256  47.061  75.709  1.00  0.00     0.277 HD
BRANCH  10  13
HETATM   13  C3  UNL     1      20.130  49.058  75.227  1.00  0.00     0.232 C 
BRANCH  13  14
HETATM   14  C2  UNL     1      21.130  49.235  74.108  1.00  0.00     0.023 C 
HETATM   15  C1  UNL     1      22.520  49.134  74.694  1.00  0.00     0.007 C 
ENDBRANCH  13  14
ENDBRANCH  10  13
ENDBRANCH   9  10
ENDBRANCH   1   9
TORSDOF 4
ENDMDL
MODEL 5
REMARK VINA RESULT: -4.180078782      1.661      2.102
REMARK  4 active torsions:
REMARK  status: ('A' for Active; 'I' for Inactive)
REMARK    1  A    between atoms: C2_2  and  C3_3 
REMARK    2  A    between atoms: C3_3  and  N1_4 
REMARK    3  A    between atoms: N1_4  and  C4_7 
REMARK    4  A    between atoms: C4_7  and  C5_8 
ROOT
HETATM    1  C5  UNL     1      17.791  46.190  75.736  1.00  0.00     0.235 C 
HETATM    2  C6  UNL     1      17.329  45.955  74.320  1.00  0.00     0.202 C 
HETATM    3  O1  UNL     1      16.569  44.789  74.324  1.00  0.00    -0.387 OA
HETATM    4  C7  UNL     1      17.257  43.687  74.778  1.00  0.00     0.195 C 
HETATM    5  C8  UNL     1      18.058  43.909  76.010  1.00  0.00     0.259 C 
HETATM    6  N2  UNL     1      18.784  45.168  76.018  1.00  0.00    -0.065 N 
ATOM      7  H21 UNL     1      19.309  45.333  76.877  1.00  0.00     0.277 HD
ATOM      8  H22 UNL     1      19.582  45.185  75.384  1.00  0.00     0.277 HD
ENDROOT
BRANCH   1   9
HETATM    9  C4  UNL     1      18.326  47.578  75.954  1.00  0.00     0.267 C 
BRANCH   9  10
HETATM   10  N1  UNL     1      19.421  47.804  75.049  1.00  0.00    -0.073 N 
ATOM     11  H12 UNL     1      19.088  48.049  74.117  1.00  0.00     0.277 HD
ATOM     12  H11 UNL     1      19.902  46.933  74.823  1.00  0.00     0.277 HD
BRANCH  10  13
HETATM   13  C3  UNL     1      20.347  48.802  75.561  1.00  0.00     0.232 C 
BRANCH  13  14
HETATM   14  C2  UNL     1      20.308  50.056  74.716  1.00  0.00     0.023 C 
HETATM   15  C1  UNL     1      19.561  51.122  75.485  1.00  0.00     0.007 C 
ENDBRANCH  13  14
ENDBRANCH  10  13
ENDBRANCH   9  10
ENDBRANCH   1   9
TORSDOF 4
ENDMDL
