MODEL 1
REMARK VINA RESULT: -7.735679756      0.000      0.000
REMARK  9 active torsions:
REMARK  status: ('A' for Active; 'I' for Inactive)
REMARK    1  A    between atoms: O1_2  and  C2_3 
REMARK    2  A    between atoms: C2_3  and  O2_4 
REMARK    3  A    between atoms: O2_4  and  C3_5 
REMARK    4  A    between atoms: C3_5  and  C4_7 
REMARK    5  A    between atoms: C12_17  and  C13_18 
REMARK    6  A    between atoms: C15_21  and  C16_22 
REMARK    7  A    between atoms: C20_28  and  O7_29 
REMARK    8  A    between atoms: C21_31  and  C22_32 
REMARK    9  A    between atoms: C22_32  and  O8_33 
ROOT
HETATM    1  C4  UNL     1      -7.352  12.294  21.434  1.00  0.00     0.198 C 
HETATM    2  F1  UNL     1      -8.585  12.631  20.806  1.00  0.00    -0.231 F 
HETATM    3  C5  UNL     1      -6.544  13.580  21.293  1.00  0.00     0.058 C 
HETATM    4  C6  UNL     1      -5.158  13.215  20.896  1.00  0.00     0.048 C 
HETATM    5  C7  UNL     1      -5.118  11.713  20.714  1.00  0.00     0.111 C 
HETATM    6  F2  UNL     1      -4.507  11.220  21.867  1.00  0.00    -0.242 F 
HETATM    7  C8  UNL     1      -4.273  11.299  19.572  1.00  0.00     0.045 C 
HETATM    8  C9  UNL     1      -4.940  10.679  18.385  1.00  0.00     0.019 C 
HETATM    9  C10 UNL     1      -5.496   9.334  18.562  1.00  0.00     0.026 C 
HETATM   10  C11 UNL     1      -4.610   8.407  19.373  1.00  0.00     0.022 C 
HETATM   11  C12 UNL     1      -5.859   8.552  17.348  1.00  0.00     0.102 C 
HETATM   12  C15 UNL     1      -7.022   7.701  17.902  1.00  0.00     0.172 C 
HETATM   13  O6  UNL     1      -7.058   7.942  19.275  1.00  0.00    -0.343 OA
HETATM   14  C20 UNL     1      -6.857   9.349  19.252  1.00  0.00     0.177 C 
HETATM   15  C21 UNL     1      -6.785   9.921  20.634  1.00  0.00     0.083 C 
HETATM   16  C23 UNL     1      -6.571  11.365  20.610  1.00  0.00     0.086 C 
ENDROOT
BRANCH   1  17
HETATM   17  C3  UNL     1      -7.548  12.055  22.848  1.00  0.00     0.301 C 
HETATM   18  O3  UNL     1      -6.653  12.409  23.658  1.00  0.00    -0.261 OA
BRANCH  17  19
HETATM   19  O2  UNL     1      -8.638  11.465  23.439  1.00  0.00    -0.293 OA
BRANCH  19  20
HETATM   20  C2  UNL     1      -9.941  12.011  23.438  1.00  0.00     0.347 C 
BRANCH  20  21
HETATM   21  O1  UNL     1     -10.818  11.007  23.827  1.00  0.00    -0.371 OA
HETATM   22  C1  UNL     1     -11.346  10.322  22.733  1.00  0.00     0.204 C 
ENDBRANCH  20  21
ENDBRANCH  19  20
ENDBRANCH  17  19
ENDBRANCH   1  17
BRANCH  15  23
HETATM   23  C22 UNL     1      -7.978   9.385  21.364  1.00  0.00     0.174 C 
BRANCH  23  24
HETATM   24  O8  UNL     1      -7.774   8.141  21.937  1.00  0.00    -0.400 OA
ATOM     25  H8  UNL     1      -8.507   7.832  22.458  1.00  0.00     0.209 HD
ENDBRANCH  23  24
ENDBRANCH  15  23
BRANCH  14  26
HETATM   26  O7  UNL     1      -7.864   9.832  18.479  1.00  0.00    -0.364 OA
ATOM     27  H7  UNL     1      -8.407  10.480  18.913  1.00  0.00     0.213 HD
ENDBRANCH  14  26
BRANCH  11  28
HETATM   28  C13 UNL     1      -6.232   9.249  16.138  1.00  0.00     0.131 C 
HETATM   29  C14 UNL     1      -5.269   9.850  15.207  1.00  0.00     0.091 C 
HETATM   30  O4  UNL     1      -7.410   9.361  15.845  1.00  0.00    -0.298 OA
ENDBRANCH  11  28
BRANCH  12  31
HETATM   31  C16 UNL     1      -6.888   6.281  17.577  1.00  0.00    -0.004 A 
HETATM   32  C17 UNL     1      -6.545   5.299  18.476  1.00  0.00     0.036 A 
HETATM   33  C18 UNL     1      -6.533   4.110  17.766  1.00  0.00     0.142 A 
HETATM   34  O5  UNL     1      -6.851   4.399  16.531  1.00  0.00    -0.334 OA
HETATM   35  C19 UNL     1      -7.071   5.680  16.375  1.00  0.00     0.151 A 
ENDBRANCH  12  31
TORSDOF 9
ENDMDL
MODEL 2
REMARK VINA RESULT: -7.696805786      0.901      1.892
REMARK  9 active torsions:
REMARK  status: ('A' for Active; 'I' for Inactive)
REMARK    1  A    between atoms: O1_2  and  C2_3 
REMARK    2  A    between atoms: C2_3  and  O2_4 
REMARK    3  A    between atoms: O2_4  and  C3_5 
REMARK    4  A    between atoms: C3_5  and  C4_7 
REMARK    5  A    between atoms: C12_17  and  C13_18 
REMARK    6  A    between atoms: C15_21  and  C16_22 
REMARK    7  A    between atoms: C20_28  and  O7_29 
REMARK    8  A    between atoms: C21_31  and  C22_32 
REMARK    9  A    between atoms: C22_32  and  O8_33 
ROOT
HETATM    1  C4  UNL     1      -7.397  12.351  21.386  1.00  0.00     0.198 C 
HETATM    2  F1  UNL     1      -8.662  12.634  20.797  1.00  0.00    -0.231 F 
HETATM    3  C5  UNL     1      -6.636  13.658  21.184  1.00  0.00     0.058 C 
HETATM    4  C6  UNL     1      -5.255  13.327  20.743  1.00  0.00     0.048 C 
HETATM    5  C7  UNL     1      -5.173  11.823  20.596  1.00  0.00     0.111 C 
HETATM    6  F2  UNL     1      -4.504  11.377  21.736  1.00  0.00    -0.242 F 
HETATM    7  C8  UNL     1      -4.359  11.407  19.432  1.00  0.00     0.045 C 
HETATM    8  C9  UNL     1      -5.049  10.737  18.287  1.00  0.00     0.019 C 
HETATM    9  C10 UNL     1      -5.554   9.380  18.517  1.00  0.00     0.026 C 
HETATM   10  C11 UNL     1      -4.609   8.501  19.315  1.00  0.00     0.022 C 
HETATM   11  C12 UNL     1      -5.936   8.557  17.336  1.00  0.00     0.102 C 
HETATM   12  C15 UNL     1      -7.050   7.683  17.954  1.00  0.00     0.172 C 
HETATM   13  O6  UNL     1      -7.042   7.958  19.321  1.00  0.00    -0.343 OA
HETATM   14  C20 UNL     1      -6.888   9.369  19.257  1.00  0.00     0.177 C 
HETATM   15  C21 UNL     1      -6.783   9.977  20.622  1.00  0.00     0.083 C 
HETATM   16  C23 UNL     1      -6.617  11.426  20.555  1.00  0.00     0.086 C 
ENDROOT
BRANCH   1  17
HETATM   17  C3  UNL     1      -7.532  12.141  22.812  1.00  0.00     0.301 C 
HETATM   18  O3  UNL     1      -8.661  11.855  23.284  1.00  0.00    -0.261 OA
BRANCH  17  19
HETATM   19  O2  UNL     1      -6.533  12.220  23.751  1.00  0.00    -0.293 OA
BRANCH  19  20
HETATM   20  C2  UNL     1      -6.254  13.366  24.528  1.00  0.00     0.347 C 
BRANCH  20  21
HETATM   21  O1  UNL     1      -5.359  12.993  25.523  1.00  0.00    -0.371 OA
HETATM   22  C1  UNL     1      -4.523  11.954  25.111  1.00  0.00     0.204 C 
ENDBRANCH  20  21
ENDBRANCH  19  20
ENDBRANCH  17  19
ENDBRANCH   1  17
BRANCH  15  23
HETATM   23  C22 UNL     1      -7.931   9.423  21.408  1.00  0.00     0.174 C 
BRANCH  23  24
HETATM   24  O8  UNL     1      -7.688   8.171  21.949  1.00  0.00    -0.400 OA
ATOM     25  H8  UNL     1      -8.476   7.685  22.164  1.00  0.00     0.209 HD
ENDBRANCH  23  24
ENDBRANCH  15  23
BRANCH  14  26
HETATM   26  O7  UNL     1      -7.938   9.801  18.512  1.00  0.00    -0.364 OA
ATOM     27  H7  UNL     1      -7.707  10.452  17.859  1.00  0.00     0.213 HD
ENDBRANCH  14  26
BRANCH  11  28
HETATM   28  C13 UNL     1      -6.377   9.211  16.125  1.00  0.00     0.131 C 
HETATM   29  C14 UNL     1      -5.467   9.799  15.133  1.00  0.00     0.091 C 
HETATM   30  O4  UNL     1      -7.568   9.297  15.884  1.00  0.00    -0.298 OA
ENDBRANCH  11  28
BRANCH  12  31
HETATM   31  C16 UNL     1      -6.882   6.261  17.658  1.00  0.00    -0.004 A 
HETATM   32  C17 UNL     1      -6.513   5.307  18.575  1.00  0.00     0.036 A 
HETATM   33  C18 UNL     1      -6.474   4.104  17.890  1.00  0.00     0.142 A 
HETATM   34  O5  UNL     1      -6.803   4.360  16.651  1.00  0.00    -0.334 OA
HETATM   35  C19 UNL     1      -7.054   5.632  16.469  1.00  0.00     0.151 A 
ENDBRANCH  12  31
TORSDOF 9
ENDMDL
MODEL 3
REMARK VINA RESULT: -7.505873495      3.458      6.653
REMARK  9 active torsions:
REMARK  status: ('A' for Active; 'I' for Inactive)
REMARK    1  A    between atoms: O1_2  and  C2_3 
REMARK    2  A    between atoms: C2_3  and  O2_4 
REMARK    3  A    between atoms: O2_4  and  C3_5 
REMARK    4  A    between atoms: C3_5  and  C4_7 
REMARK    5  A    between atoms: C12_17  and  C13_18 
REMARK    6  A    between atoms: C15_21  and  C16_22 
REMARK    7  A    between atoms: C20_28  and  O7_29 
REMARK    8  A    between atoms: C21_31  and  C22_32 
REMARK    9  A    between atoms: C22_32  and  O8_33 
ROOT
HETATM    1  C4  UNL     1      -5.629  10.097  17.993  1.00  0.00     0.198 C 
HETATM    2  F1  UNL     1      -4.760   9.080  17.507  1.00  0.00    -0.231 F 
HETATM    3  C5  UNL     1      -5.613  11.118  16.861  1.00  0.00     0.058 C 
HETATM    4  C6  UNL     1      -5.509  12.475  17.461  1.00  0.00     0.048 C 
HETATM    5  C7  UNL     1      -5.383  12.301  18.959  1.00  0.00     0.111 C 
HETATM    6  F2  UNL     1      -6.648  12.590  19.471  1.00  0.00    -0.242 F 
HETATM    7  C8  UNL     1      -4.443  13.267  19.569  1.00  0.00     0.045 C 
HETATM    8  C9  UNL     1      -3.167  12.745  20.149  1.00  0.00     0.019 C 
HETATM    9  C10 UNL     1      -3.270  11.952  21.378  1.00  0.00     0.026 C 
HETATM   10  C11 UNL     1      -4.267  12.501  22.380  1.00  0.00     0.022 C 
HETATM   11  C12 UNL     1      -2.032  11.703  22.166  1.00  0.00     0.102 C 
HETATM   12  C15 UNL     1      -2.370  10.331  22.790  1.00  0.00     0.172 C 
HETATM   13  O6  UNL     1      -3.701  10.075  22.462  1.00  0.00    -0.343 OA
HETATM   14  C20 UNL     1      -3.676  10.506  21.108  1.00  0.00     0.177 C 
HETATM   15  C21 UNL     1      -5.028  10.406  20.471  1.00  0.00     0.083 C 
HETATM   16  C23 UNL     1      -5.004  10.857  19.082  1.00  0.00     0.086 C 
ENDROOT
BRANCH   1  17
HETATM   17  C3  UNL     1      -6.983   9.599  18.112  1.00  0.00     0.301 C 
HETATM   18  O3  UNL     1      -7.933  10.303  17.684  1.00  0.00    -0.261 OA
BRANCH  17  19
HETATM   19  O2  UNL     1      -7.373   8.401  18.657  1.00  0.00    -0.293 OA
BRANCH  19  20
HETATM   20  C2  UNL     1      -7.267   7.153  18.004  1.00  0.00     0.347 C 
BRANCH  20  21
HETATM   21  O1  UNL     1      -7.039   6.187  18.976  1.00  0.00    -0.371 OA
HETATM   22  C1  UNL     1      -6.374   5.074  18.459  1.00  0.00     0.204 C 
ENDBRANCH  20  21
ENDBRANCH  19  20
ENDBRANCH  17  19
ENDBRANCH   1  17
BRANCH  15  23
HETATM   23  C22 UNL     1      -5.522   9.024  20.768  1.00  0.00     0.174 C 
BRANCH  23  24
HETATM   24  O8  UNL     1      -6.652   8.992  21.569  1.00  0.00    -0.400 OA
ATOM     25  H8  UNL     1      -7.377   8.506  21.192  1.00  0.00     0.209 HD
ENDBRANCH  23  24
ENDBRANCH  15  23
BRANCH  14  26
HETATM   26  O7  UNL     1      -2.706   9.759  20.522  1.00  0.00    -0.364 OA
ATOM     27  H7  UNL     1      -2.362  10.133  19.719  1.00  0.00     0.213 HD
ENDBRANCH  14  26
BRANCH  11  28
HETATM   28  C13 UNL     1      -0.752  11.687  21.495  1.00  0.00     0.131 C 
HETATM   29  C14 UNL     1      -0.003  12.896  21.127  1.00  0.00     0.091 C 
HETATM   30  O4  UNL     1      -0.236  10.622  21.203  1.00  0.00    -0.298 OA
ENDBRANCH  11  28
BRANCH  12  31
HETATM   31  C16 UNL     1      -2.120  10.288  24.230  1.00  0.00    -0.004 A 
HETATM   32  C17 UNL     1      -3.035  10.634  25.196  1.00  0.00     0.036 A 
HETATM   33  C18 UNL     1      -2.402  10.449  26.414  1.00  0.00     0.142 A 
HETATM   34  O5  UNL     1      -1.193  10.023  26.156  1.00  0.00    -0.334 OA
HETATM   35  C19 UNL     1      -0.983   9.913  24.868  1.00  0.00     0.151 A 
ENDBRANCH  12  31
TORSDOF 9
ENDMDL
MODEL 4
REMARK VINA RESULT: -7.141112072      3.531      6.314
REMARK  9 active torsions:
REMARK  status: ('A' for Active; 'I' for Inactive)
REMARK    1  A    between atoms: O1_2  and  C2_3 
REMARK    2  A    between atoms: C2_3  and  O2_4 
REMARK    3  A    between atoms: O2_4  and  C3_5 
REMARK    4  A    between atoms: C3_5  and  C4_7 
REMARK    5  A    between atoms: C12_17  and  C13_18 
REMARK    6  A    between atoms: C15_21  and  C16_22 
REMARK    7  A    between atoms: C20_28  and  O7_29 
REMARK    8  A    between atoms: C21_31  and  C22_32 
REMARK    9  A    between atoms: C22_32  and  O8_33 
ROOT
HETATM    1  C4  UNL     1      -5.578  10.249  17.942  1.00  0.00     0.198 C 
HETATM    2  F1  UNL     1      -4.750   9.193  17.468  1.00  0.00    -0.231 F 
HETATM    3  C5  UNL     1      -5.502  11.268  16.809  1.00  0.00     0.058 C 
HETATM    4  C6  UNL     1      -5.345  12.619  17.410  1.00  0.00     0.048 C 
HETATM    5  C7  UNL     1      -5.247  12.441  18.909  1.00  0.00     0.111 C 
HETATM    6  F2  UNL     1      -6.505  12.788  19.404  1.00  0.00    -0.242 F 
HETATM    7  C8  UNL     1      -4.273  13.365  19.531  1.00  0.00     0.045 C 
HETATM    8  C9  UNL     1      -3.030  12.787  20.129  1.00  0.00     0.019 C 
HETATM    9  C10 UNL     1      -3.185  12.001  21.357  1.00  0.00     0.026 C 
HETATM   10  C11 UNL     1      -4.169  12.595  22.345  1.00  0.00     0.022 C 
HETATM   11  C12 UNL     1      -1.969  11.698  22.161  1.00  0.00     0.102 C 
HETATM   12  C15 UNL     1      -2.376  10.343  22.782  1.00  0.00     0.172 C 
HETATM   13  O6  UNL     1      -3.713  10.146  22.436  1.00  0.00    -0.343 OA
HETATM   14  C20 UNL     1      -3.651  10.574  21.082  1.00  0.00     0.177 C 
HETATM   15  C21 UNL     1      -4.997  10.534  20.427  1.00  0.00     0.083 C 
HETATM   16  C23 UNL     1      -4.935  10.982  19.039  1.00  0.00     0.086 C 
ENDROOT
BRANCH   1  17
HETATM   17  C3  UNL     1      -6.955   9.812  18.043  1.00  0.00     0.301 C 
HETATM   18  O3  UNL     1      -7.216   8.586  17.951  1.00  0.00    -0.261 OA
BRANCH  17  19
HETATM   19  O2  UNL     1      -8.057  10.609  18.234  1.00  0.00    -0.293 OA
BRANCH  19  20
HETATM   20  C2  UNL     1      -9.048  10.381  19.214  1.00  0.00     0.347 C 
BRANCH  20  21
HETATM   21  O1  UNL     1      -8.587  10.913  20.412  1.00  0.00    -0.371 OA
HETATM   22  C1  UNL     1      -9.632  11.349  21.226  1.00  0.00     0.204 C 
ENDBRANCH  20  21
ENDBRANCH  19  20
ENDBRANCH  17  19
ENDBRANCH   1  17
BRANCH  15  23
HETATM   23  C22 UNL     1      -5.557   9.176  20.718  1.00  0.00     0.174 C 
BRANCH  23  24
HETATM   24  O8  UNL     1      -6.634   9.187  21.589  1.00  0.00    -0.400 OA
ATOM     25  H8  UNL     1      -7.377   8.677  21.289  1.00  0.00     0.209 HD
ENDBRANCH  23  24
ENDBRANCH  15  23
BRANCH  14  26
HETATM   26  O7  UNL     1      -2.707   9.784  20.509  1.00  0.00    -0.364 OA
ATOM     27  H7  UNL     1      -2.913   8.857  20.532  1.00  0.00     0.213 HD
ENDBRANCH  14  26
BRANCH  11  28
HETATM   28  C13 UNL     1      -0.682  11.624  21.508  1.00  0.00     0.131 C 
HETATM   29  C14 UNL     1       0.125  12.798  21.150  1.00  0.00     0.091 C 
HETATM   30  O4  UNL     1      -0.211  10.537  21.222  1.00  0.00    -0.298 OA
ENDBRANCH  11  28
BRANCH  12  31
HETATM   31  C16 UNL     1      -2.148  10.291  24.225  1.00  0.00    -0.004 A 
HETATM   32  C17 UNL     1      -3.064  10.665  25.179  1.00  0.00     0.036 A 
HETATM   33  C18 UNL     1      -2.454  10.459  26.405  1.00  0.00     0.142 A 
HETATM   34  O5  UNL     1      -1.257   9.994  26.163  1.00  0.00    -0.334 OA
HETATM   35  C19 UNL     1      -1.033   9.878  24.878  1.00  0.00     0.151 A 
ENDBRANCH  12  31
TORSDOF 9
ENDMDL
MODEL 5
REMARK VINA RESULT: -6.922534028      3.064      7.258
REMARK  9 active torsions:
REMARK  status: ('A' for Active; 'I' for Inactive)
REMARK    1  A    between atoms: O1_2  and  C2_3 
REMARK    2  A    between atoms: C2_3  and  O2_4 
REMARK    3  A    between atoms: O2_4  and  C3_5 
REMARK    4  A    between atoms: C3_5  and  C4_7 
REMARK    5  A    between atoms: C12_17  and  C13_18 
REMARK    6  A    between atoms: C15_21  and  C16_22 
REMARK    7  A    between atoms: C20_28  and  O7_29 
REMARK    8  A    between atoms: C21_31  and  C22_32 
REMARK    9  A    between atoms: C22_32  and  O8_33 
ROOT
HETATM    1  C4  UNL     1      -7.002   9.558  17.405  1.00  0.00     0.198 C 
HETATM    2  F1  UNL     1      -7.726  10.762  17.173  1.00  0.00    -0.231 F 
HETATM    3  C5  UNL     1      -8.025   8.689  18.130  1.00  0.00     0.058 C 
HETATM    4  C6  UNL     1      -7.336   8.006  19.258  1.00  0.00     0.048 C 
HETATM    5  C7  UNL     1      -5.907   8.503  19.286  1.00  0.00     0.111 C 
HETATM    6  F2  UNL     1      -5.151   7.482  18.710  1.00  0.00    -0.242 F 
HETATM    7  C8  UNL     1      -5.395   8.691  20.661  1.00  0.00     0.045 C 
HETATM    8  C9  UNL     1      -5.105  10.082  21.126  1.00  0.00     0.019 C 
HETATM    9  C10 UNL     1      -3.953  10.759  20.523  1.00  0.00     0.026 C 
HETATM   10  C11 UNL     1      -2.741   9.864  20.343  1.00  0.00     0.022 C 
HETATM   11  C12 UNL     1      -3.428  11.987  21.180  1.00  0.00     0.102 C 
HETATM   12  C15 UNL     1      -2.876  12.746  19.954  1.00  0.00     0.172 C 
HETATM   13  O6  UNL     1      -2.978  11.866  18.877  1.00  0.00    -0.343 OA
HETATM   14  C20 UNL     1      -4.270  11.342  19.148  1.00  0.00     0.177 C 
HETATM   15  C21 UNL     1      -4.658  10.284  18.161  1.00  0.00     0.083 C 
HETATM   16  C23 UNL     1      -5.982   9.740  18.445  1.00  0.00     0.086 C 
ENDROOT
BRANCH   1  17
HETATM   17  C3  UNL     1      -6.684   8.904  16.153  1.00  0.00     0.301 C 
HETATM   18  O3  UNL     1      -6.917   9.503  15.073  1.00  0.00    -0.261 OA
BRANCH  17  19
HETATM   19  O2  UNL     1      -6.134   7.655  15.996  1.00  0.00    -0.293 OA
BRANCH  19  20
HETATM   20  C2  UNL     1      -6.828   6.534  15.492  1.00  0.00     0.347 C 
BRANCH  20  21
HETATM   21  O1  UNL     1      -6.114   5.399  15.854  1.00  0.00    -0.371 OA
HETATM   22  C1  UNL     1      -6.437   4.966  17.140  1.00  0.00     0.204 C 
ENDBRANCH  20  21
ENDBRANCH  19  20
ENDBRANCH  17  19
ENDBRANCH   1  17
BRANCH  15  23
HETATM   23  C22 UNL     1      -4.398  10.871  16.807  1.00  0.00     0.174 C 
BRANCH  23  24
HETATM   24  O8  UNL     1      -4.937  12.134  16.630  1.00  0.00    -0.400 OA
ATOM     25  H8  UNL     1      -4.350  12.748  16.204  1.00  0.00     0.209 HD
ENDBRANCH  23  24
ENDBRANCH  15  23
BRANCH  14  26
HETATM   26  O7  UNL     1      -5.087  12.426  19.182  1.00  0.00    -0.364 OA
ATOM     27  H7  UNL     1      -5.000  12.951  19.969  1.00  0.00     0.213 HD
ENDBRANCH  14  26
BRANCH  11  28
HETATM   28  C13 UNL     1      -4.319  12.811  21.965  1.00  0.00     0.131 C 
HETATM   29  C14 UNL     1      -4.844  12.427  23.282  1.00  0.00     0.091 C 
HETATM   30  O4  UNL     1      -4.675  13.894  21.536  1.00  0.00    -0.298 OA
ENDBRANCH  11  28
BRANCH  12  31
HETATM   31  C16 UNL     1      -1.515  13.239  20.160  1.00  0.00    -0.004 A 
HETATM   32  C17 UNL     1      -0.591  12.665  21.001  1.00  0.00     0.036 A 
HETATM   33  C18 UNL     1       0.557  13.433  20.898  1.00  0.00     0.142 A 
HETATM   34  O5  UNL     1       0.301  14.391  20.047  1.00  0.00    -0.334 OA
HETATM   35  C19 UNL     1      -0.920  14.313  19.582  1.00  0.00     0.151 A 
ENDBRANCH  12  31
TORSDOF 9
ENDMDL
