MODEL 1
REMARK VINA RESULT: -8.731881196      0.000      0.000
REMARK  8 active torsions:
REMARK  status: ('A' for Active; 'I' for Inactive)
REMARK    1  A    between atoms: C14_17  and  C15_18 
REMARK    2  A    between atoms: C15_18  and  C16_19 
REMARK    3  A    between atoms: C16_19  and  N1_20 
REMARK       I    between atoms: N1_20  and  C17_22 
REMARK    4  A    between atoms: C17_22  and  O5_24 
REMARK    5  A    between atoms: O5_24  and  C18_25 
REMARK    6  A    between atoms: C18_25  and  C19_26 
REMARK    7  A    between atoms: C21_31  and  O7_33 
REMARK    8  A    between atoms: O7_33  and  O8_34 
ROOT
HETATM    1  C1  UNL     1      -8.092  10.035  18.165  1.00  0.00     0.011 C 
HETATM    2  C2  UNL     1      -7.523   9.667  19.503  1.00  0.00    -0.007 C 
HETATM    3  C3  UNL     1      -7.391  10.851  20.442  1.00  0.00     0.006 C 
HETATM    4  C4  UNL     1      -6.357  11.837  20.058  1.00  0.00     0.017 C 
HETATM    5  C5  UNL     1      -4.944  11.417  20.314  1.00  0.00     0.034 C 
HETATM    6  C6  UNL     1      -4.894  10.239  21.215  1.00  0.00     0.094 C 
HETATM    7  C7  UNL     1      -5.581   9.030  20.760  1.00  0.00     0.132 C 
HETATM    8  O1  UNL     1      -5.530   8.113  21.560  1.00  0.00    -0.298 OA
HETATM    9  C8  UNL     1      -6.300   8.838  19.471  1.00  0.00     0.059 C 
HETATM   10  C9  UNL     1      -5.351   9.043  18.379  1.00  0.00     0.015 C 
HETATM   11  C10 UNL     1      -4.912  10.377  18.014  1.00  0.00     0.039 C 
HETATM   12  C11 UNL     1      -4.197  11.206  19.026  1.00  0.00     0.071 C 
HETATM   13  C12 UNL     1      -3.962  12.534  18.294  1.00  0.00     0.047 C 
HETATM   14  O2  UNL     1      -2.960  10.676  19.357  1.00  0.00    -0.347 OA
HETATM   15  C13 UNL     1      -2.133  11.504  20.050  1.00  0.00     0.296 C 
HETATM   16  O3  UNL     1      -1.184  10.706  20.736  1.00  0.00    -0.329 OA
HETATM   17  C14 UNL     1      -1.016  11.274  21.974  1.00  0.00     0.265 C 
HETATM   18  O6  UNL     1      -2.319  11.680  22.343  1.00  0.00    -0.348 OA
HETATM   19  C20 UNL     1      -2.736  12.285  21.156  1.00  0.00     0.218 C 
HETATM   20  C21 UNL     1      -4.194  12.525  21.074  1.00  0.00     0.134 C 
HETATM   21  C22 UNL     1      -4.711  12.586  22.522  1.00  0.00     0.053 C 
ENDROOT
BRANCH  17  22
HETATM   22  C15 UNL     1      -0.643  10.178  22.980  1.00  0.00     0.080 C 
BRANCH  22  23
HETATM   23  C16 UNL     1      -1.114  10.622  24.338  1.00  0.00     0.129 C 
BRANCH  23  24
HETATM   24  N1  UNL     1      -0.472   9.871  25.384  1.00  0.00    -0.337 N 
HETATM   25  C17 UNL     1      -1.263   9.291  26.407  1.00  0.00     0.360 C 
HETATM   26  O4  UNL     1      -2.510   9.424  26.410  1.00  0.00    -0.239 OA
ATOM     27  H1  UNL     1       0.542   9.758  25.390  1.00  0.00     0.164 HD
BRANCH  25  28
HETATM   28  O5  UNL     1      -0.688   8.561  27.435  1.00  0.00    -0.299 OA
BRANCH  28  29
HETATM   29  C18 UNL     1      -1.325   7.440  28.023  1.00  0.00     0.251 C 
BRANCH  29  30
HETATM   30  C19 UNL     1      -0.654   6.164  27.560  1.00  0.00     0.377 C 
HETATM   31  F1  UNL     1       0.369   5.807  28.412  1.00  0.00    -0.212 F 
HETATM   32  F2  UNL     1      -0.218   6.348  26.263  1.00  0.00    -0.212 F 
ENDBRANCH  29  30
ENDBRANCH  28  29
ENDBRANCH  25  28
ENDBRANCH  23  24
ENDBRANCH  22  23
ENDBRANCH  17  22
BRANCH  20  33
HETATM   33  O7  UNL     1      -4.550  13.773  20.537  1.00  0.00    -0.229 OA
BRANCH  33  34
HETATM   34  O8  UNL     1      -4.670  14.669  21.457  1.00  0.00    -0.250 OA
ATOM     35  H8  UNL     1      -5.565  14.728  21.773  1.00  0.00     0.253 HD
ENDBRANCH  33  34
ENDBRANCH  20  33
TORSDOF 8
ENDMDL
MODEL 2
REMARK VINA RESULT: -8.509698346      1.870      2.626
REMARK  8 active torsions:
REMARK  status: ('A' for Active; 'I' for Inactive)
REMARK    1  A    between atoms: C14_17  and  C15_18 
REMARK    2  A    between atoms: C15_18  and  C16_19 
REMARK    3  A    between atoms: C16_19  and  N1_20 
REMARK       I    between atoms: N1_20  and  C17_22 
REMARK    4  A    between atoms: C17_22  and  O5_24 
REMARK    5  A    between atoms: O5_24  and  C18_25 
REMARK    6  A    between atoms: C18_25  and  C19_26 
REMARK    7  A    between atoms: C21_31  and  O7_33 
REMARK    8  A    between atoms: O7_33  and  O8_34 
ROOT
HETATM    1  C1  UNL     1      -7.103   7.645  17.113  1.00  0.00     0.011 C 
HETATM    2  C2  UNL     1      -7.667   8.073  18.435  1.00  0.00    -0.007 C 
HETATM    3  C3  UNL     1      -8.098   9.526  18.458  1.00  0.00     0.006 C 
HETATM    4  C4  UNL     1      -6.990  10.505  18.397  1.00  0.00     0.017 C 
HETATM    5  C5  UNL     1      -6.207  10.668  19.661  1.00  0.00     0.034 C 
HETATM    6  C6  UNL     1      -6.924  10.064  20.812  1.00  0.00     0.094 C 
HETATM    7  C7  UNL     1      -7.226   8.635  20.725  1.00  0.00     0.132 C 
HETATM    8  O1  UNL     1      -7.844   8.211  21.686  1.00  0.00    -0.298 OA
HETATM    9  C8  UNL     1      -6.863   7.707  19.620  1.00  0.00     0.059 C 
HETATM   10  C9  UNL     1      -5.407   7.688  19.494  1.00  0.00     0.015 C 
HETATM   11  C10 UNL     1      -4.699   8.799  18.885  1.00  0.00     0.039 C 
HETATM   12  C11 UNL     1      -4.804  10.151  19.503  1.00  0.00     0.071 C 
HETATM   13  C12 UNL     1      -3.986  11.038  18.556  1.00  0.00     0.047 C 
HETATM   14  O2  UNL     1      -4.211  10.202  20.755  1.00  0.00    -0.347 OA
HETATM   15  C13 UNL     1      -4.015  11.448  21.262  1.00  0.00     0.296 C 
HETATM   16  O3  UNL     1      -3.902  11.339  22.671  1.00  0.00    -0.329 OA
HETATM   17  C14 UNL     1      -4.582  12.406  23.203  1.00  0.00     0.265 C 
HETATM   18  O6  UNL     1      -5.721  12.531  22.375  1.00  0.00    -0.348 OA
HETATM   19  C20 UNL     1      -5.128  12.416  21.117  1.00  0.00     0.218 C 
HETATM   20  C21 UNL     1      -6.083  12.161  20.015  1.00  0.00     0.134 C 
HETATM   21  C22 UNL     1      -7.450  12.685  20.488  1.00  0.00     0.053 C 
ENDROOT
BRANCH  17  22
HETATM   22  C15 UNL     1      -5.132  12.012  24.579  1.00  0.00     0.080 C 
BRANCH  22  23
HETATM   23  C16 UNL     1      -3.983  12.013  25.549  1.00  0.00     0.129 C 
BRANCH  23  24
HETATM   24  N1  UNL     1      -3.610  10.673  25.919  1.00  0.00    -0.337 N 
HETATM   25  C17 UNL     1      -2.290  10.224  25.663  1.00  0.00     0.360 C 
HETATM   26  O4  UNL     1      -1.448  10.978  25.121  1.00  0.00    -0.239 OA
ATOM     27  H1  UNL     1      -4.289  10.053  26.361  1.00  0.00     0.164 HD
BRANCH  25  28
HETATM   28  O5  UNL     1      -1.887   8.942  26.002  1.00  0.00    -0.299 OA
BRANCH  28  29
HETATM   29  C18 UNL     1      -1.278   8.637  27.244  1.00  0.00     0.251 C 
BRANCH  29  30
HETATM   30  C19 UNL     1      -2.172   7.712  28.042  1.00  0.00     0.377 C 
HETATM   31  F1  UNL     1      -3.153   8.421  28.702  1.00  0.00    -0.212 F 
HETATM   32  F2  UNL     1      -1.381   6.980  28.906  1.00  0.00    -0.212 F 
ENDBRANCH  29  30
ENDBRANCH  28  29
ENDBRANCH  25  28
ENDBRANCH  23  24
ENDBRANCH  22  23
ENDBRANCH  17  22
BRANCH  20  33
HETATM   33  O7  UNL     1      -5.829  12.892  18.843  1.00  0.00    -0.229 OA
BRANCH  33  34
HETATM   34  O8  UNL     1      -5.868  14.163  19.059  1.00  0.00    -0.250 OA
ATOM     35  H8  UNL     1      -5.254  14.421  19.737  1.00  0.00     0.253 HD
ENDBRANCH  33  34
ENDBRANCH  20  33
TORSDOF 8
ENDMDL
MODEL 3
REMARK VINA RESULT: -8.468889242      1.643      2.124
REMARK  8 active torsions:
REMARK  status: ('A' for Active; 'I' for Inactive)
REMARK    1  A    between atoms: C14_17  and  C15_18 
REMARK    2  A    between atoms: C15_18  and  C16_19 
REMARK    3  A    between atoms: C16_19  and  N1_20 
REMARK       I    between atoms: N1_20  and  C17_22 
REMARK    4  A    between atoms: C17_22  and  O5_24 
REMARK    5  A    between atoms: O5_24  and  C18_25 
REMARK    6  A    between atoms: C18_25  and  C19_26 
REMARK    7  A    between atoms: C21_31  and  O7_33 
REMARK    8  A    between atoms: O7_33  and  O8_34 
ROOT
HETATM    1  C1  UNL     1      -8.382   9.002  16.478  1.00  0.00     0.011 C 
HETATM    2  C2  UNL     1      -7.535   8.469  17.595  1.00  0.00    -0.007 C 
HETATM    3  C3  UNL     1      -7.743   9.203  18.906  1.00  0.00     0.006 C 
HETATM    4  C4  UNL     1      -7.236  10.593  18.927  1.00  0.00     0.017 C 
HETATM    5  C5  UNL     1      -5.751  10.733  19.031  1.00  0.00     0.034 C 
HETATM    6  C6  UNL     1      -5.122   9.451  19.435  1.00  0.00     0.094 C 
HETATM    7  C7  UNL     1      -5.343   8.302  18.557  1.00  0.00     0.132 C 
HETATM    8  O1  UNL     1      -4.828   7.275  18.963  1.00  0.00    -0.298 OA
HETATM    9  C8  UNL     1      -6.103   8.283  17.277  1.00  0.00     0.059 C 
HETATM   10  C9  UNL     1      -5.470   9.220  16.351  1.00  0.00     0.015 C 
HETATM   11  C10 UNL     1      -5.639  10.653  16.511  1.00  0.00     0.039 C 
HETATM   12  C11 UNL     1      -5.168  11.302  17.767  1.00  0.00     0.071 C 
HETATM   13  C12 UNL     1      -5.571  12.770  17.579  1.00  0.00     0.047 C 
HETATM   14  O2  UNL     1      -3.789  11.251  17.897  1.00  0.00    -0.347 OA
HETATM   15  C13 UNL     1      -3.260  12.055  18.858  1.00  0.00     0.296 C 
HETATM   16  O3  UNL     1      -1.990  11.537  19.216  1.00  0.00    -0.329 OA
HETATM   17  C14 UNL     1      -1.885  11.664  20.579  1.00  0.00     0.265 C 
HETATM   18  O6  UNL     1      -3.178  11.344  21.052  1.00  0.00    -0.348 OA
HETATM   19  C20 UNL     1      -3.958  12.089  20.166  1.00  0.00     0.218 C 
HETATM   20  C21 UNL     1      -5.391  11.719  20.157  1.00  0.00     0.134 C 
HETATM   21  C22 UNL     1      -5.684  11.063  21.518  1.00  0.00     0.053 C 
ENDROOT
BRANCH  17  22
HETATM   22  C15 UNL     1      -0.979  10.549  21.115  1.00  0.00     0.080 C 
BRANCH  22  23
HETATM   23  C16 UNL     1      -0.689  10.848  22.560  1.00  0.00     0.129 C 
BRANCH  23  24
HETATM   24  N1  UNL     1      -1.735  10.355  23.416  1.00  0.00    -0.337 N 
HETATM   25  C17 UNL     1      -1.465  10.146  24.792  1.00  0.00     0.360 C 
HETATM   26  O4  UNL     1      -0.330  10.384  25.268  1.00  0.00    -0.239 OA
ATOM     27  H1  UNL     1      -2.661  10.159  23.037  1.00  0.00     0.164 HD
BRANCH  25  28
HETATM   28  O5  UNL     1      -2.441   9.672  25.653  1.00  0.00    -0.299 OA
BRANCH  28  29
HETATM   29  C18 UNL     1      -2.263   9.628  27.058  1.00  0.00     0.251 C 
BRANCH  29  30
HETATM   30  C19 UNL     1      -1.789   8.252  27.475  1.00  0.00     0.377 C 
HETATM   31  F1  UNL     1      -2.393   7.857  28.650  1.00  0.00    -0.212 F 
HETATM   32  F2  UNL     1      -0.413   8.276  27.573  1.00  0.00    -0.212 F 
ENDBRANCH  29  30
ENDBRANCH  28  29
ENDBRANCH  25  28
ENDBRANCH  23  24
ENDBRANCH  22  23
ENDBRANCH  17  22
BRANCH  20  33
HETATM   33  O7  UNL     1      -6.274  12.810  20.112  1.00  0.00    -0.229 OA
BRANCH  33  34
HETATM   34  O8  UNL     1      -6.242  13.491  21.207  1.00  0.00    -0.250 OA
ATOM     35  H8  UNL     1      -6.525  12.972  21.950  1.00  0.00     0.253 HD
ENDBRANCH  33  34
ENDBRANCH  20  33
TORSDOF 8
ENDMDL
MODEL 4
REMARK VINA RESULT: -8.266056026      2.126      2.900
REMARK  8 active torsions:
REMARK  status: ('A' for Active; 'I' for Inactive)
REMARK    1  A    between atoms: C14_17  and  C15_18 
REMARK    2  A    between atoms: C15_18  and  C16_19 
REMARK    3  A    between atoms: C16_19  and  N1_20 
REMARK       I    between atoms: N1_20  and  C17_22 
REMARK    4  A    between atoms: C17_22  and  O5_24 
REMARK    5  A    between atoms: O5_24  and  C18_25 
REMARK    6  A    between atoms: C18_25  and  C19_26 
REMARK    7  A    between atoms: C21_31  and  O7_33 
REMARK    8  A    between atoms: O7_33  and  O8_34 
ROOT
HETATM    1  C1  UNL     1      -7.544   8.689  19.959  1.00  0.00     0.011 C 
HETATM    2  C2  UNL     1      -6.568   9.308  20.916  1.00  0.00    -0.007 C 
HETATM    3  C3  UNL     1      -6.802  10.791  21.131  1.00  0.00     0.006 C 
HETATM    4  C4  UNL     1      -6.495  11.645  19.964  1.00  0.00     0.017 C 
HETATM    5  C5  UNL     1      -5.040  11.867  19.696  1.00  0.00     0.034 C 
HETATM    6  C6  UNL     1      -4.217  11.461  20.863  1.00  0.00     0.094 C 
HETATM    7  C7  UNL     1      -4.324  10.067  21.294  1.00  0.00     0.132 C 
HETATM    8  O1  UNL     1      -3.649   9.810  22.275  1.00  0.00    -0.298 OA
HETATM    9  C8  UNL     1      -5.145   8.995  20.668  1.00  0.00     0.059 C 
HETATM   10  C9  UNL     1      -4.702   8.822  19.286  1.00  0.00     0.015 C 
HETATM   11  C10 UNL     1      -5.060   9.788  18.264  1.00  0.00     0.039 C 
HETATM   12  C11 UNL     1      -4.615  11.202  18.415  1.00  0.00     0.071 C 
HETATM   13  C12 UNL     1      -5.229  11.900  17.195  1.00  0.00     0.047 C 
HETATM   14  O2  UNL     1      -3.237  11.329  18.331  1.00  0.00    -0.347 OA
HETATM   15  C13 UNL     1      -2.772  12.598  18.179  1.00  0.00     0.296 C 
HETATM   16  O3  UNL     1      -1.424  12.629  18.616  1.00  0.00    -0.329 OA
HETATM   17  C14 UNL     1      -1.261  13.808  19.299  1.00  0.00     0.265 C 
HETATM   18  O6  UNL     1      -2.468  13.953  20.020  1.00  0.00    -0.348 OA
HETATM   19  C20 UNL     1      -3.393  13.648  19.021  1.00  0.00     0.218 C 
HETATM   20  C21 UNL     1      -4.758  13.369  19.520  1.00  0.00     0.134 C 
HETATM   21  C22 UNL     1      -4.879  14.071  20.884  1.00  0.00     0.053 C 
ENDROOT
BRANCH  17  22
HETATM   22  C15 UNL     1      -0.179  13.617  20.370  1.00  0.00     0.080 C 
BRANCH  22  23
HETATM   23  C16 UNL     1      -0.249  12.192  20.844  1.00  0.00     0.129 C 
BRANCH  23  24
HETATM   24  N1  UNL     1      -0.845  12.105  22.151  1.00  0.00    -0.337 N 
HETATM   25  C17 UNL     1      -0.626  10.946  22.937  1.00  0.00     0.360 C 
HETATM   26  O4  UNL     1       0.079  10.002  22.509  1.00  0.00    -0.239 OA
ATOM     27  H1  UNL     1      -1.420  12.868  22.507  1.00  0.00     0.164 HD
BRANCH  25  28
HETATM   28  O5  UNL     1      -1.181  10.818  24.201  1.00  0.00    -0.299 OA
BRANCH  28  29
HETATM   29  C18 UNL     1      -0.761   9.826  25.122  1.00  0.00     0.251 C 
BRANCH  29  30
HETATM   30  C19 UNL     1      -1.812   9.641  26.195  1.00  0.00     0.377 C 
HETATM   31  F1  UNL     1      -2.464  10.827  26.458  1.00  0.00    -0.212 F 
HETATM   32  F2  UNL     1      -1.202   9.116  27.317  1.00  0.00    -0.212 F 
ENDBRANCH  29  30
ENDBRANCH  28  29
ENDBRANCH  25  28
ENDBRANCH  23  24
ENDBRANCH  22  23
ENDBRANCH  17  22
BRANCH  20  33
HETATM   33  O7  UNL     1      -5.786  13.943  18.754  1.00  0.00    -0.229 OA
BRANCH  33  34
HETATM   34  O8  UNL     1      -5.694  15.229  18.723  1.00  0.00    -0.250 OA
ATOM     35  H8  UNL     1      -6.426  15.643  19.164  1.00  0.00     0.253 HD
ENDBRANCH  33  34
ENDBRANCH  20  33
TORSDOF 8
ENDMDL
MODEL 5
REMARK VINA RESULT: -8.232032662      1.260      1.524
REMARK  8 active torsions:
REMARK  status: ('A' for Active; 'I' for Inactive)
REMARK    1  A    between atoms: C14_17  and  C15_18 
REMARK    2  A    between atoms: C15_18  and  C16_19 
REMARK    3  A    between atoms: C16_19  and  N1_20 
REMARK       I    between atoms: N1_20  and  C17_22 
REMARK    4  A    between atoms: C17_22  and  O5_24 
REMARK    5  A    between atoms: O5_24  and  C18_25 
REMARK    6  A    between atoms: C18_25  and  C19_26 
REMARK    7  A    between atoms: C21_31  and  O7_33 
REMARK    8  A    between atoms: O7_33  and  O8_34 
ROOT
HETATM    1  C1  UNL     1      -8.109   9.007  17.033  1.00  0.00     0.011 C 
HETATM    2  C2  UNL     1      -8.099   9.089  18.530  1.00  0.00    -0.007 C 
HETATM    3  C3  UNL     1      -8.178  10.511  19.051  1.00  0.00     0.006 C 
HETATM    4  C4  UNL     1      -6.971  11.331  18.807  1.00  0.00     0.017 C 
HETATM    5  C5  UNL     1      -5.799  11.026  19.684  1.00  0.00     0.034 C 
HETATM    6  C6  UNL     1      -6.206  10.196  20.846  1.00  0.00     0.094 C 
HETATM    7  C7  UNL     1      -6.816   8.900  20.550  1.00  0.00     0.132 C 
HETATM    8  O1  UNL     1      -7.157   8.286  21.545  1.00  0.00    -0.298 OA
HETATM    9  C8  UNL     1      -7.046   8.302  19.206  1.00  0.00     0.059 C 
HETATM   10  C9  UNL     1      -5.753   8.155  18.540  1.00  0.00     0.015 C 
HETATM   11  C10 UNL     1      -5.067   9.308  17.986  1.00  0.00     0.039 C 
HETATM   12  C11 UNL     1      -4.671  10.421  18.894  1.00  0.00     0.071 C 
HETATM   13  C12 UNL     1      -4.043  11.448  17.943  1.00  0.00     0.047 C 
HETATM   14  O2  UNL     1      -3.700  10.034  19.805  1.00  0.00    -0.347 OA
HETATM   15  C13 UNL     1      -3.087  11.045  20.476  1.00  0.00     0.296 C 
HETATM   16  O3  UNL     1      -2.541  10.514  21.671  1.00  0.00    -0.329 OA
HETATM   17  C14 UNL     1      -2.762  11.449  22.652  1.00  0.00     0.265 C 
HETATM   18  O6  UNL     1      -4.057  11.941  22.368  1.00  0.00    -0.348 OA
HETATM   19  C20 UNL     1      -3.953  12.134  20.990  1.00  0.00     0.218 C 
HETATM   20  C21 UNL     1      -5.250  12.324  20.302  1.00  0.00     0.134 C 
HETATM   21  C22 UNL     1      -6.238  12.839  21.363  1.00  0.00     0.053 C 
ENDROOT
BRANCH  17  22
HETATM   22  C15 UNL     1      -2.897  10.733  24.001  1.00  0.00     0.080 C 
BRANCH  22  23
HETATM   23  C16 UNL     1      -1.510  10.461  24.516  1.00  0.00     0.129 C 
BRANCH  23  24
HETATM   24  N1  UNL     1      -1.541   9.994  25.877  1.00  0.00    -0.337 N 
HETATM   25  C17 UNL     1      -0.784   8.850  26.234  1.00  0.00     0.360 C 
HETATM   26  O4  UNL     1      -0.092   8.244  25.383  1.00  0.00    -0.239 OA
ATOM     27  H1  UNL     1      -2.101  10.481  26.577  1.00  0.00     0.164 HD
BRANCH  25  28
HETATM   28  O5  UNL     1      -0.784   8.363  27.532  1.00  0.00    -0.299 OA
BRANCH  28  29
HETATM   29  C18 UNL     1      -1.375   7.124  27.883  1.00  0.00     0.251 C 
BRANCH  29  30
HETATM   30  C19 UNL     1      -0.307   6.159  28.353  1.00  0.00     0.377 C 
HETATM   31  F1  UNL     1      -0.168   5.109  27.470  1.00  0.00    -0.212 F 
HETATM   32  F2  UNL     1      -0.632   5.736  29.626  1.00  0.00    -0.212 F 
ENDBRANCH  29  30
ENDBRANCH  28  29
ENDBRANCH  25  28
ENDBRANCH  23  24
ENDBRANCH  22  23
ENDBRANCH  17  22
BRANCH  20  33
HETATM   33  O7  UNL     1      -5.248  13.333  19.325  1.00  0.00    -0.229 OA
BRANCH  33  34
HETATM   34  O8  UNL     1      -4.730  14.426  19.773  1.00  0.00    -0.250 OA
ATOM     35  H8  UNL     1      -4.196  14.855  19.115  1.00  0.00     0.253 HD
ENDBRANCH  33  34
ENDBRANCH  20  33
TORSDOF 8
ENDMDL
