MODEL 1
REMARK VINA RESULT: -7.689337671      0.000      0.000
REMARK  8 active torsions:
REMARK  status: ('A' for Active; 'I' for Inactive)
REMARK    1  A    between atoms: N1_2  and  C2_4 
REMARK    2  A    between atoms: C3_7  and  N3_8 
REMARK    3  A    between atoms: C4_13  and  N5_14 
REMARK    4  A    between atoms: N5_14  and  C5_16 
REMARK    5  A    between atoms: C5_16  and  C6_17 
REMARK    6  A    between atoms: C6_17  and  C7_18 
REMARK    7  A    between atoms: C7_18  and  C8_19 
REMARK    8  A    between atoms: C10_23  and  N7_24 
ROOT
HETATM    1  N7  UNL     1       2.432  77.188  23.200  1.00  0.00    -0.265 N 
ATOM      2  H7  UNL     1       2.217  76.723  22.318  1.00  0.00     0.181 HD
HETATM    3  C11 UNL     1       3.501  76.763  23.990  1.00  0.00     0.184 C 
HETATM    4  N8  UNL     1       4.396  76.394  24.651  1.00  0.00    -0.172 NA
ENDROOT
BRANCH   1   5
HETATM    5  C10 UNL     1       1.650  78.289  23.658  1.00  0.00     0.184 C 
HETATM    6  N6  UNL     1       2.049  79.391  24.245  1.00  0.00    -0.360 N 
HETATM    7  C9  UNL     1       0.877  80.232  24.534  1.00  0.00     0.147 C 
ATOM      8  H6  UNL     1       3.016  79.627  24.466  1.00  0.00     0.162 HD
HETATM    9  C8  UNL     1      -0.034  79.779  23.348  1.00  0.00     0.102 C 
HETATM   10  N9  UNL     1       0.223  78.340  23.529  1.00  0.00    -0.355 N 
ATOM     11  H9  UNL     1      -0.447  77.571  23.556  1.00  0.00     0.163 HD
BRANCH   9  12
HETATM   12  C7  UNL     1      -1.438  80.177  23.597  1.00  0.00     0.028 C 
BRANCH  12  13
HETATM   13  C6  UNL     1      -2.269  79.079  24.125  1.00  0.00     0.022 C 
BRANCH  13  14
HETATM   14  C5  UNL     1      -3.752  79.184  23.973  1.00  0.00     0.138 C 
BRANCH  14  15
HETATM   15  N5  UNL     1      -4.359  77.924  24.434  1.00  0.00    -0.225 N 
ATOM     16  H5  UNL     1      -4.549  77.821  25.432  1.00  0.00     0.177 HD
BRANCH  15  17
HETATM   17  C4  UNL     1      -4.661  76.958  23.666  1.00  0.00     0.707 A 
HETATM   18  N4  UNL     1      -4.774  75.720  24.151  1.00  0.00    -0.022 N 
HETATM   19  C3  UNL     1      -5.094  74.708  23.324  1.00  0.00     0.705 A 
ATOM     20  H4  UNL     1      -4.618  75.542  25.143  1.00  0.00     0.203 HD
HETATM   21  N2  UNL     1      -5.300  74.921  22.029  1.00  0.00    -0.022 N 
HETATM   22  C2  UNL     1      -5.196  76.157  21.494  1.00  0.00     0.706 A 
ATOM     23  H2  UNL     1      -5.541  74.135  21.427  1.00  0.00     0.203 HD
HETATM   24  N10 UNL     1      -4.879  77.139  22.337  1.00  0.00    -0.022 N 
ATOM     25  H10 UNL     1      -4.793  78.083  21.961  1.00  0.00     0.203 HD
BRANCH  19  26
HETATM   26  N3  UNL     1      -5.217  73.485  23.744  1.00  0.00    -0.234 N 
ATOM     27  H32 UNL     1      -4.512  72.772  23.554  1.00  0.00     0.174 HD
ATOM     28  H31 UNL     1      -6.056  73.263  24.279  1.00  0.00     0.174 HD
ENDBRANCH  19  26
BRANCH  22  29
HETATM   29  N1  UNL     1      -5.404  76.301  20.250  1.00  0.00    -0.229 N 
HETATM   30  C1  UNL     1      -6.183  75.430  19.424  1.00  0.00     0.165 C 
ATOM     31  H1  UNL     1      -4.976  77.110  19.798  1.00  0.00     0.177 HD
ENDBRANCH  22  29
ENDBRANCH  15  17
ENDBRANCH  14  15
ENDBRANCH  13  14
ENDBRANCH  12  13
ENDBRANCH   9  12
ENDBRANCH   1   5
TORSDOF 8
ENDMDL
MODEL 2
REMARK VINA RESULT: -7.633187299      1.602      7.716
REMARK  8 active torsions:
REMARK  status: ('A' for Active; 'I' for Inactive)
REMARK    1  A    between atoms: N1_2  and  C2_4 
REMARK    2  A    between atoms: C3_7  and  N3_8 
REMARK    3  A    between atoms: C4_13  and  N5_14 
REMARK    4  A    between atoms: N5_14  and  C5_16 
REMARK    5  A    between atoms: C5_16  and  C6_17 
REMARK    6  A    between atoms: C6_17  and  C7_18 
REMARK    7  A    between atoms: C7_18  and  C8_19 
REMARK    8  A    between atoms: C10_23  and  N7_24 
ROOT
HETATM    1  N7  UNL     1      -6.737  75.156  22.302  1.00  0.00    -0.265 N 
ATOM      2  H7  UNL     1      -7.560  74.879  22.838  1.00  0.00     0.181 HD
HETATM    3  C11 UNL     1      -6.864  75.662  21.007  1.00  0.00     0.184 C 
HETATM    4  N8  UNL     1      -6.979  76.078  19.918  1.00  0.00    -0.172 NA
ENDROOT
BRANCH   1   5
HETATM    5  C10 UNL     1      -5.428  75.036  22.855  1.00  0.00     0.184 C 
HETATM    6  N6  UNL     1      -4.448  74.252  22.479  1.00  0.00    -0.360 N 
HETATM    7  C9  UNL     1      -3.287  74.482  23.353  1.00  0.00     0.147 C 
ATOM      8  H6  UNL     1      -4.483  73.589  21.705  1.00  0.00     0.162 HD
HETATM    9  C8  UNL     1      -3.544  75.985  23.692  1.00  0.00     0.102 C 
HETATM   10  N9  UNL     1      -4.979  75.811  23.974  1.00  0.00    -0.355 N 
ATOM     11  H9  UNL     1      -5.519  76.156  24.768  1.00  0.00     0.163 HD
BRANCH   9  12
HETATM   12  C7  UNL     1      -2.743  76.391  24.869  1.00  0.00     0.028 C 
BRANCH  12  13
HETATM   13  C6  UNL     1      -2.880  77.821  25.201  1.00  0.00     0.022 C 
BRANCH  13  14
HETATM   14  C5  UNL     1      -2.132  78.812  24.369  1.00  0.00     0.138 C 
BRANCH  14  15
HETATM   15  N5  UNL     1      -0.694  78.665  24.646  1.00  0.00    -0.225 N 
ATOM     16  H5  UNL     1      -0.404  78.532  25.616  1.00  0.00     0.177 HD
BRANCH  15  17
HETATM   17  C4  UNL     1       0.208  78.694  23.752  1.00  0.00     0.707 A 
HETATM   18  N4  UNL     1       0.020  79.384  22.625  1.00  0.00    -0.022 N 
HETATM   19  C3  UNL     1       0.984  79.404  21.687  1.00  0.00     0.705 A 
ATOM     20  H4  UNL     1      -0.851  79.894  22.476  1.00  0.00     0.203 HD
HETATM   21  N2  UNL     1       2.124  78.746  21.864  1.00  0.00    -0.022 N 
HETATM   22  C2  UNL     1       2.359  78.033  22.987  1.00  0.00     0.706 A 
ATOM     23  H2  UNL     1       2.837  78.779  21.136  1.00  0.00     0.203 HD
HETATM   24  N10 UNL     1       1.386  78.032  23.898  1.00  0.00    -0.022 N 
ATOM     25  H10 UNL     1       1.535  77.503  24.757  1.00  0.00     0.203 HD
BRANCH  19  26
HETATM   26  N3  UNL     1       0.852  80.060  20.574  1.00  0.00    -0.234 N 
ATOM     27  H32 UNL     1       0.987  81.070  20.520  1.00  0.00     0.174 HD
ATOM     28  H31 UNL     1       0.605  79.519  19.746  1.00  0.00     0.174 HD
ENDBRANCH  19  26
BRANCH  22  29
HETATM   29  N1  UNL     1       3.467  77.424  23.102  1.00  0.00    -0.229 N 
HETATM   30  C1  UNL     1       3.955  76.790  24.288  1.00  0.00     0.165 C 
ATOM     31  H1  UNL     1       4.062  77.383  22.274  1.00  0.00     0.177 HD
ENDBRANCH  22  29
ENDBRANCH  15  17
ENDBRANCH  14  15
ENDBRANCH  13  14
ENDBRANCH  12  13
ENDBRANCH   9  12
ENDBRANCH   1   5
TORSDOF 8
ENDMDL
MODEL 3
REMARK VINA RESULT: -7.577601302      1.933      7.588
REMARK  8 active torsions:
REMARK  status: ('A' for Active; 'I' for Inactive)
REMARK    1  A    between atoms: N1_2  and  C2_4 
REMARK    2  A    between atoms: C3_7  and  N3_8 
REMARK    3  A    between atoms: C4_13  and  N5_14 
REMARK    4  A    between atoms: N5_14  and  C5_16 
REMARK    5  A    between atoms: C5_16  and  C6_17 
REMARK    6  A    between atoms: C6_17  and  C7_18 
REMARK    7  A    between atoms: C7_18  and  C8_19 
REMARK    8  A    between atoms: C10_23  and  N7_24 
ROOT
HETATM    1  N7  UNL     1      -6.725  75.187  22.248  1.00  0.00    -0.265 N 
ATOM      2  H7  UNL     1      -7.545  74.924  22.794  1.00  0.00     0.181 HD
HETATM    3  C11 UNL     1      -6.857  75.688  20.952  1.00  0.00     0.184 C 
HETATM    4  N8  UNL     1      -6.979  76.101  19.862  1.00  0.00    -0.172 NA
ENDROOT
BRANCH   1   5
HETATM    5  C10 UNL     1      -5.411  75.051  22.787  1.00  0.00     0.184 C 
HETATM    6  N6  UNL     1      -4.413  74.329  22.343  1.00  0.00    -0.360 N 
HETATM    7  C9  UNL     1      -3.256  74.510  23.234  1.00  0.00     0.147 C 
ATOM      8  H6  UNL     1      -4.433  73.736  21.513  1.00  0.00     0.162 HD
HETATM    9  C8  UNL     1      -3.549  75.969  23.705  1.00  0.00     0.102 C 
HETATM   10  N9  UNL     1      -4.979  75.735  23.971  1.00  0.00    -0.355 N 
ATOM     11  H9  UNL     1      -5.526  75.995  24.793  1.00  0.00     0.163 HD
BRANCH   9  12
HETATM   12  C7  UNL     1      -2.756  76.289  24.913  1.00  0.00     0.028 C 
BRANCH  12  13
HETATM   13  C6  UNL     1      -2.517  77.734  25.086  1.00  0.00     0.022 C 
BRANCH  13  14
HETATM   14  C5  UNL     1      -1.103  78.217  25.101  1.00  0.00     0.138 C 
BRANCH  14  15
HETATM   15  N5  UNL     1      -0.782  78.765  23.772  1.00  0.00    -0.225 N 
ATOM     16  H5  UNL     1      -1.535  79.201  23.239  1.00  0.00     0.177 HD
BRANCH  15  17
HETATM   17  C4  UNL     1       0.376  78.727  23.250  1.00  0.00     0.707 A 
HETATM   18  N4  UNL     1       1.330  77.959  23.778  1.00  0.00    -0.022 N 
HETATM   19  C3  UNL     1       2.551  77.930  23.214  1.00  0.00     0.705 A 
ATOM     20  H4  UNL     1       1.134  77.396  24.607  1.00  0.00     0.203 HD
HETATM   21  N2  UNL     1       2.823  78.656  22.136  1.00  0.00    -0.022 N 
HETATM   22  C2  UNL     1       1.889  79.449  21.567  1.00  0.00     0.706 A 
ATOM     23  H2  UNL     1       3.757  78.614  21.729  1.00  0.00     0.203 HD
HETATM   24  N10 UNL     1       0.690  79.457  22.147  1.00  0.00    -0.022 N 
ATOM     25  H10 UNL     1      -0.035  80.046  21.740  1.00  0.00     0.203 HD
BRANCH  19  26
HETATM   26  N3  UNL     1       3.514  77.199  23.688  1.00  0.00    -0.234 N 
ATOM     27  H32 UNL     1       4.428  77.145  23.236  1.00  0.00     0.174 HD
ATOM     28  H31 UNL     1       3.319  76.675  24.540  1.00  0.00     0.174 HD
ENDBRANCH  19  26
BRANCH  22  29
HETATM   29  N1  UNL     1       2.207  80.122  20.537  1.00  0.00    -0.229 N 
HETATM   30  C1  UNL     1       1.433  80.232  19.338  1.00  0.00     0.165 C 
ATOM     31  H1  UNL     1       3.092  80.628  20.567  1.00  0.00     0.177 HD
ENDBRANCH  22  29
ENDBRANCH  15  17
ENDBRANCH  14  15
ENDBRANCH  13  14
ENDBRANCH  12  13
ENDBRANCH   9  12
ENDBRANCH   1   5
TORSDOF 8
ENDMDL
MODEL 4
REMARK VINA RESULT: -7.543356948      1.703      7.868
REMARK  8 active torsions:
REMARK  status: ('A' for Active; 'I' for Inactive)
REMARK    1  A    between atoms: N1_2  and  C2_4 
REMARK    2  A    between atoms: C3_7  and  N3_8 
REMARK    3  A    between atoms: C4_13  and  N5_14 
REMARK    4  A    between atoms: N5_14  and  C5_16 
REMARK    5  A    between atoms: C5_16  and  C6_17 
REMARK    6  A    between atoms: C6_17  and  C7_18 
REMARK    7  A    between atoms: C7_18  and  C8_19 
REMARK    8  A    between atoms: C10_23  and  N7_24 
ROOT
HETATM    1  N7  UNL     1      -6.119  74.891  19.465  1.00  0.00    -0.265 N 
ATOM      2  H7  UNL     1      -6.719  74.098  19.238  1.00  0.00     0.181 HD
HETATM    3  C11 UNL     1      -5.603  75.709  18.459  1.00  0.00     0.184 C 
HETATM    4  N8  UNL     1      -5.168  76.385  17.606  1.00  0.00    -0.172 NA
ENDROOT
BRANCH   1   5
HETATM    5  C10 UNL     1      -5.784  75.193  20.818  1.00  0.00     0.184 C 
HETATM    6  N6  UNL     1      -6.583  75.357  21.843  1.00  0.00    -0.360 N 
HETATM    7  C9  UNL     1      -5.777  75.656  23.037  1.00  0.00     0.147 C 
ATOM      8  H6  UNL     1      -7.601  75.289  21.818  1.00  0.00     0.162 HD
HETATM    9  C8  UNL     1      -4.486  74.866  22.651  1.00  0.00     0.102 C 
HETATM   10  N9  UNL     1      -4.435  75.370  21.268  1.00  0.00    -0.355 N 
ATOM     11  H9  UNL     1      -3.637  75.750  20.757  1.00  0.00     0.163 HD
BRANCH   9  12
HETATM   12  C7  UNL     1      -3.348  75.298  23.493  1.00  0.00     0.028 C 
BRANCH  12  13
HETATM   13  C6  UNL     1      -3.570  76.600  24.148  1.00  0.00     0.022 C 
BRANCH  13  14
HETATM   14  C5  UNL     1      -2.420  77.236  24.858  1.00  0.00     0.138 C 
BRANCH  14  15
HETATM   15  N5  UNL     1      -1.864  78.292  23.995  1.00  0.00    -0.225 N 
ATOM     16  H5  UNL     1      -2.489  78.744  23.327  1.00  0.00     0.177 HD
BRANCH  15  17
HETATM   17  C4  UNL     1      -0.652  78.673  24.032  1.00  0.00     0.707 A 
HETATM   18  N4  UNL     1      -0.327  79.835  24.602  1.00  0.00    -0.022 N 
HETATM   19  C3  UNL     1       0.960  80.226  24.632  1.00  0.00     0.705 A 
ATOM     20  H4  UNL     1      -1.052  80.425  25.012  1.00  0.00     0.203 HD
HETATM   21  N2  UNL     1       1.916  79.471  24.102  1.00  0.00    -0.022 N 
HETATM   22  C2  UNL     1       1.635  78.288  23.514  1.00  0.00     0.706 A 
ATOM     23  H2  UNL     1       2.883  79.792  24.140  1.00  0.00     0.203 HD
HETATM   24  N10 UNL     1       0.352  77.928  23.500  1.00  0.00    -0.022 N 
ATOM     25  H10 UNL     1       0.109  77.039  23.063  1.00  0.00     0.203 HD
BRANCH  19  26
HETATM   26  N3  UNL     1       1.330  81.347  25.174  1.00  0.00    -0.234 N 
ATOM     27  H32 UNL     1       2.125  81.882  24.826  1.00  0.00     0.174 HD
ATOM     28  H31 UNL     1       0.786  81.674  25.972  1.00  0.00     0.174 HD
ENDBRANCH  19  26
BRANCH  22  29
HETATM   29  N1  UNL     1       2.589  77.609  23.024  1.00  0.00    -0.229 N 
HETATM   30  C1  UNL     1       3.752  77.167  23.733  1.00  0.00     0.165 C 
ATOM     31  H1  UNL     1       2.522  77.356  22.038  1.00  0.00     0.177 HD
ENDBRANCH  22  29
ENDBRANCH  15  17
ENDBRANCH  14  15
ENDBRANCH  13  14
ENDBRANCH  12  13
ENDBRANCH   9  12
ENDBRANCH   1   5
TORSDOF 8
ENDMDL
MODEL 5
REMARK VINA RESULT: -7.490536499      1.808      7.878
REMARK  8 active torsions:
REMARK  status: ('A' for Active; 'I' for Inactive)
REMARK    1  A    between atoms: N1_2  and  C2_4 
REMARK    2  A    between atoms: C3_7  and  N3_8 
REMARK    3  A    between atoms: C4_13  and  N5_14 
REMARK    4  A    between atoms: N5_14  and  C5_16 
REMARK    5  A    between atoms: C5_16  and  C6_17 
REMARK    6  A    between atoms: C6_17  and  C7_18 
REMARK    7  A    between atoms: C7_18  and  C8_19 
REMARK    8  A    between atoms: C10_23  and  N7_24 
ROOT
HETATM    1  N7  UNL     1      -6.105  74.876  19.411  1.00  0.00    -0.265 N 
ATOM      2  H7  UNL     1      -6.720  74.094  19.186  1.00  0.00     0.181 HD
HETATM    3  C11 UNL     1      -5.563  75.674  18.403  1.00  0.00     0.184 C 
HETATM    4  N8  UNL     1      -5.107  76.334  17.548  1.00  0.00    -0.172 NA
ENDROOT
BRANCH   1   5
HETATM    5  C10 UNL     1      -5.774  75.182  20.765  1.00  0.00     0.184 C 
HETATM    6  N6  UNL     1      -6.577  75.372  21.782  1.00  0.00    -0.360 N 
HETATM    7  C9  UNL     1      -5.774  75.664  22.980  1.00  0.00     0.147 C 
ATOM      8  H6  UNL     1      -7.596  75.324  21.750  1.00  0.00     0.162 HD
HETATM    9  C8  UNL     1      -4.497  74.844  22.610  1.00  0.00     0.102 C 
HETATM   10  N9  UNL     1      -4.424  75.335  21.223  1.00  0.00    -0.355 N 
ATOM     11  H9  UNL     1      -3.615  75.694  20.715  1.00  0.00     0.163 HD
BRANCH   9  12
HETATM   12  C7  UNL     1      -3.356  75.260  23.457  1.00  0.00     0.028 C 
BRANCH  12  13
HETATM   13  C6  UNL     1      -3.564  76.563  24.115  1.00  0.00     0.022 C 
BRANCH  13  14
HETATM   14  C5  UNL     1      -2.399  77.201  24.799  1.00  0.00     0.138 C 
BRANCH  14  15
HETATM   15  N5  UNL     1      -1.826  78.216  23.898  1.00  0.00    -0.225 N 
ATOM     16  H5  UNL     1      -2.429  78.608  23.174  1.00  0.00     0.177 HD
BRANCH  15  17
HETATM   17  C4  UNL     1      -0.628  78.633  23.969  1.00  0.00     0.707 A 
HETATM   18  N4  UNL     1       0.369  77.912  23.454  1.00  0.00    -0.022 N 
HETATM   19  C3  UNL     1       1.633  78.366  23.538  1.00  0.00     0.705 A 
ATOM     20  H4  UNL     1       0.174  77.019  22.999  1.00  0.00     0.203 HD
HETATM   21  N2  UNL     1       1.904  79.525  24.127  1.00  0.00    -0.022 N 
HETATM   22  C2  UNL     1       0.928  80.289  24.663  1.00  0.00     0.706 A 
ATOM     23  H2  UNL     1       2.871  79.845  24.175  1.00  0.00     0.203 HD
HETATM   24  N10 UNL     1      -0.312  79.813  24.565  1.00  0.00    -0.022 N 
ATOM     25  H10 UNL     1      -1.071  80.368  24.960  1.00  0.00     0.203 HD
BRANCH  19  26
HETATM   26  N3  UNL     1       2.639  77.704  23.052  1.00  0.00    -0.234 N 
ATOM     27  H32 UNL     1       3.602  77.903  23.324  1.00  0.00     0.174 HD
ATOM     28  H31 UNL     1       2.425  76.968  22.380  1.00  0.00     0.174 HD
ENDBRANCH  19  26
BRANCH  22  29
HETATM   29  N1  UNL     1       1.248  81.387  25.214  1.00  0.00    -0.229 N 
HETATM   30  C1  UNL     1       0.433  82.563  25.270  1.00  0.00     0.165 C 
ATOM     31  H1  UNL     1       2.166  81.437  25.655  1.00  0.00     0.177 HD
ENDBRANCH  22  29
ENDBRANCH  15  17
ENDBRANCH  14  15
ENDBRANCH  13  14
ENDBRANCH  12  13
ENDBRANCH   9  12
ENDBRANCH   1   5
TORSDOF 8
ENDMDL
