MODEL 1
REMARK VINA RESULT: -7.941399405      0.000      0.000
REMARK  7 active torsions:
REMARK  status: ('A' for Active; 'I' for Inactive)
REMARK    1  A    between atoms: N3_4  and  C2_6 
REMARK    2  A    between atoms: C2_6  and  C3_7 
REMARK    3  A    between atoms: C3_7  and  O1_8 
REMARK    4  A    between atoms: O1_8  and  C4_9 
REMARK    5  A    between atoms: C5_12  and  N5_13 
REMARK    6  A    between atoms: N5_13  and  O2_15 
REMARK    7  A    between atoms: C7_21  and  C8_22 
ROOT
HETATM    1  C4  UNL     1       0.983  78.773  23.525  1.00  0.00     0.177 A 
HETATM    2  N4  UNL     1       1.951  77.916  23.897  1.00  0.00    -0.167 N 
ATOM      3  H4  UNL     1       1.819  77.342  24.729  1.00  0.00     0.186 HD
HETATM    4  C5  UNL     1       3.094  77.803  23.188  1.00  0.00     0.706 A 
HETATM    5  N6  UNL     1       3.277  78.555  22.095  1.00  0.00    -0.153 N 
ATOM      6  H6  UNL     1       4.142  78.467  21.562  1.00  0.00     0.187 HD
HETATM    7  C6  UNL     1       2.345  79.412  21.699  1.00  0.00     0.278 A 
HETATM    8  O3  UNL     1       2.528  80.120  20.660  1.00  0.00    -0.266 OA
HETATM    9  C7  UNL     1       1.152  79.568  22.388  1.00  0.00     0.127 A 
ENDROOT
BRANCH   1  10
HETATM   10  O1  UNL     1      -0.177  78.918  24.204  1.00  0.00    -0.333 OA
BRANCH  10  11
HETATM   11  C3  UNL     1      -1.317  78.180  24.350  1.00  0.00     0.197 C 
BRANCH  11  12
HETATM   12  C2  UNL     1      -2.628  78.903  24.234  1.00  0.00     0.148 C 
BRANCH  12  13
HETATM   13  N3  UNL     1      -3.718  77.971  23.921  1.00  0.00    -0.365 N 
HETATM   14  C1  UNL     1      -4.425  77.405  24.835  1.00  0.00     0.197 C 
HETATM   15  N1  UNL     1      -5.447  76.525  24.402  1.00  0.00    -0.067 NA
HETATM   16  N2  UNL     1      -4.156  77.680  26.199  1.00  0.00    -0.067 NA
ATOM     17  H3  UNL     1      -3.923  77.765  22.944  1.00  0.00     0.161 HD
ENDBRANCH  12  13
ENDBRANCH  11  12
ENDBRANCH  10  11
ENDBRANCH   1  10
BRANCH   9  18
HETATM   18  C8  UNL     1       0.141  80.528  21.934  1.00  0.00     0.117 C 
HETATM   19  N7  UNL     1      -0.455  80.521  20.773  1.00  0.00    -0.374 N 
HETATM   20  C9  UNL     1      -1.387  81.615  20.678  1.00  0.00     0.141 C 
ATOM     21  H7  UNL     1      -0.285  79.838  20.035  1.00  0.00     0.161 HD
HETATM   22  C10 UNL     1      -1.668  81.930  22.141  1.00  0.00     0.141 C 
HETATM   23  N8  UNL     1      -0.334  81.623  22.692  1.00  0.00    -0.374 N 
ATOM     24  H8  UNL     1       0.144  82.100  23.457  1.00  0.00     0.161 HD
ENDBRANCH   9  18
BRANCH   4  25
HETATM   25  N5  UNL     1       4.008  76.957  23.587  1.00  0.00    -0.098 N 
ATOM     26  H5  UNL     1       4.816  76.746  23.000  1.00  0.00     0.213 HD
BRANCH  25  27
HETATM   27  O2  UNL     1       3.855  76.361  24.809  1.00  0.00    -0.276 OA
ATOM     28  H2  UNL     1       3.972  75.420  24.872  1.00  0.00     0.245 HD
ENDBRANCH  25  27
ENDBRANCH   4  25
TORSDOF 7
ENDMDL
MODEL 2
REMARK VINA RESULT: -7.874554436      1.058      1.340
REMARK  7 active torsions:
REMARK  status: ('A' for Active; 'I' for Inactive)
REMARK    1  A    between atoms: N3_4  and  C2_6 
REMARK    2  A    between atoms: C2_6  and  C3_7 
REMARK    3  A    between atoms: C3_7  and  O1_8 
REMARK    4  A    between atoms: O1_8  and  C4_9 
REMARK    5  A    between atoms: C5_12  and  N5_13 
REMARK    6  A    between atoms: N5_13  and  O2_15 
REMARK    7  A    between atoms: C7_21  and  C8_22 
ROOT
HETATM    1  C4  UNL     1       1.191  79.130  23.604  1.00  0.00     0.177 A 
HETATM    2  N4  UNL     1       2.133  78.249  23.987  1.00  0.00    -0.167 N 
ATOM      3  H4  UNL     1       2.115  77.879  24.937  1.00  0.00     0.186 HD
HETATM    4  C5  UNL     1       3.101  77.848  23.138  1.00  0.00     0.706 A 
HETATM    5  N6  UNL     1       3.134  78.330  21.889  1.00  0.00    -0.153 N 
ATOM      6  H6  UNL     1       3.867  78.025  21.249  1.00  0.00     0.187 HD
HETATM    7  C6  UNL     1       2.223  79.202  21.476  1.00  0.00     0.278 A 
HETATM    8  O3  UNL     1       2.263  79.653  20.289  1.00  0.00    -0.266 OA
HETATM    9  C7  UNL     1       1.206  79.648  22.306  1.00  0.00     0.127 A 
ENDROOT
BRANCH   1  10
HETATM   10  O1  UNL     1       0.204  79.559  24.421  1.00  0.00    -0.333 OA
BRANCH  10  11
HETATM   11  C3  UNL     1      -0.818  78.966  25.106  1.00  0.00     0.197 C 
BRANCH  11  12
HETATM   12  C2  UNL     1      -2.087  78.689  24.351  1.00  0.00     0.148 C 
BRANCH  12  13
HETATM   13  N3  UNL     1      -2.223  77.257  24.059  1.00  0.00    -0.365 N 
HETATM   14  C1  UNL     1      -2.633  76.409  24.935  1.00  0.00     0.197 C 
HETATM   15  N1  UNL     1      -2.720  75.055  24.527  1.00  0.00    -0.067 NA
HETATM   16  N2  UNL     1      -2.970  76.856  26.237  1.00  0.00    -0.067 NA
ATOM     17  H3  UNL     1      -1.985  76.922  23.125  1.00  0.00     0.161 HD
ENDBRANCH  12  13
ENDBRANCH  11  12
ENDBRANCH  10  11
ENDBRANCH   1  10
BRANCH   9  18
HETATM   18  C8  UNL     1       0.216  80.617  21.828  1.00  0.00     0.117 C 
HETATM   19  N7  UNL     1      -0.103  81.740  22.414  1.00  0.00    -0.374 N 
HETATM   20  C9  UNL     1      -1.112  82.434  21.658  1.00  0.00     0.141 C 
ATOM     21  H7  UNL     1       0.307  82.078  23.285  1.00  0.00     0.161 HD
HETATM   22  C10 UNL     1      -0.940  81.844  20.265  1.00  0.00     0.141 C 
HETATM   23  N8  UNL     1      -0.559  80.473  20.654  1.00  0.00    -0.374 N 
ATOM     24  H8  UNL     1      -0.803  79.604  20.177  1.00  0.00     0.161 HD
ENDBRANCH   9  18
BRANCH   4  25
HETATM   25  N5  UNL     1       3.997  76.989  23.553  1.00  0.00    -0.098 N 
ATOM     26  H5  UNL     1       4.827  76.789  22.996  1.00  0.00     0.213 HD
BRANCH  25  27
HETATM   27  O2  UNL     1       3.792  76.366  24.754  1.00  0.00    -0.276 OA
ATOM     28  H2  UNL     1       4.550  76.057  25.238  1.00  0.00     0.245 HD
ENDBRANCH  25  27
ENDBRANCH   4  25
TORSDOF 7
ENDMDL
MODEL 3
REMARK VINA RESULT: -7.475486288      5.534      6.947
REMARK  7 active torsions:
REMARK  status: ('A' for Active; 'I' for Inactive)
REMARK    1  A    between atoms: N3_4  and  C2_6 
REMARK    2  A    between atoms: C2_6  and  C3_7 
REMARK    3  A    between atoms: C3_7  and  O1_8 
REMARK    4  A    between atoms: O1_8  and  C4_9 
REMARK    5  A    between atoms: C5_12  and  N5_13 
REMARK    6  A    between atoms: N5_13  and  O2_15 
REMARK    7  A    between atoms: C7_21  and  C8_22 
ROOT
HETATM    1  C4  UNL     1      -5.503  76.523  23.341  1.00  0.00     0.177 A 
HETATM    2  N4  UNL     1      -4.691  76.768  24.385  1.00  0.00    -0.167 N 
ATOM      3  H4  UNL     1      -4.995  77.413  25.114  1.00  0.00     0.186 HD
HETATM    4  C5  UNL     1      -3.482  76.178  24.485  1.00  0.00     0.706 A 
HETATM    5  N6  UNL     1      -3.074  75.331  23.531  1.00  0.00    -0.153 N 
ATOM      6  H6  UNL     1      -2.159  74.886  23.609  1.00  0.00     0.187 HD
HETATM    7  C6  UNL     1      -3.846  75.065  22.486  1.00  0.00     0.278 A 
HETATM    8  O3  UNL     1      -3.449  74.260  21.587  1.00  0.00    -0.266 OA
HETATM    9  C7  UNL     1      -5.097  75.643  22.333  1.00  0.00     0.127 A 
ENDROOT
BRANCH   1  10
HETATM   10  O1  UNL     1      -6.720  77.091  23.200  1.00  0.00    -0.333 OA
BRANCH  10  11
HETATM   11  C3  UNL     1      -7.181  78.342  22.899  1.00  0.00     0.197 C 
BRANCH  11  12
HETATM   12  C2  UNL     1      -6.224  79.488  23.062  1.00  0.00     0.148 C 
BRANCH  12  13
HETATM   13  N3  UNL     1      -6.658  80.388  24.137  1.00  0.00    -0.365 N 
HETATM   14  C1  UNL     1      -6.188  80.312  25.332  1.00  0.00     0.197 C 
HETATM   15  N1  UNL     1      -6.690  81.238  26.279  1.00  0.00    -0.067 NA
HETATM   16  N2  UNL     1      -5.213  79.331  25.640  1.00  0.00    -0.067 NA
ATOM     17  H3  UNL     1      -7.359  81.099  23.930  1.00  0.00     0.161 HD
ENDBRANCH  12  13
ENDBRANCH  11  12
ENDBRANCH  10  11
ENDBRANCH   1  10
BRANCH   9  18
HETATM   18  C8  UNL     1      -5.929  75.339  21.165  1.00  0.00     0.117 C 
HETATM   19  N7  UNL     1      -7.228  75.210  21.160  1.00  0.00    -0.374 N 
HETATM   20  C9  UNL     1      -7.701  74.912  19.833  1.00  0.00     0.141 C 
ATOM     21  H7  UNL     1      -7.825  75.308  21.982  1.00  0.00     0.161 HD
HETATM   22  C10 UNL     1      -6.569  75.435  18.959  1.00  0.00     0.141 C 
HETATM   23  N8  UNL     1      -5.439  75.125  19.855  1.00  0.00    -0.374 N 
ATOM     24  H8  UNL     1      -4.502  74.821  19.587  1.00  0.00     0.161 HD
ENDBRANCH   9  18
BRANCH   4  25
HETATM   25  N5  UNL     1      -2.726  76.446  25.518  1.00  0.00    -0.098 N 
ATOM     26  H5  UNL     1      -1.736  76.199  25.520  1.00  0.00     0.213 HD
BRANCH  25  27
HETATM   27  O2  UNL     1      -3.295  77.067  26.597  1.00  0.00    -0.276 OA
ATOM     28  H2  UNL     1      -3.912  77.772  26.440  1.00  0.00     0.245 HD
ENDBRANCH  25  27
ENDBRANCH   4  25
TORSDOF 7
ENDMDL
MODEL 4
REMARK VINA RESULT: -7.467321480      4.978      7.727
REMARK  7 active torsions:
REMARK  status: ('A' for Active; 'I' for Inactive)
REMARK    1  A    between atoms: N3_4  and  C2_6 
REMARK    2  A    between atoms: C2_6  and  C3_7 
REMARK    3  A    between atoms: C3_7  and  O1_8 
REMARK    4  A    between atoms: O1_8  and  C4_9 
REMARK    5  A    between atoms: C5_12  and  N5_13 
REMARK    6  A    between atoms: N5_13  and  O2_15 
REMARK    7  A    between atoms: C7_21  and  C8_22 
ROOT
HETATM    1  C4  UNL     1      -6.037  76.989  22.942  1.00  0.00     0.177 A 
HETATM    2  N4  UNL     1      -7.019  76.615  22.102  1.00  0.00    -0.167 N 
ATOM      3  H4  UNL     1      -7.920  77.092  22.141  1.00  0.00     0.186 HD
HETATM    4  C5  UNL     1      -6.833  75.622  21.208  1.00  0.00     0.706 A 
HETATM    5  N6  UNL     1      -5.654  74.990  21.150  1.00  0.00    -0.153 N 
ATOM      6  H6  UNL     1      -5.517  74.239  20.473  1.00  0.00     0.187 HD
HETATM    7  C6  UNL     1      -4.663  75.330  21.963  1.00  0.00     0.278 A 
HETATM    8  O3  UNL     1      -3.548  74.725  21.900  1.00  0.00    -0.266 OA
HETATM    9  C7  UNL     1      -4.798  76.344  22.900  1.00  0.00     0.127 A 
ENDROOT
BRANCH   1  10
HETATM   10  O1  UNL     1      -6.179  77.978  23.852  1.00  0.00    -0.333 OA
BRANCH  10  11
HETATM   11  C3  UNL     1      -6.225  79.343  23.806  1.00  0.00     0.197 C 
BRANCH  11  12
HETATM   12  C2  UNL     1      -7.033  79.970  22.705  1.00  0.00     0.148 C 
BRANCH  12  13
HETATM   13  N3  UNL     1      -8.408  80.231  23.144  1.00  0.00    -0.365 N 
HETATM   14  C1  UNL     1      -9.412  79.551  22.713  1.00  0.00     0.197 C 
HETATM   15  N1  UNL     1     -10.689  79.903  23.215  1.00  0.00    -0.067 NA
HETATM   16  N2  UNL     1      -9.199  78.507  21.779  1.00  0.00    -0.067 NA
ATOM     17  H3  UNL     1      -8.575  80.980  23.817  1.00  0.00     0.161 HD
ENDBRANCH  12  13
ENDBRANCH  11  12
ENDBRANCH  10  11
ENDBRANCH   1  10
BRANCH   9  18
HETATM   18  C8  UNL     1      -3.690  76.695  23.793  1.00  0.00     0.117 C 
HETATM   19  N7  UNL     1      -3.071  77.844  23.831  1.00  0.00    -0.374 N 
HETATM   20  C9  UNL     1      -2.036  77.826  24.832  1.00  0.00     0.141 C 
ATOM     21  H7  UNL     1      -3.288  78.642  23.234  1.00  0.00     0.161 HD
HETATM   22  C10 UNL     1      -2.500  76.711  25.760  1.00  0.00     0.141 C 
HETATM   23  N8  UNL     1      -3.114  75.827  24.750  1.00  0.00    -0.374 N 
ATOM     24  H8  UNL     1      -3.121  74.807  24.742  1.00  0.00     0.161 HD
ENDBRANCH   9  18
BRANCH   4  25
HETATM   25  N5  UNL     1      -7.816  75.292  20.410  1.00  0.00    -0.098 N 
ATOM     26  H5  UNL     1      -8.070  75.886  19.620  1.00  0.00     0.213 HD
BRANCH  25  27
HETATM   27  O2  UNL     1      -8.496  74.131  20.661  1.00  0.00    -0.276 OA
ATOM     28  H2  UNL     1      -8.167  73.323  20.283  1.00  0.00     0.245 HD
ENDBRANCH  25  27
ENDBRANCH   4  25
TORSDOF 7
ENDMDL
MODEL 5
REMARK VINA RESULT: -7.458156293      5.109      7.573
REMARK  7 active torsions:
REMARK  status: ('A' for Active; 'I' for Inactive)
REMARK    1  A    between atoms: N3_4  and  C2_6 
REMARK    2  A    between atoms: C2_6  and  C3_7 
REMARK    3  A    between atoms: C3_7  and  O1_8 
REMARK    4  A    between atoms: O1_8  and  C4_9 
REMARK    5  A    between atoms: C5_12  and  N5_13 
REMARK    6  A    between atoms: N5_13  and  O2_15 
REMARK    7  A    between atoms: C7_21  and  C8_22 
ROOT
HETATM    1  C4  UNL     1      -6.219  76.863  22.477  1.00  0.00     0.177 A 
HETATM    2  N4  UNL     1      -6.982  76.437  21.455  1.00  0.00    -0.167 N 
ATOM      3  H4  UNL     1      -7.875  76.894  21.273  1.00  0.00     0.186 HD
HETATM    4  C5  UNL     1      -6.587  75.416  20.666  1.00  0.00     0.706 A 
HETATM    5  N6  UNL     1      -5.417  74.808  20.899  1.00  0.00    -0.153 N 
ATOM      6  H6  UNL     1      -5.121  74.036  20.301  1.00  0.00     0.187 HD
HETATM    7  C6  UNL     1      -4.637  75.200  21.899  1.00  0.00     0.278 A 
HETATM    8  O3  UNL     1      -3.529  74.617  22.111  1.00  0.00    -0.266 OA
HETATM    9  C7  UNL     1      -4.993  76.244  22.739  1.00  0.00     0.127 A 
ENDROOT
BRANCH   1  10
HETATM   10  O1  UNL     1      -6.574  77.881  23.292  1.00  0.00    -0.333 OA
BRANCH  10  11
HETATM   11  C3  UNL     1      -6.790  79.221  23.135  1.00  0.00     0.197 C 
BRANCH  11  12
HETATM   12  C2  UNL     1      -5.872  80.159  23.865  1.00  0.00     0.148 C 
BRANCH  12  13
HETATM   13  N3  UNL     1      -6.291  80.326  25.262  1.00  0.00    -0.365 N 
HETATM   14  C1  UNL     1      -6.554  81.477  25.771  1.00  0.00     0.197 C 
HETATM   15  N1  UNL     1      -6.948  81.503  27.131  1.00  0.00    -0.067 NA
HETATM   16  N2  UNL     1      -6.440  82.640  24.968  1.00  0.00    -0.067 NA
ATOM     17  H3  UNL     1      -6.378  79.497  25.851  1.00  0.00     0.161 HD
ENDBRANCH  12  13
ENDBRANCH  11  12
ENDBRANCH  10  11
ENDBRANCH   1  10
BRANCH   9  18
HETATM   18  C8  UNL     1      -4.118  76.652  23.842  1.00  0.00     0.117 C 
HETATM   19  N7  UNL     1      -2.822  76.792  23.781  1.00  0.00    -0.374 N 
HETATM   20  C9  UNL     1      -2.298  77.205  25.057  1.00  0.00     0.141 C 
ATOM     21  H7  UNL     1      -2.258  76.630  22.947  1.00  0.00     0.161 HD
HETATM   22  C10 UNL     1      -3.517  77.832  25.722  1.00  0.00     0.141 C 
HETATM   23  N8  UNL     1      -4.554  76.948  25.155  1.00  0.00    -0.374 N 
ATOM     24  H8  UNL     1      -5.404  76.619  25.613  1.00  0.00     0.161 HD
ENDBRANCH   9  18
BRANCH   4  25
HETATM   25  N5  UNL     1      -7.362  75.035  19.684  1.00  0.00    -0.098 N 
ATOM     26  H5  UNL     1      -8.262  75.487  19.522  1.00  0.00     0.213 HD
BRANCH  25  27
HETATM   27  O2  UNL     1      -6.936  74.014  18.877  1.00  0.00    -0.276 OA
ATOM     28  H2  UNL     1      -7.579  73.559  18.346  1.00  0.00     0.245 HD
ENDBRANCH  25  27
ENDBRANCH   4  25
TORSDOF 7
ENDMDL
