MODEL 1
REMARK VINA RESULT: -7.385806063      0.000      0.000
REMARK  9 active torsions:
REMARK  status: ('A' for Active; 'I' for Inactive)
REMARK    1  A    between atoms: O1_3  and  C2_4 
REMARK    2  A    between atoms: C2_4  and  C3_5 
REMARK    3  A    between atoms: C3_5  and  N2_6 
REMARK    4  A    between atoms: N2_6  and  C4_8 
REMARK    5  A    between atoms: C5_11  and  N4_12 
REMARK    6  A    between atoms: C6_17  and  N6_18 
REMARK    7  A    between atoms: N6_18  and  C7_20 
REMARK    8  A    between atoms: C10_26  and  C11_27 
REMARK    9  A    between atoms: C11_27  and  O2_28 
ROOT
HETATM    1  N1  UNL     1      -4.804  76.763  17.238  1.00  0.00    -0.164 NA
HETATM    2  C1  UNL     1      -5.224  75.933  17.930  1.00  0.00     0.228 C 
HETATM    3  O1  UNL     1      -5.729  74.931  18.734  1.00  0.00    -0.282 OA
ENDROOT
BRANCH   3   4
HETATM    4  C2  UNL     1      -7.100  74.921  19.025  1.00  0.00     0.210 C 
BRANCH   4   5
HETATM    5  C3  UNL     1      -7.400  75.930  20.121  1.00  0.00     0.165 C 
BRANCH   5   6
HETATM    6  N2  UNL     1      -7.270  75.366  21.433  1.00  0.00    -0.223 N 
ATOM      7  H2  UNL     1      -8.084  74.893  21.826  1.00  0.00     0.177 HD
BRANCH   6   8
HETATM    8  C4  UNL     1      -6.213  75.412  22.148  1.00  0.00     0.707 A 
HETATM    9  N3  UNL     1      -5.217  74.549  21.884  1.00  0.00    -0.022 N 
HETATM   10  C5  UNL     1      -4.106  74.621  22.659  1.00  0.00     0.705 A 
ATOM     11  H3  UNL     1      -5.293  73.867  21.130  1.00  0.00     0.203 HD
HETATM   12  N5  UNL     1      -4.022  75.523  23.644  1.00  0.00    -0.022 N 
HETATM   13  C6  UNL     1      -5.018  76.381  23.903  1.00  0.00     0.707 A 
ATOM     14  H5  UNL     1      -3.177  75.557  24.213  1.00  0.00     0.203 HD
HETATM   15  N8  UNL     1      -6.112  76.322  23.153  1.00  0.00    -0.022 N 
ATOM     16  H8  UNL     1      -6.883  76.965  23.331  1.00  0.00     0.203 HD
BRANCH  10  17
HETATM   17  N4  UNL     1      -3.150  73.781  22.393  1.00  0.00    -0.234 N 
ATOM     18  H42 UNL     1      -3.254  72.773  22.514  1.00  0.00     0.174 HD
ATOM     19  H41 UNL     1      -2.273  74.175  22.052  1.00  0.00     0.174 HD
ENDBRANCH  10  17
BRANCH  13  20
HETATM   20  N6  UNL     1      -4.958  77.260  24.849  1.00  0.00    -0.218 N 
ATOM     21  H6  UNL     1      -5.529  77.097  25.678  1.00  0.00     0.178 HD
BRANCH  20  22
HETATM   22  C7  UNL     1      -4.155  78.440  24.824  1.00  0.00     0.132 C 
HETATM   23  C8  UNL     1      -4.434  79.311  23.611  1.00  0.00     0.258 C 
HETATM   24  N7  UNL     1      -3.174  79.775  23.120  1.00  0.00    -0.073 N 
HETATM   25  C9  UNL     1      -2.154  79.372  24.072  1.00  0.00     0.241 C 
ATOM     26  H72 UNL     1      -2.977  79.459  22.170  1.00  0.00     0.277 HD
ATOM     27  H71 UNL     1      -3.166  80.777  22.932  1.00  0.00     0.277 HD
HETATM   28  C10 UNL     1      -2.700  78.043  24.551  1.00  0.00     0.060 C 
BRANCH  28  29
HETATM   29  C11 UNL     1      -2.018  77.582  25.814  1.00  0.00     0.172 C 
BRANCH  29  30
HETATM   30  O2  UNL     1      -2.179  76.200  25.885  1.00  0.00    -0.400 OA
ATOM     31  H2  UNL     1      -1.690  75.900  26.642  1.00  0.00     0.209 HD
ENDBRANCH  29  30
ENDBRANCH  28  29
ENDBRANCH  20  22
ENDBRANCH  13  20
ENDBRANCH   6   8
ENDBRANCH   5   6
ENDBRANCH   4   5
ENDBRANCH   3   4
TORSDOF 9
ENDMDL
MODEL 2
REMARK VINA RESULT: -7.132100732      1.517      2.104
REMARK  9 active torsions:
REMARK  status: ('A' for Active; 'I' for Inactive)
REMARK    1  A    between atoms: O1_3  and  C2_4 
REMARK    2  A    between atoms: C2_4  and  C3_5 
REMARK    3  A    between atoms: C3_5  and  N2_6 
REMARK    4  A    between atoms: N2_6  and  C4_8 
REMARK    5  A    between atoms: C5_11  and  N4_12 
REMARK    6  A    between atoms: C6_17  and  N6_18 
REMARK    7  A    between atoms: N6_18  and  C7_20 
REMARK    8  A    between atoms: C10_26  and  C11_27 
REMARK    9  A    between atoms: C11_27  and  O2_28 
ROOT
HETATM    1  N1  UNL     1      -9.334  77.504  20.639  1.00  0.00    -0.164 NA
HETATM    2  C1  UNL     1      -8.650  76.600  20.395  1.00  0.00     0.228 C 
HETATM    3  O1  UNL     1      -7.816  75.536  20.117  1.00  0.00    -0.282 OA
ENDROOT
BRANCH   3   4
HETATM    4  C2  UNL     1      -7.095  75.537  18.915  1.00  0.00     0.210 C 
BRANCH   4   5
HETATM    5  C3  UNL     1      -5.629  75.248  19.195  1.00  0.00     0.165 C 
BRANCH   5   6
HETATM    6  N2  UNL     1      -5.059  76.172  20.132  1.00  0.00    -0.223 N 
ATOM      7  H2  UNL     1      -4.584  76.992  19.756  1.00  0.00     0.177 HD
BRANCH   6   8
HETATM    8  C4  UNL     1      -5.103  76.046  21.402  1.00  0.00     0.707 A 
HETATM    9  N3  UNL     1      -5.140  74.811  21.929  1.00  0.00    -0.022 N 
HETATM   10  C5  UNL     1      -5.185  74.708  23.281  1.00  0.00     0.705 A 
ATOM     11  H3  UNL     1      -5.134  73.982  21.335  1.00  0.00     0.203 HD
HETATM   12  N5  UNL     1      -5.191  75.807  24.045  1.00  0.00    -0.022 N 
HETATM   13  C6  UNL     1      -5.153  77.037  23.515  1.00  0.00     0.707 A 
ATOM     14  H5  UNL     1      -5.225  75.704  25.059  1.00  0.00     0.203 HD
HETATM   15  N8  UNL     1      -5.110  77.153  22.193  1.00  0.00    -0.022 N 
ATOM     16  H8  UNL     1      -5.081  78.079  21.767  1.00  0.00     0.203 HD
BRANCH  10  17
HETATM   17  N4  UNL     1      -5.221  73.508  23.777  1.00  0.00    -0.234 N 
ATOM     18  H42 UNL     1      -6.079  73.083  24.130  1.00  0.00     0.174 HD
ATOM     19  H41 UNL     1      -4.340  72.993  23.801  1.00  0.00     0.174 HD
ENDBRANCH  10  17
BRANCH  13  20
HETATM   20  N6  UNL     1      -5.158  78.111  24.234  1.00  0.00    -0.218 N 
ATOM     21  H6  UNL     1      -6.055  78.421  24.609  1.00  0.00     0.178 HD
BRANCH  20  22
HETATM   22  C7  UNL     1      -4.007  78.896  24.545  1.00  0.00     0.132 C 
HETATM   23  C8  UNL     1      -3.683  79.912  23.464  1.00  0.00     0.258 C 
HETATM   24  N7  UNL     1      -2.264  79.907  23.283  1.00  0.00    -0.073 N 
HETATM   25  C9  UNL     1      -1.692  79.064  24.318  1.00  0.00     0.241 C 
ATOM     26  H72 UNL     1      -1.985  79.626  22.343  1.00  0.00     0.277 HD
ATOM     27  H71 UNL     1      -1.863  80.844  23.268  1.00  0.00     0.277 HD
HETATM   28  C10 UNL     1      -2.763  78.004  24.468  1.00  0.00     0.060 C 
BRANCH  28  29
HETATM   29  C11 UNL     1      -2.588  77.208  25.736  1.00  0.00     0.172 C 
BRANCH  29  30
HETATM   30  O2  UNL     1      -3.693  77.471  26.542  1.00  0.00    -0.400 OA
ATOM     31  H2  UNL     1      -4.218  76.680  26.564  1.00  0.00     0.209 HD
ENDBRANCH  29  30
ENDBRANCH  28  29
ENDBRANCH  20  22
ENDBRANCH  13  20
ENDBRANCH   6   8
ENDBRANCH   5   6
ENDBRANCH   4   5
ENDBRANCH   3   4
TORSDOF 9
ENDMDL
MODEL 3
REMARK VINA RESULT: -7.043317505      2.727      4.540
REMARK  9 active torsions:
REMARK  status: ('A' for Active; 'I' for Inactive)
REMARK    1  A    between atoms: O1_3  and  C2_4 
REMARK    2  A    between atoms: C2_4  and  C3_5 
REMARK    3  A    between atoms: C3_5  and  N2_6 
REMARK    4  A    between atoms: N2_6  and  C4_8 
REMARK    5  A    between atoms: C5_11  and  N4_12 
REMARK    6  A    between atoms: C6_17  and  N6_18 
REMARK    7  A    between atoms: N6_18  and  C7_20 
REMARK    8  A    between atoms: C10_26  and  C11_27 
REMARK    9  A    between atoms: C11_27  and  O2_28 
ROOT
HETATM    1  N1  UNL     1      -5.646  77.341  21.650  1.00  0.00    -0.164 NA
HETATM    2  C1  UNL     1      -5.335  76.225  21.587  1.00  0.00     0.228 C 
HETATM    3  O1  UNL     1      -4.975  74.894  21.534  1.00  0.00    -0.282 OA
ENDROOT
BRANCH   3   4
HETATM    4  C2  UNL     1      -3.723  74.510  22.034  1.00  0.00     0.210 C 
BRANCH   4   5
HETATM    5  C3  UNL     1      -3.828  74.239  23.527  1.00  0.00     0.165 C 
BRANCH   5   6
HETATM    6  N2  UNL     1      -2.977  75.097  24.299  1.00  0.00    -0.223 N 
ATOM      7  H2  UNL     1      -2.263  74.656  24.878  1.00  0.00     0.177 HD
BRANCH   6   8
HETATM    8  C4  UNL     1      -3.047  76.372  24.317  1.00  0.00     0.707 A 
HETATM    9  N3  UNL     1      -4.191  76.952  24.717  1.00  0.00    -0.022 N 
HETATM   10  C5  UNL     1      -4.235  78.307  24.727  1.00  0.00     0.705 A 
ATOM     11  H3  UNL     1      -4.995  76.394  25.003  1.00  0.00     0.203 HD
HETATM   12  N5  UNL     1      -3.170  79.024  24.349  1.00  0.00    -0.022 N 
HETATM   13  C6  UNL     1      -2.030  78.442  23.951  1.00  0.00     0.707 A 
ATOM     14  H5  UNL     1      -3.227  80.042  24.365  1.00  0.00     0.203 HD
HETATM   15  N8  UNL     1      -1.973  77.115  23.936  1.00  0.00    -0.022 N 
ATOM     16  H8  UNL     1      -1.117  76.649  23.637  1.00  0.00     0.203 HD
BRANCH  10  17
HETATM   17  N4  UNL     1      -5.347  78.855  25.116  1.00  0.00    -0.234 N 
ATOM     18  H42 UNL     1      -6.178  78.310  25.348  1.00  0.00     0.174 HD
ATOM     19  H41 UNL     1      -5.360  79.873  25.182  1.00  0.00     0.174 HD
ENDBRANCH  10  17
BRANCH  13  20
HETATM   20  N6  UNL     1      -0.991  79.114  23.583  1.00  0.00    -0.218 N 
ATOM     21  H6  UNL     1      -1.075  79.688  22.744  1.00  0.00     0.178 HD
BRANCH  20  22
HETATM   22  C7  UNL     1       0.267  79.117  24.258  1.00  0.00     0.132 C 
HETATM   23  C8  UNL     1       0.425  80.302  25.195  1.00  0.00     0.258 C 
HETATM   24  N7  UNL     1       1.758  80.796  25.038  1.00  0.00    -0.073 N 
HETATM   25  C9  UNL     1       2.474  79.869  24.181  1.00  0.00     0.241 C 
ATOM     26  H72 UNL     1       1.787  81.757  24.696  1.00  0.00     0.277 HD
ATOM     27  H71 UNL     1       2.228  80.958  25.928  1.00  0.00     0.277 HD
HETATM   28  C10 UNL     1       1.374  79.419  23.242  1.00  0.00     0.060 C 
BRANCH  28  29
HETATM   29  C11 UNL     1       1.763  78.178  22.480  1.00  0.00     0.172 C 
BRANCH  29  30
HETATM   30  O2  UNL     1       1.175  77.095  23.130  1.00  0.00    -0.400 OA
ATOM     31  H2  UNL     1       1.396  76.316  22.634  1.00  0.00     0.209 HD
ENDBRANCH  29  30
ENDBRANCH  28  29
ENDBRANCH  20  22
ENDBRANCH  13  20
ENDBRANCH   6   8
ENDBRANCH   5   6
ENDBRANCH   4   5
ENDBRANCH   3   4
TORSDOF 9
ENDMDL
MODEL 4
REMARK VINA RESULT: -6.877651924      1.710      6.234
REMARK  9 active torsions:
REMARK  status: ('A' for Active; 'I' for Inactive)
REMARK    1  A    between atoms: O1_3  and  C2_4 
REMARK    2  A    between atoms: C2_4  and  C3_5 
REMARK    3  A    between atoms: C3_5  and  N2_6 
REMARK    4  A    between atoms: N2_6  and  C4_8 
REMARK    5  A    between atoms: C5_11  and  N4_12 
REMARK    6  A    between atoms: C6_17  and  N6_18 
REMARK    7  A    between atoms: N6_18  and  C7_20 
REMARK    8  A    between atoms: C10_26  and  C11_27 
REMARK    9  A    between atoms: C11_27  and  O2_28 
ROOT
HETATM    1  N1  UNL     1      -2.232  76.398  26.167  1.00  0.00    -0.164 NA
HETATM    2  C1  UNL     1      -2.204  77.344  25.496  1.00  0.00     0.228 C 
HETATM    3  O1  UNL     1      -2.175  78.484  24.719  1.00  0.00    -0.282 OA
ENDROOT
BRANCH   3   4
HETATM    4  C2  UNL     1      -3.374  78.965  24.176  1.00  0.00     0.210 C 
BRANCH   4   5
HETATM    5  C3  UNL     1      -4.509  78.746  25.164  1.00  0.00     0.165 C 
BRANCH   5   6
HETATM    6  N2  UNL     1      -5.519  77.867  24.650  1.00  0.00    -0.223 N 
ATOM      7  H2  UNL     1      -6.471  77.990  24.994  1.00  0.00     0.177 HD
BRANCH   6   8
HETATM    8  C4  UNL     1      -5.317  76.941  23.795  1.00  0.00     0.707 A 
HETATM    9  N3  UNL     1      -5.118  75.687  24.234  1.00  0.00    -0.022 N 
HETATM   10  C5  UNL     1      -4.907  74.723  23.303  1.00  0.00     0.705 A 
ATOM     11  H3  UNL     1      -5.127  75.467  25.230  1.00  0.00     0.203 HD
HETATM   12  N5  UNL     1      -4.899  75.029  22.000  1.00  0.00    -0.022 N 
HETATM   13  C6  UNL     1      -5.098  76.282  21.566  1.00  0.00     0.707 A 
ATOM     14  H5  UNL     1      -4.738  74.288  21.319  1.00  0.00     0.203 HD
HETATM   15  N8  UNL     1      -5.306  77.235  22.467  1.00  0.00    -0.022 N 
ATOM     16  H8  UNL     1      -5.459  78.195  22.161  1.00  0.00     0.203 HD
BRANCH  10  17
HETATM   17  N4  UNL     1      -4.716  73.515  23.741  1.00  0.00    -0.234 N 
ATOM     18  H42 UNL     1      -4.005  73.287  24.437  1.00  0.00     0.174 HD
ATOM     19  H41 UNL     1      -5.316  72.786  23.356  1.00  0.00     0.174 HD
ENDBRANCH  10  17
BRANCH  13  20
HETATM   20  N6  UNL     1      -5.095  76.598  20.314  1.00  0.00    -0.218 N 
ATOM     21  H6  UNL     1      -4.293  77.123  19.963  1.00  0.00     0.178 HD
BRANCH  20  22
HETATM   22  C7  UNL     1      -6.126  76.272  19.382  1.00  0.00     0.132 C 
HETATM   23  C8  UNL     1      -7.256  75.479  20.014  1.00  0.00     0.258 C 
HETATM   24  N7  UNL     1      -7.622  74.448  19.092  1.00  0.00    -0.073 N 
HETATM   25  C9  UNL     1      -6.890  74.679  17.860  1.00  0.00     0.241 C 
ATOM     26  H72 UNL     1      -7.480  73.510  19.468  1.00  0.00     0.277 HD
ATOM     27  H71 UNL     1      -8.629  74.383  18.949  1.00  0.00     0.277 HD
HETATM   28  C10 UNL     1      -5.585  75.240  18.386  1.00  0.00     0.060 C 
BRANCH  28  29
HETATM   29  C11 UNL     1      -4.784  75.905  17.297  1.00  0.00     0.172 C 
BRANCH  29  30
HETATM   30  O2  UNL     1      -4.541  77.215  17.707  1.00  0.00    -0.400 OA
ATOM     31  H2  UNL     1      -3.607  77.292  17.859  1.00  0.00     0.209 HD
ENDBRANCH  29  30
ENDBRANCH  28  29
ENDBRANCH  20  22
ENDBRANCH  13  20
ENDBRANCH   6   8
ENDBRANCH   5   6
ENDBRANCH   4   5
ENDBRANCH   3   4
TORSDOF 9
ENDMDL
MODEL 5
REMARK VINA RESULT: -6.836071395      4.884      7.397
REMARK  9 active torsions:
REMARK  status: ('A' for Active; 'I' for Inactive)
REMARK    1  A    between atoms: O1_3  and  C2_4 
REMARK    2  A    between atoms: C2_4  and  C3_5 
REMARK    3  A    between atoms: C3_5  and  N2_6 
REMARK    4  A    between atoms: N2_6  and  C4_8 
REMARK    5  A    between atoms: C5_11  and  N4_12 
REMARK    6  A    between atoms: C6_17  and  N6_18 
REMARK    7  A    between atoms: N6_18  and  C7_20 
REMARK    8  A    between atoms: C10_26  and  C11_27 
REMARK    9  A    between atoms: C11_27  and  O2_28 
ROOT
HETATM    1  N1  UNL     1      -3.581  75.230  23.113  1.00  0.00    -0.164 NA
HETATM    2  C1  UNL     1      -3.002  75.570  24.058  1.00  0.00     0.228 C 
HETATM    3  O1  UNL     1      -2.333  75.968  25.198  1.00  0.00    -0.282 OA
ENDROOT
BRANCH   3   4
HETATM    4  C2  UNL     1      -2.474  77.290  25.640  1.00  0.00     0.210 C 
BRANCH   4   5
HETATM    5  C3  UNL     1      -1.942  78.245  24.584  1.00  0.00     0.165 C 
BRANCH   5   6
HETATM    6  N2  UNL     1      -0.532  78.475  24.717  1.00  0.00    -0.223 N 
ATOM      7  H2  UNL     1      -0.149  78.520  25.661  1.00  0.00     0.177 HD
BRANCH   6   8
HETATM    8  C4  UNL     1       0.279  78.629  23.743  1.00  0.00     0.707 A 
HETATM    9  N3  UNL     1       1.490  78.052  23.814  1.00  0.00    -0.022 N 
HETATM   10  C5  UNL     1       2.331  78.231  22.765  1.00  0.00     0.705 A 
ATOM     11  H3  UNL     1       1.767  77.500  24.626  1.00  0.00     0.203 HD
HETATM   12  N5  UNL     1       1.952  78.959  21.708  1.00  0.00    -0.022 N 
HETATM   13  C6  UNL     1       0.742  79.533  21.641  1.00  0.00     0.707 A 
ATOM     14  H5  UNL     1       2.601  79.080  20.932  1.00  0.00     0.203 HD
HETATM   15  N8  UNL     1      -0.092  79.365  22.662  1.00  0.00    -0.022 N 
ATOM     16  H8  UNL     1      -1.017  79.792  22.634  1.00  0.00     0.203 HD
BRANCH  10  17
HETATM   17  N4  UNL     1       3.500  77.669  22.847  1.00  0.00    -0.234 N 
ATOM     18  H42 UNL     1       4.253  78.044  23.424  1.00  0.00     0.174 HD
ATOM     19  H41 UNL     1       3.640  76.819  22.301  1.00  0.00     0.174 HD
ENDBRANCH  10  17
BRANCH  13  20
HETATM   20  N6  UNL     1       0.356  80.238  20.631  1.00  0.00    -0.218 N 
ATOM     21  H6  UNL     1      -0.058  79.741  19.841  1.00  0.00     0.178 HD
BRANCH  20  22
HETATM   22  C7  UNL     1       0.461  81.658  20.531  1.00  0.00     0.132 C 
HETATM   23  C8  UNL     1      -0.870  82.359  20.742  1.00  0.00     0.258 C 
HETATM   24  N7  UNL     1      -0.961  83.405  19.770  1.00  0.00    -0.073 N 
HETATM   25  C9  UNL     1       0.319  83.487  19.091  1.00  0.00     0.241 C 
ATOM     26  H72 UNL     1      -1.744  83.283  19.128  1.00  0.00     0.277 HD
ATOM     27  H71 UNL     1      -1.254  84.295  20.172  1.00  0.00     0.277 HD
HETATM   28  C10 UNL     1       0.743  82.032  19.072  1.00  0.00     0.060 C 
BRANCH  28  29
HETATM   29  C11 UNL     1       2.207  81.881  18.747  1.00  0.00     0.172 C 
BRANCH  29  30
HETATM   30  O2  UNL     1       2.869  81.620  19.945  1.00  0.00    -0.400 OA
ATOM     31  H2  UNL     1       3.456  82.349  20.105  1.00  0.00     0.209 HD
ENDBRANCH  29  30
ENDBRANCH  28  29
ENDBRANCH  20  22
ENDBRANCH  13  20
ENDBRANCH   6   8
ENDBRANCH   5   6
ENDBRANCH   4   5
ENDBRANCH   3   4
TORSDOF 9
ENDMDL
