MODEL 1
REMARK VINA RESULT: -7.752235681      0.000      0.000
REMARK  7 active torsions:
REMARK  status: ('A' for Active; 'I' for Inactive)
REMARK    1  A    between atoms: S1_2  and  N1_5 
REMARK    2  A    between atoms: N1_5  and  N2_7 
REMARK    3  A    between atoms: N2_7  and  C2_9 
REMARK    4  A    between atoms: C2_9  and  C3_10 
REMARK    5  A    between atoms: C3_10  and  N3_11 
REMARK    6  A    between atoms: N3_11  and  C4_13 
REMARK    7  A    between atoms: C5_16  and  N5_17 
ROOT
HETATM    1  C4  UNL     1      -6.085  76.100  20.925  1.00  0.00     0.147 A 
HETATM    2  N4  UNL     1      -7.143  75.342  21.246  1.00  0.00    -0.175 N 
ATOM      3  H4  UNL     1      -7.484  75.310  22.207  1.00  0.00     0.186 HD
HETATM    4  C5  UNL     1      -7.755  74.615  20.270  1.00  0.00     0.679 A 
HETATM    5  N6  UNL     1      -7.300  74.662  19.002  1.00  0.00    -0.174 N 
ATOM      6  H6  UNL     1      -7.775  74.109  18.288  1.00  0.00     0.186 HD
HETATM    7  C6  UNL     1      -6.239  75.414  18.645  1.00  0.00     0.152 A 
HETATM    8  N7  UNL     1      -5.575  75.656  17.496  1.00  0.00    -0.336 N 
ATOM      9  H7  UNL     1      -5.799  75.254  16.587  1.00  0.00     0.168 HD
HETATM   10  C7  UNL     1      -4.569  76.515  17.747  1.00  0.00     0.182 A 
HETATM   11  N8  UNL     1      -4.580  76.830  19.049  1.00  0.00    -0.346 N 
ATOM     12  H8  UNL     1      -3.934  77.460  19.525  1.00  0.00     0.167 HD
HETATM   13  C8  UNL     1      -5.603  76.158  19.614  1.00  0.00     0.123 A 
ENDROOT
BRANCH   1  14
HETATM   14  N3  UNL     1      -5.499  76.789  21.833  1.00  0.00    -0.372 N 
ATOM     15  H3  UNL     1      -5.162  77.724  21.600  1.00  0.00     0.161 HD
BRANCH  14  16
HETATM   16  C3  UNL     1      -5.300  76.296  23.156  1.00  0.00     0.142 C 
BRANCH  16  17
HETATM   17  C2  UNL     1      -4.252  75.175  23.109  1.00  0.00     0.159 C 
BRANCH  17  18
HETATM   18  N2  UNL     1      -3.003  75.755  23.462  1.00  0.00    -0.326 N 
ATOM     19  H2  UNL     1      -2.367  76.129  22.758  1.00  0.00     0.180 HD
BRANCH  18  20
HETATM   20  N1  UNL     1      -2.703  75.785  24.795  1.00  0.00    -0.232 N 
ATOM     21  H1  UNL     1      -2.526  74.938  25.335  1.00  0.00     0.199 HD
BRANCH  20  22
HETATM   22  S1  UNL     1      -2.644  77.341  25.492  1.00  0.00     0.239 S 
HETATM   23  C1  UNL     1      -2.757  78.634  24.267  1.00  0.00     0.187 C 
HETATM   24  O1  UNL     1      -3.639  77.541  26.591  1.00  0.00    -0.205 OA
HETATM   25  O2  UNL     1      -1.270  77.494  26.131  1.00  0.00    -0.205 OA
ENDBRANCH  20  22
ENDBRANCH  18  20
ENDBRANCH  17  18
ENDBRANCH  16  17
ENDBRANCH  14  16
ENDBRANCH   1  14
BRANCH   4  26
HETATM   26  N5  UNL     1      -8.774  73.895  20.625  1.00  0.00    -0.234 N 
ATOM     27  H52 UNL     1      -9.345  74.111  21.441  1.00  0.00     0.174 HD
ATOM     28  H51 UNL     1      -8.991  73.084  20.045  1.00  0.00     0.174 HD
ENDBRANCH   4  26
TORSDOF 7
ENDMDL
MODEL 2
REMARK VINA RESULT: -7.597442710      1.305      1.489
REMARK  7 active torsions:
REMARK  status: ('A' for Active; 'I' for Inactive)
REMARK    1  A    between atoms: S1_2  and  N1_5 
REMARK    2  A    between atoms: N1_5  and  N2_7 
REMARK    3  A    between atoms: N2_7  and  C2_9 
REMARK    4  A    between atoms: C2_9  and  C3_10 
REMARK    5  A    between atoms: C3_10  and  N3_11 
REMARK    6  A    between atoms: N3_11  and  C4_13 
REMARK    7  A    between atoms: C5_16  and  N5_17 
ROOT
HETATM    1  C4  UNL     1      -5.865  76.013  21.048  1.00  0.00     0.147 A 
HETATM    2  N4  UNL     1      -6.937  75.292  21.403  1.00  0.00    -0.175 N 
ATOM      3  H4  UNL     1      -7.202  75.208  22.384  1.00  0.00     0.186 HD
HETATM    4  C5  UNL     1      -7.668  74.673  20.434  1.00  0.00     0.679 A 
HETATM    5  N6  UNL     1      -7.314  74.788  19.139  1.00  0.00    -0.174 N 
ATOM      6  H6  UNL     1      -7.876  74.316  18.431  1.00  0.00     0.186 HD
HETATM    7  C6  UNL     1      -6.241  75.505  18.747  1.00  0.00     0.152 A 
HETATM    8  N7  UNL     1      -5.657  75.794  17.566  1.00  0.00    -0.336 N 
ATOM      9  H7  UNL     1      -5.976  75.473  16.652  1.00  0.00     0.168 HD
HETATM   10  C7  UNL     1      -4.584  76.576  17.790  1.00  0.00     0.182 A 
HETATM   11  N8  UNL     1      -4.472  76.795  19.107  1.00  0.00    -0.346 N 
ATOM     12  H8  UNL     1      -3.753  77.352  19.569  1.00  0.00     0.167 HD
HETATM   13  C8  UNL     1      -5.486  76.140  19.708  1.00  0.00     0.123 A 
ENDROOT
BRANCH   1  14
HETATM   14  N3  UNL     1      -5.167  76.600  21.948  1.00  0.00    -0.372 N 
ATOM     15  H3  UNL     1      -4.384  76.100  22.368  1.00  0.00     0.161 HD
BRANCH  14  16
HETATM   16  C3  UNL     1      -5.447  77.929  22.384  1.00  0.00     0.142 C 
BRANCH  16  17
HETATM   17  C2  UNL     1      -6.018  77.867  23.809  1.00  0.00     0.159 C 
BRANCH  17  18
HETATM   18  N2  UNL     1      -5.266  76.892  24.518  1.00  0.00    -0.326 N 
ATOM     19  H2  UNL     1      -5.384  75.893  24.347  1.00  0.00     0.180 HD
BRANCH  18  20
HETATM   20  N1  UNL     1      -4.375  77.364  25.441  1.00  0.00    -0.232 N 
ATOM     21  H1  UNL     1      -4.666  77.910  26.252  1.00  0.00     0.199 HD
BRANCH  20  22
HETATM   22  S1  UNL     1      -2.741  76.978  25.138  1.00  0.00     0.239 S 
HETATM   23  C1  UNL     1      -1.825  78.369  24.500  1.00  0.00     0.187 C 
HETATM   24  O1  UNL     1      -2.049  76.357  26.309  1.00  0.00    -0.205 OA
HETATM   25  O2  UNL     1      -2.727  75.929  24.033  1.00  0.00    -0.205 OA
ENDBRANCH  20  22
ENDBRANCH  18  20
ENDBRANCH  17  18
ENDBRANCH  16  17
ENDBRANCH  14  16
ENDBRANCH   1  14
BRANCH   4  26
HETATM   26  N5  UNL     1      -8.697  73.986  20.822  1.00  0.00    -0.234 N 
ATOM     27  H52 UNL     1      -8.621  73.182  21.446  1.00  0.00     0.174 HD
ATOM     28  H51 UNL     1      -9.609  74.283  20.475  1.00  0.00     0.174 HD
ENDBRANCH   4  26
TORSDOF 7
ENDMDL
MODEL 3
REMARK VINA RESULT: -7.220849465      1.448      2.958
REMARK  7 active torsions:
REMARK  status: ('A' for Active; 'I' for Inactive)
REMARK    1  A    between atoms: S1_2  and  N1_5 
REMARK    2  A    between atoms: N1_5  and  N2_7 
REMARK    3  A    between atoms: N2_7  and  C2_9 
REMARK    4  A    between atoms: C2_9  and  C3_10 
REMARK    5  A    between atoms: C3_10  and  N3_11 
REMARK    6  A    between atoms: N3_11  and  C4_13 
REMARK    7  A    between atoms: C5_16  and  N5_17 
ROOT
HETATM    1  C4  UNL     1      -5.321  76.416  20.709  1.00  0.00     0.147 A 
HETATM    2  N4  UNL     1      -4.617  76.830  19.647  1.00  0.00    -0.175 N 
ATOM      3  H4  UNL     1      -3.800  77.428  19.769  1.00  0.00     0.186 HD
HETATM    4  C5  UNL     1      -5.008  76.439  18.402  1.00  0.00     0.679 A 
HETATM    5  N6  UNL     1      -6.088  75.647  18.247  1.00  0.00    -0.174 N 
ATOM      6  H6  UNL     1      -6.362  75.366  17.305  1.00  0.00     0.186 HD
HETATM    7  C6  UNL     1      -6.819  75.213  19.294  1.00  0.00     0.152 A 
HETATM    8  N7  UNL     1      -7.912  74.439  19.448  1.00  0.00    -0.336 N 
ATOM      9  H7  UNL     1      -8.435  73.995  18.693  1.00  0.00     0.168 HD
HETATM   10  C7  UNL     1      -8.200  74.347  20.760  1.00  0.00     0.182 A 
HETATM   11  N8  UNL     1      -7.300  75.056  21.454  1.00  0.00    -0.346 N 
ATOM     12  H8  UNL     1      -7.267  75.167  22.467  1.00  0.00     0.167 HD
HETATM   13  C8  UNL     1      -6.443  75.594  20.563  1.00  0.00     0.123 A 
ENDROOT
BRANCH   1  14
HETATM   14  N3  UNL     1      -4.966  76.776  21.887  1.00  0.00    -0.372 N 
ATOM     15  H3  UNL     1      -4.379  76.148  22.437  1.00  0.00     0.161 HD
BRANCH  14  16
HETATM   16  C3  UNL     1      -5.361  78.022  22.456  1.00  0.00     0.142 C 
BRANCH  16  17
HETATM   17  C2  UNL     1      -6.066  77.750  23.792  1.00  0.00     0.159 C 
BRANCH  17  18
HETATM   18  N2  UNL     1      -5.285  76.787  24.488  1.00  0.00    -0.326 N 
ATOM     19  H2  UNL     1      -5.363  75.789  24.292  1.00  0.00     0.180 HD
BRANCH  18  20
HETATM   20  N1  UNL     1      -4.423  77.271  25.431  1.00  0.00    -0.232 N 
ATOM     21  H1  UNL     1      -4.743  77.783  26.253  1.00  0.00     0.199 HD
BRANCH  20  22
HETATM   22  S1  UNL     1      -2.772  76.959  25.136  1.00  0.00     0.239 S 
HETATM   23  C1  UNL     1      -1.920  78.386  24.488  1.00  0.00     0.187 C 
HETATM   24  O1  UNL     1      -2.054  76.382  26.314  1.00  0.00    -0.205 OA
HETATM   25  O2  UNL     1      -2.705  75.903  24.040  1.00  0.00    -0.205 OA
ENDBRANCH  20  22
ENDBRANCH  18  20
ENDBRANCH  17  18
ENDBRANCH  16  17
ENDBRANCH  14  16
ENDBRANCH   1  14
BRANCH   4  26
HETATM   26  N5  UNL     1      -4.298  76.862  17.402  1.00  0.00    -0.234 N 
ATOM     27  H52 UNL     1      -4.028  77.840  17.292  1.00  0.00     0.174 HD
ATOM     28  H51 UNL     1      -4.011  76.168  16.713  1.00  0.00     0.174 HD
ENDBRANCH   4  26
TORSDOF 7
ENDMDL
MODEL 4
REMARK VINA RESULT: -7.213798213      1.867      2.975
REMARK  7 active torsions:
REMARK  status: ('A' for Active; 'I' for Inactive)
REMARK    1  A    between atoms: S1_2  and  N1_5 
REMARK    2  A    between atoms: N1_5  and  N2_7 
REMARK    3  A    between atoms: N2_7  and  C2_9 
REMARK    4  A    between atoms: C2_9  and  C3_10 
REMARK    5  A    between atoms: C3_10  and  N3_11 
REMARK    6  A    between atoms: N3_11  and  C4_13 
REMARK    7  A    between atoms: C5_16  and  N5_17 
ROOT
HETATM    1  C4  UNL     1      -5.993  76.166  22.426  1.00  0.00     0.147 A 
HETATM    2  N4  UNL     1      -4.852  75.698  22.950  1.00  0.00    -0.175 N 
ATOM      3  H4  UNL     1      -4.551  75.991  23.879  1.00  0.00     0.186 HD
HETATM    4  C5  UNL     1      -4.099  74.826  22.222  1.00  0.00     0.679 A 
HETATM    5  N6  UNL     1      -4.502  74.443  20.994  1.00  0.00    -0.174 N 
ATOM      6  H6  UNL     1      -3.923  73.789  20.468  1.00  0.00     0.186 HD
HETATM    7  C6  UNL     1      -5.645  74.894  20.437  1.00  0.00     0.152 A 
HETATM    8  N7  UNL     1      -6.287  74.698  19.267  1.00  0.00    -0.336 N 
ATOM      9  H7  UNL     1      -5.969  74.093  18.511  1.00  0.00     0.168 HD
HETATM   10  C7  UNL     1      -7.417  75.431  19.263  1.00  0.00     0.182 A 
HETATM   11  N8  UNL     1      -7.508  76.098  20.420  1.00  0.00    -0.346 N 
ATOM     12  H8  UNL     1      -8.258  76.731  20.697  1.00  0.00     0.167 HD
HETATM   13  C8  UNL     1      -6.423  75.777  21.153  1.00  0.00     0.123 A 
ENDROOT
BRANCH   1  14
HETATM   14  N3  UNL     1      -6.711  76.987  23.098  1.00  0.00    -0.372 N 
ATOM     15  H3  UNL     1      -7.531  76.634  23.592  1.00  0.00     0.161 HD
BRANCH  14  16
HETATM   16  C3  UNL     1      -6.406  78.378  23.180  1.00  0.00     0.142 C 
BRANCH  16  17
HETATM   17  C2  UNL     1      -5.717  78.650  24.526  1.00  0.00     0.159 C 
BRANCH  17  18
HETATM   18  N2  UNL     1      -4.415  79.141  24.237  1.00  0.00    -0.326 N 
ATOM     19  H2  UNL     1      -4.210  80.140  24.218  1.00  0.00     0.180 HD
BRANCH  18  20
HETATM   20  N1  UNL     1      -3.454  78.203  23.985  1.00  0.00    -0.232 N 
ATOM     21  H1  UNL     1      -3.170  77.952  23.038  1.00  0.00     0.199 HD
BRANCH  20  22
HETATM   22  S1  UNL     1      -2.763  77.481  25.368  1.00  0.00     0.239 S 
HETATM   23  C1  UNL     1      -1.119  78.090  25.698  1.00  0.00     0.187 C 
HETATM   24  O1  UNL     1      -3.632  77.566  26.582  1.00  0.00    -0.205 OA
HETATM   25  O2  UNL     1      -2.603  75.997  25.066  1.00  0.00    -0.205 OA
ENDBRANCH  20  22
ENDBRANCH  18  20
ENDBRANCH  17  18
ENDBRANCH  16  17
ENDBRANCH  14  16
ENDBRANCH   1  14
BRANCH   4  26
HETATM   26  N5  UNL     1      -3.003  74.399  22.767  1.00  0.00    -0.234 N 
ATOM     27  H52 UNL     1      -2.515  73.564  22.444  1.00  0.00     0.174 HD
ATOM     28  H51 UNL     1      -2.635  74.939  23.550  1.00  0.00     0.174 HD
ENDBRANCH   4  26
TORSDOF 7
ENDMDL
MODEL 5
REMARK VINA RESULT: -7.183114502      4.648      7.543
REMARK  7 active torsions:
REMARK  status: ('A' for Active; 'I' for Inactive)
REMARK    1  A    between atoms: S1_2  and  N1_5 
REMARK    2  A    between atoms: N1_5  and  N2_7 
REMARK    3  A    between atoms: N2_7  and  C2_9 
REMARK    4  A    between atoms: C2_9  and  C3_10 
REMARK    5  A    between atoms: C3_10  and  N3_11 
REMARK    6  A    between atoms: N3_11  and  C4_13 
REMARK    7  A    between atoms: C5_16  and  N5_17 
ROOT
HETATM    1  C4  UNL     1       0.565  78.678  23.225  1.00  0.00     0.147 A 
HETATM    2  N4  UNL     1       1.495  77.910  23.808  1.00  0.00    -0.175 N 
ATOM      3  H4  UNL     1       1.275  77.385  24.654  1.00  0.00     0.186 HD
HETATM    4  C5  UNL     1       2.738  77.842  23.254  1.00  0.00     0.679 A 
HETATM    5  N6  UNL     1       3.022  78.538  22.135  1.00  0.00    -0.174 N 
ATOM      6  H6  UNL     1       3.959  78.471  21.738  1.00  0.00     0.186 HD
HETATM    7  C6  UNL     1       2.109  79.320  21.523  1.00  0.00     0.152 A 
HETATM    8  N7  UNL     1       2.099  80.109  20.429  1.00  0.00    -0.336 N 
ATOM      9  H7  UNL     1       2.888  80.263  19.802  1.00  0.00     0.168 HD
HETATM   10  C7  UNL     1       0.877  80.660  20.301  1.00  0.00     0.182 A 
HETATM   11  N8  UNL     1       0.099  80.232  21.304  1.00  0.00    -0.346 N 
ATOM     12  H8  UNL     1      -0.877  80.483  21.462  1.00  0.00     0.167 HD
HETATM   13  C8  UNL     1       0.846  79.406  22.064  1.00  0.00     0.123 A 
ENDROOT
BRANCH   1  14
HETATM   14  N3  UNL     1      -0.609  78.753  23.734  1.00  0.00    -0.372 N 
ATOM     15  H3  UNL     1      -1.377  79.091  23.154  1.00  0.00     0.161 HD
BRANCH  14  16
HETATM   16  C3  UNL     1      -0.879  78.382  25.084  1.00  0.00     0.142 C 
BRANCH  16  17
HETATM   17  C2  UNL     1      -2.243  77.677  25.135  1.00  0.00     0.159 C 
BRANCH  17  18
HETATM   18  N2  UNL     1      -2.334  76.860  23.975  1.00  0.00    -0.326 N 
ATOM     19  H2  UNL     1      -1.508  76.592  23.441  1.00  0.00     0.180 HD
BRANCH  18  20
HETATM   20  N1  UNL     1      -3.588  76.454  23.616  1.00  0.00    -0.232 N 
ATOM     21  H1  UNL     1      -4.412  77.040  23.750  1.00  0.00     0.199 HD
BRANCH  20  22
HETATM   22  S1  UNL     1      -3.678  74.896  22.927  1.00  0.00     0.239 S 
HETATM   23  C1  UNL     1      -4.432  74.915  21.310  1.00  0.00     0.187 C 
HETATM   24  O1  UNL     1      -2.369  74.174  22.912  1.00  0.00    -0.205 OA
HETATM   25  O2  UNL     1      -4.607  74.070  23.808  1.00  0.00    -0.205 OA
ENDBRANCH  20  22
ENDBRANCH  18  20
ENDBRANCH  17  18
ENDBRANCH  16  17
ENDBRANCH  14  16
ENDBRANCH   1  14
BRANCH   4  26
HETATM   26  N5  UNL     1       3.607  77.087  23.852  1.00  0.00    -0.234 N 
ATOM     27  H52 UNL     1       3.369  76.493  24.646  1.00  0.00     0.174 HD
ATOM     28  H51 UNL     1       4.561  77.107  23.492  1.00  0.00     0.174 HD
ENDBRANCH   4  26
TORSDOF 7
ENDMDL
