MODEL 1
REMARK VINA RESULT: -6.800872594      0.000      0.000
REMARK  4 active torsions:
REMARK  status: ('A' for Active; 'I' for Inactive)
REMARK    1  A    between atoms: C2_2  and  O1_4 
REMARK    2  A    between atoms: O1_4  and  C4_5 
REMARK    3  A    between atoms: C9_10  and  N1_11 
REMARK    4  A    between atoms: N1_11  and  N2_13 
REMARK       I    between atoms: N2_13  and  C10_15 
ROOT
HETATM    1  C4  UNL     1      -6.040  77.182  21.985  1.00  0.00     0.097 A 
HETATM    2  C5  UNL     1      -5.914  78.484  21.415  1.00  0.00     0.039 A 
HETATM    3  C6  UNL     1      -5.596  79.554  22.193  1.00  0.00     0.003 A 
HETATM    4  C7  UNL     1      -5.382  79.418  23.553  1.00  0.00     0.002 A 
HETATM    5  C8  UNL     1      -5.506  78.155  24.090  1.00  0.00     0.034 A 
HETATM    6  C9  UNL     1      -5.831  77.028  23.332  1.00  0.00     0.081 A 
ENDROOT
BRANCH   6   7
HETATM    7  N1  UNL     1      -5.914  75.777  23.979  1.00  0.00    -0.296 N 
ATOM      8  H1  UNL     1      -6.303  75.734  24.921  1.00  0.00     0.187 HD
BRANCH   7   9
HETATM    9  N2  UNL     1      -5.480  74.590  23.369  1.00  0.00    -0.273 N 
HETATM   10  C10 UNL     1      -4.126  74.428  22.940  1.00  0.00     0.200 C 
HETATM   11  N3  UNL     1      -3.838  74.043  21.738  1.00  0.00    -0.372 N 
HETATM   12  N4  UNL     1      -3.089  74.703  23.853  1.00  0.00    -0.062 NA
ATOM     13  H32 UNL     1      -4.589  73.844  21.077  1.00  0.00     0.158 HD
ATOM     14  H31 UNL     1      -2.872  73.928  21.432  1.00  0.00     0.158 HD
ATOM     15  H2  UNL     1      -6.143  73.828  23.230  1.00  0.00     0.189 HD
ENDBRANCH   7   9
ENDBRANCH   6   7
BRANCH   1  16
HETATM   16  O1  UNL     1      -6.356  76.187  21.155  1.00  0.00    -0.344 OA
BRANCH  16  17
HETATM   17  C2  UNL     1      -7.363  75.661  20.439  1.00  0.00     0.120 C 
HETATM   18  C1  UNL     1      -8.359  76.689  19.903  1.00  0.00     0.040 C 
HETATM   19  C3  UNL     1      -6.759  74.920  19.208  1.00  0.00     0.040 C 
ENDBRANCH  16  17
ENDBRANCH   1  16
TORSDOF 4
ENDMDL
MODEL 2
REMARK VINA RESULT: -6.720335312      0.638      1.107
REMARK  4 active torsions:
REMARK  status: ('A' for Active; 'I' for Inactive)
REMARK    1  A    between atoms: C2_2  and  O1_4 
REMARK    2  A    between atoms: O1_4  and  C4_5 
REMARK    3  A    between atoms: C9_10  and  N1_11 
REMARK    4  A    between atoms: N1_11  and  N2_13 
REMARK       I    between atoms: N2_13  and  C10_15 
ROOT
HETATM    1  C4  UNL     1      -6.169  77.572  22.292  1.00  0.00     0.097 A 
HETATM    2  C5  UNL     1      -5.814  78.874  21.828  1.00  0.00     0.039 A 
HETATM    3  C6  UNL     1      -5.013  79.681  22.575  1.00  0.00     0.003 A 
HETATM    4  C7  UNL     1      -4.516  79.270  23.800  1.00  0.00     0.002 A 
HETATM    5  C8  UNL     1      -4.867  78.011  24.234  1.00  0.00     0.034 A 
HETATM    6  C9  UNL     1      -5.686  77.148  23.504  1.00  0.00     0.081 A 
ENDROOT
BRANCH   6   7
HETATM    7  N1  UNL     1      -5.968  75.870  24.032  1.00  0.00    -0.296 N 
ATOM      8  H1  UNL     1      -6.413  75.803  24.948  1.00  0.00     0.187 HD
BRANCH   7   9
HETATM    9  N2  UNL     1      -5.657  74.689  23.341  1.00  0.00    -0.273 N 
HETATM   10  C10 UNL     1      -4.345  74.457  22.822  1.00  0.00     0.200 C 
HETATM   11  N3  UNL     1      -4.156  74.116  21.587  1.00  0.00    -0.372 N 
HETATM   12  N4  UNL     1      -3.239  74.611  23.681  1.00  0.00    -0.062 NA
ATOM     13  H32 UNL     1      -4.956  74.004  20.965  1.00  0.00     0.158 HD
ATOM     14  H31 UNL     1      -3.220  73.951  21.216  1.00  0.00     0.158 HD
ATOM     15  H2  UNL     1      -6.380  73.983  23.206  1.00  0.00     0.189 HD
ENDBRANCH   7   9
ENDBRANCH   6   7
BRANCH   1  16
HETATM   16  O1  UNL     1      -6.959  76.844  21.501  1.00  0.00    -0.344 OA
BRANCH  16  17
HETATM   17  C2  UNL     1      -7.367  76.694  20.231  1.00  0.00     0.120 C 
HETATM   18  C1  UNL     1      -7.572  75.241  19.802  1.00  0.00     0.040 C 
HETATM   19  C3  UNL     1      -8.735  77.421  20.062  1.00  0.00     0.040 C 
ENDBRANCH  16  17
ENDBRANCH   1  16
TORSDOF 4
ENDMDL
MODEL 3
REMARK VINA RESULT: -6.646389827      1.340      3.607
REMARK  4 active torsions:
REMARK  status: ('A' for Active; 'I' for Inactive)
REMARK    1  A    between atoms: C2_2  and  O1_4 
REMARK    2  A    between atoms: O1_4  and  C4_5 
REMARK    3  A    between atoms: C9_10  and  N1_11 
REMARK    4  A    between atoms: N1_11  and  N2_13 
REMARK       I    between atoms: N2_13  and  C10_15 
ROOT
HETATM    1  C4  UNL     1      -6.732  77.694  22.569  1.00  0.00     0.097 A 
HETATM    2  C5  UNL     1      -7.338  78.368  21.467  1.00  0.00     0.039 A 
HETATM    3  C6  UNL     1      -7.760  77.673  20.376  1.00  0.00     0.003 A 
HETATM    4  C7  UNL     1      -7.621  76.299  20.299  1.00  0.00     0.002 A 
HETATM    5  C8  UNL     1      -7.036  75.661  21.371  1.00  0.00     0.034 A 
HETATM    6  C9  UNL     1      -6.586  76.331  22.510  1.00  0.00     0.081 A 
ENDROOT
BRANCH   6   7
HETATM    7  N1  UNL     1      -6.018  75.580  23.560  1.00  0.00    -0.296 N 
ATOM      8  H1  UNL     1      -6.104  75.925  24.517  1.00  0.00     0.187 HD
BRANCH   7   9
HETATM    9  N2  UNL     1      -5.338  74.373  23.333  1.00  0.00    -0.273 N 
HETATM   10  C10 UNL     1      -3.937  74.353  23.049  1.00  0.00     0.200 C 
HETATM   11  N3  UNL     1      -3.463  73.723  22.022  1.00  0.00    -0.372 N 
HETATM   12  N4  UNL     1      -3.061  75.042  23.911  1.00  0.00    -0.062 NA
ATOM     13  H32 UNL     1      -4.097  73.224  21.398  1.00  0.00     0.158 HD
ATOM     14  H31 UNL     1      -2.463  73.709  21.819  1.00  0.00     0.158 HD
ATOM     15  H2  UNL     1      -5.853  73.494  23.371  1.00  0.00     0.189 HD
ENDBRANCH   7   9
ENDBRANCH   6   7
BRANCH   1  16
HETATM   16  O1  UNL     1      -6.344  78.448  23.599  1.00  0.00    -0.344 OA
BRANCH  16  17
HETATM   17  C2  UNL     1      -5.365  79.260  24.030  1.00  0.00     0.120 C 
HETATM   18  C1  UNL     1      -5.854  80.459  24.844  1.00  0.00     0.040 C 
HETATM   19  C3  UNL     1      -4.410  78.440  24.947  1.00  0.00     0.040 C 
ENDBRANCH  16  17
ENDBRANCH   1  16
TORSDOF 4
ENDMDL
MODEL 4
REMARK VINA RESULT: -6.350598696      1.593      3.880
REMARK  4 active torsions:
REMARK  status: ('A' for Active; 'I' for Inactive)
REMARK    1  A    between atoms: C2_2  and  O1_4 
REMARK    2  A    between atoms: O1_4  and  C4_5 
REMARK    3  A    between atoms: C9_10  and  N1_11 
REMARK    4  A    between atoms: N1_11  and  N2_13 
REMARK       I    between atoms: N2_13  and  C10_15 
ROOT
HETATM    1  C4  UNL     1      -7.159  78.084  21.990  1.00  0.00     0.097 A 
HETATM    2  C5  UNL     1      -8.455  78.580  21.657  1.00  0.00     0.039 A 
HETATM    3  C6  UNL     1      -9.125  78.098  20.575  1.00  0.00     0.003 A 
HETATM    4  C7  UNL     1      -8.579  77.116  19.768  1.00  0.00     0.002 A 
HETATM    5  C8  UNL     1      -7.327  76.646  20.102  1.00  0.00     0.034 A 
HETATM    6  C9  UNL     1      -6.602  77.111  21.200  1.00  0.00     0.081 A 
ENDROOT
BRANCH   6   7
HETATM    7  N1  UNL     1      -5.335  76.548  21.464  1.00  0.00    -0.296 N 
ATOM      8  H1  UNL     1      -4.620  76.581  20.737  1.00  0.00     0.187 HD
BRANCH   7   9
HETATM    9  N2  UNL     1      -5.025  75.945  22.693  1.00  0.00    -0.273 N 
HETATM   10  C10 UNL     1      -4.709  74.553  22.777  1.00  0.00     0.200 C 
HETATM   11  N3  UNL     1      -5.312  73.771  23.616  1.00  0.00    -0.372 N 
HETATM   12  N4  UNL     1      -3.722  74.030  21.920  1.00  0.00    -0.062 NA
ATOM     13  H32 UNL     1      -6.026  74.151  24.237  1.00  0.00     0.158 HD
ATOM     14  H31 UNL     1      -5.086  72.778  23.676  1.00  0.00     0.158 HD
ATOM     15  H2  UNL     1      -5.026  76.510  23.541  1.00  0.00     0.189 HD
ENDBRANCH   7   9
ENDBRANCH   6   7
BRANCH   1  16
HETATM   16  O1  UNL     1      -6.569  78.611  23.064  1.00  0.00    -0.344 OA
BRANCH  16  17
HETATM   17  C2  UNL     1      -5.570  79.418  23.457  1.00  0.00     0.120 C 
HETATM   18  C1  UNL     1      -6.008  80.842  23.799  1.00  0.00     0.040 C 
HETATM   19  C3  UNL     1      -4.923  78.815  24.740  1.00  0.00     0.040 C 
ENDBRANCH  16  17
ENDBRANCH   1  16
TORSDOF 4
ENDMDL
MODEL 5
REMARK VINA RESULT: -6.311131364      1.588      3.961
REMARK  4 active torsions:
REMARK  status: ('A' for Active; 'I' for Inactive)
REMARK    1  A    between atoms: C2_2  and  O1_4 
REMARK    2  A    between atoms: O1_4  and  C4_5 
REMARK    3  A    between atoms: C9_10  and  N1_11 
REMARK    4  A    between atoms: N1_11  and  N2_13 
REMARK       I    between atoms: N2_13  and  C10_15 
ROOT
HETATM    1  C4  UNL     1      -6.082  77.001  20.029  1.00  0.00     0.097 A 
HETATM    2  C5  UNL     1      -5.619  76.880  18.684  1.00  0.00     0.039 A 
HETATM    3  C6  UNL     1      -5.982  75.815  17.920  1.00  0.00     0.003 A 
HETATM    4  C7  UNL     1      -6.809  74.821  18.413  1.00  0.00     0.002 A 
HETATM    5  C8  UNL     1      -7.249  74.952  19.712  1.00  0.00     0.034 A 
HETATM    6  C9  UNL     1      -6.902  76.026  20.535  1.00  0.00     0.081 A 
ENDROOT
BRANCH   6   7
HETATM    7  N1  UNL     1      -7.423  76.072  21.845  1.00  0.00    -0.296 N 
ATOM      8  H1  UNL     1      -8.116  76.785  22.076  1.00  0.00     0.187 HD
BRANCH   7   9
HETATM    9  N2  UNL     1      -7.021  75.171  22.843  1.00  0.00    -0.273 N 
HETATM   10  C10 UNL     1      -5.656  75.085  23.259  1.00  0.00     0.200 C 
HETATM   11  N3  UNL     1      -5.030  73.952  23.301  1.00  0.00    -0.372 N 
HETATM   12  N4  UNL     1      -4.983  76.268  23.623  1.00  0.00    -0.062 NA
ATOM     13  H32 UNL     1      -5.517  73.095  23.037  1.00  0.00     0.158 HD
ATOM     14  H31 UNL     1      -4.056  73.891  23.597  1.00  0.00     0.158 HD
ATOM     15  H2  UNL     1      -7.715  74.565  23.280  1.00  0.00     0.189 HD
ENDBRANCH   7   9
ENDBRANCH   6   7
BRANCH   1  16
HETATM   16  O1  UNL     1      -5.679  78.074  20.712  1.00  0.00    -0.344 OA
BRANCH  16  17
HETATM   17  C2  UNL     1      -5.985  79.351  20.990  1.00  0.00     0.120 C 
HETATM   18  C1  UNL     1      -6.100  79.661  22.483  1.00  0.00     0.040 C 
HETATM   19  C3  UNL     1      -4.862  80.266  20.416  1.00  0.00     0.040 C 
ENDBRANCH  16  17
ENDBRANCH   1  16
TORSDOF 4
ENDMDL
