MODEL 1
REMARK VINA RESULT: -5.847350298      0.000      0.000
REMARK  5 active torsions:
REMARK  status: ('A' for Active; 'I' for Inactive)
REMARK    1  A    between atoms: S1_2  and  C2_3 
REMARK    2  A    between atoms: C2_3  and  N2_7 
REMARK    3  A    between atoms: N2_7  and  C3_9 
REMARK    4  A    between atoms: C6_12  and  N3_13 
REMARK    5  A    between atoms: N3_13  and  C7_14 
ROOT
HETATM    1  C3  UNL     1      -6.855  76.674  21.757  1.00  0.00     0.034 A 
HETATM    2  C4  UNL     1      -6.776  77.934  22.288  1.00  0.00     0.033 A 
HETATM    3  C5  UNL     1      -5.822  78.211  23.268  1.00  0.00     0.047 A 
HETATM    4  C6  UNL     1      -4.928  77.287  23.755  1.00  0.00     0.110 A 
HETATM    5  C8  UNL     1      -5.034  75.958  23.163  1.00  0.00     0.047 A 
HETATM    6  C9  UNL     1      -5.972  75.722  22.216  1.00  0.00     0.033 A 
ENDROOT
BRANCH   1   7
HETATM    7  N2  UNL     1      -7.896  76.327  20.827  1.00  0.00    -0.337 N 
ATOM      8  H2  UNL     1      -8.679  76.971  20.713  1.00  0.00     0.168 HD
BRANCH   7   9
HETATM    9  C2  UNL     1      -7.888  75.134  20.062  1.00  0.00     0.138 C 
HETATM   10  N1  UNL     1      -8.662  74.140  20.431  1.00  0.00    -0.380 N 
ATOM     11  H12 UNL     1      -8.657  73.282  19.881  1.00  0.00     0.158 HD
ATOM     12  H11 UNL     1      -9.214  74.290  21.276  1.00  0.00     0.158 HD
BRANCH   9  13
HETATM   13  S1  UNL     1      -6.922  74.871  18.583  1.00  0.00    -0.099 SA
HETATM   14  C1  UNL     1      -5.924  76.306  18.233  1.00  0.00     0.099 C 
ENDBRANCH   9  13
ENDBRANCH   7   9
ENDBRANCH   1   7
BRANCH   4  15
HETATM   15  N3  UNL     1      -4.036  77.378  24.772  1.00  0.00    -0.379 NA
BRANCH  15  16
HETATM   16  C7  UNL     1      -3.150  77.470  25.784  1.00  0.00     0.441 C 
HETATM   17  O1  UNL     1      -2.210  76.621  26.024  1.00  0.00    -0.268 OA
ENDBRANCH  15  16
ENDBRANCH   4  15
TORSDOF 5
ENDMDL
MODEL 2
REMARK VINA RESULT: -5.806059254      0.340      1.303
REMARK  5 active torsions:
REMARK  status: ('A' for Active; 'I' for Inactive)
REMARK    1  A    between atoms: S1_2  and  C2_3 
REMARK    2  A    between atoms: C2_3  and  N2_7 
REMARK    3  A    between atoms: N2_7  and  C3_9 
REMARK    4  A    between atoms: C6_12  and  N3_13 
REMARK    5  A    between atoms: N3_13  and  C7_14 
ROOT
HETATM    1  C3  UNL     1      -6.801  76.438  21.882  1.00  0.00     0.034 A 
HETATM    2  C4  UNL     1      -5.872  75.457  22.108  1.00  0.00     0.033 A 
HETATM    3  C5  UNL     1      -4.863  75.667  23.048  1.00  0.00     0.047 A 
HETATM    4  C6  UNL     1      -4.726  76.818  23.787  1.00  0.00     0.110 A 
HETATM    5  C8  UNL     1      -5.735  77.838  23.527  1.00  0.00     0.047 A 
HETATM    6  C9  UNL     1      -6.700  77.604  22.607  1.00  0.00     0.033 A 
ENDROOT
BRANCH   1   7
HETATM    7  N2  UNL     1      -7.787  76.298  20.843  1.00  0.00    -0.337 N 
ATOM      8  H2  UNL     1      -8.471  77.045  20.719  1.00  0.00     0.168 HD
BRANCH   7   9
HETATM    9  C2  UNL     1      -7.855  75.174  19.983  1.00  0.00     0.138 C 
HETATM   10  N1  UNL     1      -8.621  74.164  20.322  1.00  0.00    -0.380 N 
ATOM     11  H12 UNL     1      -8.670  73.355  19.703  1.00  0.00     0.158 HD
ATOM     12  H11 UNL     1      -9.111  74.250  21.213  1.00  0.00     0.158 HD
BRANCH   9  13
HETATM   13  S1  UNL     1      -6.997  75.023  18.423  1.00  0.00    -0.099 SA
HETATM   14  C1  UNL     1      -5.762  76.299  18.270  1.00  0.00     0.099 C 
ENDBRANCH   9  13
ENDBRANCH   7   9
ENDBRANCH   1   7
BRANCH   4  15
HETATM   15  N3  UNL     1      -3.744  77.204  24.639  1.00  0.00    -0.379 NA
BRANCH  15  16
HETATM   16  C7  UNL     1      -2.769  77.588  25.487  1.00  0.00     0.441 C 
HETATM   17  O1  UNL     1      -1.889  76.803  26.007  1.00  0.00    -0.268 OA
ENDBRANCH  15  16
ENDBRANCH   4  15
TORSDOF 5
ENDMDL
MODEL 3
REMARK VINA RESULT: -5.738363353      1.536      2.283
REMARK  5 active torsions:
REMARK  status: ('A' for Active; 'I' for Inactive)
REMARK    1  A    between atoms: S1_2  and  C2_3 
REMARK    2  A    between atoms: C2_3  and  N2_7 
REMARK    3  A    between atoms: N2_7  and  C3_9 
REMARK    4  A    between atoms: C6_12  and  N3_13 
REMARK    5  A    between atoms: N3_13  and  C7_14 
ROOT
HETATM    1  C3  UNL     1      -5.454  75.140  21.626  1.00  0.00     0.034 A 
HETATM    2  C4  UNL     1      -4.386  74.398  22.054  1.00  0.00     0.033 A 
HETATM    3  C5  UNL     1      -3.617  74.850  23.126  1.00  0.00     0.047 A 
HETATM    4  C6  UNL     1      -3.858  76.020  23.807  1.00  0.00     0.110 A 
HETATM    5  C8  UNL     1      -5.006  76.783  23.331  1.00  0.00     0.047 A 
HETATM    6  C9  UNL     1      -5.731  76.317  22.287  1.00  0.00     0.033 A 
ENDROOT
BRANCH   1   7
HETATM    7  N2  UNL     1      -6.200  74.759  20.456  1.00  0.00    -0.337 N 
ATOM      8  H2  UNL     1      -5.767  74.115  19.793  1.00  0.00     0.168 HD
BRANCH   7   9
HETATM    9  C2  UNL     1      -7.506  75.234  20.178  1.00  0.00     0.138 C 
HETATM   10  N1  UNL     1      -8.535  74.528  20.583  1.00  0.00    -0.380 N 
ATOM     11  H12 UNL     1      -9.475  74.870  20.383  1.00  0.00     0.158 HD
ATOM     12  H11 UNL     1      -8.320  73.654  21.063  1.00  0.00     0.158 HD
BRANCH   9  13
HETATM   13  S1  UNL     1      -7.882  76.765  19.338  1.00  0.00    -0.099 SA
HETATM   14  C1  UNL     1      -8.942  77.781  20.348  1.00  0.00     0.099 C 
ENDBRANCH   9  13
ENDBRANCH   7   9
ENDBRANCH   1   7
BRANCH   4  15
HETATM   15  N3  UNL     1      -3.138  76.636  24.777  1.00  0.00    -0.379 NA
BRANCH  15  16
HETATM   16  C7  UNL     1      -2.422  77.249  25.742  1.00  0.00     0.441 C 
HETATM   17  O1  UNL     1      -1.136  77.314  25.780  1.00  0.00    -0.268 OA
ENDBRANCH  15  16
ENDBRANCH   4  15
TORSDOF 5
ENDMDL
MODEL 4
REMARK VINA RESULT: -5.705560081      3.818      5.411
REMARK  5 active torsions:
REMARK  status: ('A' for Active; 'I' for Inactive)
REMARK    1  A    between atoms: S1_2  and  C2_3 
REMARK    2  A    between atoms: C2_3  and  N2_7 
REMARK    3  A    between atoms: N2_7  and  C3_9 
REMARK    4  A    between atoms: C6_12  and  N3_13 
REMARK    5  A    between atoms: N3_13  and  C7_14 
ROOT
HETATM    1  C3  UNL     1      -6.052  75.933  21.321  1.00  0.00     0.034 A 
HETATM    2  C4  UNL     1      -6.955  75.767  20.305  1.00  0.00     0.033 A 
HETATM    3  C5  UNL     1      -8.050  76.625  20.209  1.00  0.00     0.047 A 
HETATM    4  C6  UNL     1      -8.300  77.656  21.084  1.00  0.00     0.110 A 
HETATM    5  C8  UNL     1      -7.315  77.809  22.149  1.00  0.00     0.047 A 
HETATM    6  C9  UNL     1      -6.264  76.959  22.215  1.00  0.00     0.033 A 
ENDROOT
BRANCH   1   7
HETATM    7  N2  UNL     1      -4.974  74.999  21.513  1.00  0.00    -0.337 N 
ATOM      8  H2  UNL     1      -4.482  74.650  20.690  1.00  0.00     0.168 HD
BRANCH   7   9
HETATM    9  C2  UNL     1      -4.562  74.540  22.788  1.00  0.00     0.138 C 
HETATM   10  N1  UNL     1      -5.384  73.793  23.487  1.00  0.00    -0.380 N 
ATOM     11  H12 UNL     1      -5.088  73.463  24.406  1.00  0.00     0.158 HD
ATOM     12  H11 UNL     1      -6.293  73.607  23.064  1.00  0.00     0.158 HD
BRANCH   9  13
HETATM   13  S1  UNL     1      -2.970  74.866  23.530  1.00  0.00    -0.099 SA
HETATM   14  C1  UNL     1      -2.943  76.498  24.245  1.00  0.00     0.099 C 
ENDBRANCH   9  13
ENDBRANCH   7   9
ENDBRANCH   1   7
BRANCH   4  15
HETATM   15  N3  UNL     1      -9.367  78.486  21.183  1.00  0.00    -0.379 NA
BRANCH  15  16
HETATM   16  C7  UNL     1     -10.430  79.311  21.283  1.00  0.00     0.441 C 
HETATM   17  O1  UNL     1     -10.935  79.735  22.389  1.00  0.00    -0.268 OA
ENDBRANCH  15  16
ENDBRANCH   4  15
TORSDOF 5
ENDMDL
MODEL 5
REMARK VINA RESULT: -5.585111335      4.222      5.813
REMARK  5 active torsions:
REMARK  status: ('A' for Active; 'I' for Inactive)
REMARK    1  A    between atoms: S1_2  and  C2_3 
REMARK    2  A    between atoms: C2_3  and  N2_7 
REMARK    3  A    between atoms: N2_7  and  C3_9 
REMARK    4  A    between atoms: C6_12  and  N3_13 
REMARK    5  A    between atoms: N3_13  and  C7_14 
ROOT
HETATM    1  C3  UNL     1      -6.647  76.871  21.077  1.00  0.00     0.034 A 
HETATM    2  C4  UNL     1      -7.609  76.494  20.179  1.00  0.00     0.033 A 
HETATM    3  C5  UNL     1      -8.775  77.250  20.059  1.00  0.00     0.047 A 
HETATM    4  C6  UNL     1      -9.039  78.381  20.797  1.00  0.00     0.110 A 
HETATM    5  C8  UNL     1      -7.991  78.758  21.738  1.00  0.00     0.047 A 
HETATM    6  C9  UNL     1      -6.872  78.001  21.831  1.00  0.00     0.033 A 
ENDROOT
BRANCH   1   7
HETATM    7  N2  UNL     1      -5.485  76.053  21.304  1.00  0.00    -0.337 N 
ATOM      8  H2  UNL     1      -4.699  76.136  20.659  1.00  0.00     0.168 HD
BRANCH   7   9
HETATM    9  C2  UNL     1      -5.378  75.137  22.380  1.00  0.00     0.138 C 
HETATM   10  N1  UNL     1      -6.475  74.728  22.974  1.00  0.00    -0.380 N 
ATOM     11  H12 UNL     1      -6.398  74.069  23.748  1.00  0.00     0.158 HD
ATOM     12  H11 UNL     1      -7.349  75.124  22.626  1.00  0.00     0.158 HD
BRANCH   9  13
HETATM   13  S1  UNL     1      -3.848  74.444  22.989  1.00  0.00    -0.099 SA
HETATM   14  C1  UNL     1      -2.948  75.663  23.927  1.00  0.00     0.099 C 
ENDBRANCH   9  13
ENDBRANCH   7   9
ENDBRANCH   1   7
BRANCH   4  15
HETATM   15  N3  UNL     1     -10.160  79.140  20.871  1.00  0.00    -0.379 NA
BRANCH  15  16
HETATM   16  C7  UNL     1     -11.274  79.896  20.946  1.00  0.00     0.441 C 
HETATM   17  O1  UNL     1     -11.700  80.679  20.017  1.00  0.00    -0.268 OA
ENDBRANCH  15  16
ENDBRANCH   4  15
TORSDOF 5
ENDMDL
