MODEL 1
REMARK VINA RESULT: -7.207477835      0.000      0.000
REMARK  5 active torsions:
REMARK  status: ('A' for Active; 'I' for Inactive)
REMARK    1  A    between atoms: C2_2  and  N1_3 
REMARK    2  A    between atoms: C2_2  and  C11_17 
REMARK    3  A    between atoms: N1_3  and  C3_5 
REMARK    4  A    between atoms: C3_5  and  C4_6 
REMARK    5  A    between atoms: C3_5  and  C5_11 
ROOT
HETATM    1  C3  UNL     1      -5.338  76.031  22.968  1.00  0.00     0.175 C 
ENDROOT
BRANCH   1   2
HETATM    2  N1  UNL     1      -4.453  77.098  23.055  1.00  0.00    -0.396 N 
ATOM      3  H1  UNL     1      -3.834  77.270  22.262  1.00  0.00     0.155 HD
BRANCH   2   4
HETATM    4  C2  UNL     1      -4.355  77.947  24.154  1.00  0.00     0.163 C 
HETATM    5  C1  UNL     1      -4.074  79.376  23.903  1.00  0.00     0.041 C 
BRANCH   4   6
HETATM    6  C11 UNL     1      -3.392  77.431  25.190  1.00  0.00     0.253 C 
HETATM    7  N4  UNL     1      -2.168  76.810  24.867  1.00  0.00    -0.060 NA
HETATM    8  O1  UNL     1      -3.715  77.558  26.393  1.00  0.00    -0.275 OA
ENDBRANCH   4   6
ENDBRANCH   2   4
ENDBRANCH   1   2
BRANCH   1   9
HETATM    9  C4  UNL     1      -4.824  74.652  23.091  1.00  0.00     0.114 C 
HETATM   10  N2  UNL     1      -5.562  73.659  23.500  1.00  0.00    -0.389 N 
ATOM     11  H22 UNL     1      -6.528  73.866  23.753  1.00  0.00     0.157 HD
ATOM     12  H21 UNL     1      -5.207  72.706  23.585  1.00  0.00     0.157 HD
HETATM   13  N3  UNL     1      -3.489  74.366  22.741  1.00  0.00    -0.086 NA
ENDBRANCH   1   9
BRANCH   1  14
HETATM   14  C5  UNL     1      -6.043  76.047  21.630  1.00  0.00    -0.029 A 
HETATM   15  C6  UNL     1      -7.189  76.808  21.420  1.00  0.00     0.009 A 
HETATM   16  C7  UNL     1      -7.874  76.815  20.229  1.00  0.00     0.001 A 
HETATM   17  C8  UNL     1      -7.402  76.027  19.177  1.00  0.00     0.000 A 
HETATM   18  C9  UNL     1      -6.263  75.258  19.355  1.00  0.00     0.001 A 
HETATM   19  C10 UNL     1      -5.618  75.288  20.568  1.00  0.00     0.009 A 
ENDBRANCH   1  14
TORSDOF 5
ENDMDL
MODEL 2
REMARK VINA RESULT: -7.201414435      0.034      1.188
REMARK  5 active torsions:
REMARK  status: ('A' for Active; 'I' for Inactive)
REMARK    1  A    between atoms: C2_2  and  N1_3 
REMARK    2  A    between atoms: C2_2  and  C11_17 
REMARK    3  A    between atoms: N1_3  and  C3_5 
REMARK    4  A    between atoms: C3_5  and  C4_6 
REMARK    5  A    between atoms: C3_5  and  C5_11 
ROOT
HETATM    1  C3  UNL     1      -5.346  76.019  22.987  1.00  0.00     0.175 C 
ENDROOT
BRANCH   1   2
HETATM    2  N1  UNL     1      -4.469  77.094  23.057  1.00  0.00    -0.396 N 
ATOM      3  H1  UNL     1      -3.866  77.270  22.253  1.00  0.00     0.155 HD
BRANCH   2   4
HETATM    4  C2  UNL     1      -4.361  77.948  24.152  1.00  0.00     0.163 C 
HETATM    5  C1  UNL     1      -4.076  79.374  23.893  1.00  0.00     0.041 C 
BRANCH   4   6
HETATM    6  C11 UNL     1      -3.394  77.431  25.184  1.00  0.00     0.253 C 
HETATM    7  N4  UNL     1      -2.171  76.810  24.855  1.00  0.00    -0.060 NA
HETATM    8  O1  UNL     1      -3.712  77.558  26.388  1.00  0.00    -0.275 OA
ENDBRANCH   4   6
ENDBRANCH   2   4
ENDBRANCH   1   2
BRANCH   1   9
HETATM    9  C4  UNL     1      -4.819  74.645  23.100  1.00  0.00     0.114 C 
HETATM   10  N2  UNL     1      -5.541  73.644  23.516  1.00  0.00    -0.389 N 
ATOM     11  H22 UNL     1      -6.506  73.841  23.782  1.00  0.00     0.157 HD
ATOM     12  H21 UNL     1      -5.176  72.694  23.594  1.00  0.00     0.157 HD
HETATM   13  N3  UNL     1      -3.485  74.373  22.732  1.00  0.00    -0.086 NA
ENDBRANCH   1   9
BRANCH   1  14
HETATM   14  C5  UNL     1      -6.078  76.029  21.664  1.00  0.00    -0.029 A 
HETATM   15  C6  UNL     1      -5.620  75.299  20.572  1.00  0.00     0.009 A 
HETATM   16  C7  UNL     1      -6.240  75.318  19.346  1.00  0.00     0.001 A 
HETATM   17  C8  UNL     1      -7.386  76.100  19.184  1.00  0.00     0.000 A 
HETATM   18  C9  UNL     1      -7.867  76.839  20.252  1.00  0.00     0.001 A 
HETATM   19  C10 UNL     1      -7.206  76.785  21.456  1.00  0.00     0.009 A 
ENDBRANCH   1  14
TORSDOF 5
ENDMDL
MODEL 3
REMARK VINA RESULT: -7.127004323      4.376      7.354
REMARK  5 active torsions:
REMARK  status: ('A' for Active; 'I' for Inactive)
REMARK    1  A    between atoms: C2_2  and  N1_3 
REMARK    2  A    between atoms: C2_2  and  C11_17 
REMARK    3  A    between atoms: N1_3  and  C3_5 
REMARK    4  A    between atoms: C3_5  and  C4_6 
REMARK    5  A    between atoms: C3_5  and  C5_11 
ROOT
HETATM    1  C3  UNL     1      -0.446  79.688  23.478  1.00  0.00     0.175 C 
ENDROOT
BRANCH   1   2
HETATM    2  N1  UNL     1      -1.047  78.899  24.451  1.00  0.00    -0.396 N 
ATOM      3  H1  UNL     1      -0.558  78.781  25.338  1.00  0.00     0.155 HD
BRANCH   2   4
HETATM    4  C2  UNL     1      -2.275  78.260  24.293  1.00  0.00     0.163 C 
HETATM    5  C1  UNL     1      -3.432  79.076  23.869  1.00  0.00     0.041 C 
BRANCH   4   6
HETATM    6  C11 UNL     1      -2.657  77.454  25.506  1.00  0.00     0.253 C 
HETATM    7  N4  UNL     1      -3.915  77.553  26.135  1.00  0.00    -0.060 NA
HETATM    8  O1  UNL     1      -1.799  76.670  25.972  1.00  0.00    -0.275 OA
ENDBRANCH   4   6
ENDBRANCH   2   4
ENDBRANCH   1   2
BRANCH   1   9
HETATM    9  C4  UNL     1       0.947  79.405  23.076  1.00  0.00     0.114 C 
HETATM   10  N2  UNL     1       1.751  78.669  23.789  1.00  0.00    -0.389 N 
ATOM     11  H22 UNL     1       1.389  78.291  24.664  1.00  0.00     0.157 HD
ATOM     12  H21 UNL     1       2.713  78.474  23.511  1.00  0.00     0.157 HD
HETATM   13  N3  UNL     1       1.447  79.927  21.866  1.00  0.00    -0.086 NA
ENDBRANCH   1   9
BRANCH   1  14
HETATM   14  C5  UNL     1      -0.420  81.133  23.922  1.00  0.00    -0.029 A 
HETATM   15  C6  UNL     1      -1.286  82.078  23.379  1.00  0.00     0.009 A 
HETATM   16  C7  UNL     1      -1.261  83.405  23.734  1.00  0.00     0.001 A 
HETATM   17  C8  UNL     1      -0.329  83.830  24.683  1.00  0.00     0.000 A 
HETATM   18  C9  UNL     1       0.547  82.914  25.241  1.00  0.00     0.001 A 
HETATM   19  C10 UNL     1       0.479  81.599  24.849  1.00  0.00     0.009 A 
ENDBRANCH   1  14
TORSDOF 5
ENDMDL
MODEL 4
REMARK VINA RESULT: -7.008499096      4.202      7.041
REMARK  5 active torsions:
REMARK  status: ('A' for Active; 'I' for Inactive)
REMARK    1  A    between atoms: C2_2  and  N1_3 
REMARK    2  A    between atoms: C2_2  and  C11_17 
REMARK    3  A    between atoms: N1_3  and  C3_5 
REMARK    4  A    between atoms: C3_5  and  C4_6 
REMARK    5  A    between atoms: C3_5  and  C5_11 
ROOT
HETATM    1  C3  UNL     1      -1.148  79.617  23.113  1.00  0.00     0.175 C 
ENDROOT
BRANCH   1   2
HETATM    2  N1  UNL     1      -1.575  78.780  24.136  1.00  0.00    -0.396 N 
ATOM      3  H1  UNL     1      -0.903  78.535  24.864  1.00  0.00     0.155 HD
BRANCH   2   4
HETATM    4  C2  UNL     1      -2.861  78.254  24.233  1.00  0.00     0.163 C 
HETATM    5  C1  UNL     1      -4.002  79.165  24.008  1.00  0.00     0.041 C 
BRANCH   4   6
HETATM    6  C11 UNL     1      -3.074  77.505  25.522  1.00  0.00     0.253 C 
HETATM    7  N4  UNL     1      -2.157  76.562  26.029  1.00  0.00    -0.060 NA
HETATM    8  O1  UNL     1      -4.129  77.736  26.155  1.00  0.00    -0.275 OA
ENDBRANCH   4   6
ENDBRANCH   2   4
ENDBRANCH   1   2
BRANCH   1   9
HETATM    9  C4  UNL     1       0.020  79.228  22.298  1.00  0.00     0.114 C 
HETATM   10  N2  UNL     1       0.376  79.870  21.222  1.00  0.00    -0.389 N 
ATOM     11  H22 UNL     1      -0.198  80.665  20.941  1.00  0.00     0.157 HD
ATOM     12  H21 UNL     1       1.183  79.601  20.659  1.00  0.00     0.157 HD
HETATM   13  N3  UNL     1       0.813  78.129  22.688  1.00  0.00    -0.086 NA
ENDBRANCH   1   9
BRANCH   1  14
HETATM   14  C5  UNL     1      -0.777  80.973  23.671  1.00  0.00    -0.029 A 
HETATM   15  C6  UNL     1       0.254  81.125  24.593  1.00  0.00     0.009 A 
HETATM   16  C7  UNL     1       0.589  82.337  25.146  1.00  0.00     0.001 A 
HETATM   17  C8  UNL     1      -0.131  83.472  24.767  1.00  0.00     0.000 A 
HETATM   18  C9  UNL     1      -1.164  83.353  23.852  1.00  0.00     0.001 A 
HETATM   19  C10 UNL     1      -1.458  82.116  23.331  1.00  0.00     0.009 A 
ENDBRANCH   1  14
TORSDOF 5
ENDMDL
MODEL 5
REMARK VINA RESULT: -6.991074656      1.494      1.559
REMARK  5 active torsions:
REMARK  status: ('A' for Active; 'I' for Inactive)
REMARK    1  A    between atoms: C2_2  and  N1_3 
REMARK    2  A    between atoms: C2_2  and  C11_17 
REMARK    3  A    between atoms: N1_3  and  C3_5 
REMARK    4  A    between atoms: C3_5  and  C4_6 
REMARK    5  A    between atoms: C3_5  and  C5_11 
ROOT
HETATM    1  C3  UNL     1      -6.078  76.784  22.488  1.00  0.00     0.175 C 
ENDROOT
BRANCH   1   2
HETATM    2  N1  UNL     1      -4.968  77.611  22.599  1.00  0.00    -0.396 N 
ATOM      3  H1  UNL     1      -4.103  77.310  22.150  1.00  0.00     0.155 HD
BRANCH   2   4
HETATM    4  C2  UNL     1      -4.959  78.824  23.283  1.00  0.00     0.163 C 
HETATM    5  C1  UNL     1      -3.812  79.731  23.071  1.00  0.00     0.041 C 
BRANCH   4   6
HETATM    6  C11 UNL     1      -5.179  78.645  24.762  1.00  0.00     0.253 C 
HETATM    7  N4  UNL     1      -4.438  77.742  25.551  1.00  0.00    -0.060 NA
HETATM    8  O1  UNL     1      -6.077  79.335  25.299  1.00  0.00    -0.275 OA
ENDBRANCH   4   6
ENDBRANCH   2   4
ENDBRANCH   1   2
BRANCH   1   9
HETATM    9  C4  UNL     1      -6.004  75.400  22.996  1.00  0.00     0.114 C 
HETATM   10  N2  UNL     1      -7.038  74.607  23.038  1.00  0.00    -0.389 N 
ATOM     11  H22 UNL     1      -7.929  74.982  22.712  1.00  0.00     0.157 HD
ATOM     12  H21 UNL     1      -6.987  73.651  23.389  1.00  0.00     0.157 HD
HETATM   13  N3  UNL     1      -4.773  74.882  23.446  1.00  0.00    -0.086 NA
ENDBRANCH   1   9
BRANCH   1  14
HETATM   14  C5  UNL     1      -6.467  76.627  21.035  1.00  0.00    -0.029 A 
HETATM   15  C6  UNL     1      -7.694  77.077  20.556  1.00  0.00     0.009 A 
HETATM   16  C7  UNL     1      -8.092  76.915  19.252  1.00  0.00     0.001 A 
HETATM   17  C8  UNL     1      -7.230  76.273  18.360  1.00  0.00     0.000 A 
HETATM   18  C9  UNL     1      -6.003  75.812  18.806  1.00  0.00     0.001 A 
HETATM   19  C10 UNL     1      -5.655  76.000  20.123  1.00  0.00     0.009 A 
ENDBRANCH   1  14
TORSDOF 5
ENDMDL
