MODEL 1
REMARK VINA RESULT: -9.932936821      0.000      0.000
REMARK  3 active torsions:
REMARK  status: ('A' for Active; 'I' for Inactive)
REMARK    1  A    between atoms: C4_8  and  N3_9 
REMARK    2  A    between atoms: N3_9  and  N4_11 
REMARK    3  A    between atoms: C6_16  and  C7_17 
ROOT
HETATM    1  N4  UNL     1      38.663  -5.973  35.675  1.00  0.00    -0.285 N 
ATOM      2  H4  UNL     1      38.354  -5.351  34.927  1.00  0.00     0.188 HD
HETATM    3  C5  UNL     1      39.597  -5.582  36.470  1.00  0.00     0.126 C 
HETATM    4  N5  UNL     1      40.117  -6.315  37.527  1.00  0.00    -0.359 N 
ATOM      5  H5  UNL     1      39.545  -6.934  38.102  1.00  0.00     0.162 HD
HETATM    6  C6  UNL     1      41.541  -6.128  37.746  1.00  0.00     0.180 C 
HETATM    7  S1  UNL     1      41.639  -4.322  37.414  1.00  0.00    -0.106 SA
HETATM    8  C13 UNL     1      40.207  -4.238  36.293  1.00  0.00     0.180 A 
HETATM    9  C14 UNL     1      39.307  -3.134  36.597  1.00  0.00     0.253 A 
HETATM   10  O1  UNL     1      38.663  -2.955  37.658  1.00  0.00    -0.271 OA
HETATM   11  N6  UNL     1      39.291  -2.285  35.450  1.00  0.00    -0.325 N 
ATOM     12  H6  UNL     1      38.750  -1.426  35.358  1.00  0.00     0.169 HD
HETATM   13  C15 UNL     1      40.159  -2.833  34.446  1.00  0.00     0.043 A 
HETATM   14  C16 UNL     1      40.524  -2.454  33.176  1.00  0.00     0.030 A 
HETATM   15  C17 UNL     1      41.400  -3.170  32.387  1.00  0.00     0.002 A 
HETATM   16  C18 UNL     1      41.937  -4.332  32.905  1.00  0.00     0.001 A 
HETATM   17  C19 UNL     1      41.601  -4.755  34.176  1.00  0.00     0.012 A 
HETATM   18  C20 UNL     1      40.719  -4.009  34.937  1.00  0.00     0.004 A 
ENDROOT
BRANCH   1  19
HETATM   19  N3  UNL     1      38.078  -7.187  35.807  1.00  0.00    -0.282 N 
ATOM     20  H3  UNL     1      37.243  -7.179  36.392  1.00  0.00     0.188 HD
BRANCH  19  21
HETATM   21  C4  UNL     1      38.364  -8.330  35.346  1.00  0.00     0.150 A 
HETATM   22  C3  UNL     1      37.579  -9.437  35.555  1.00  0.00     0.106 A 
HETATM   23  N2  UNL     1      36.425  -9.664  36.209  1.00  0.00    -0.296 N 
HETATM   24  C27 UNL     1      37.958 -10.670  35.014  1.00  0.00     0.032 A 
HETATM   25  N1  UNL     1      36.087 -10.922  36.105  1.00  0.00    -0.304 N 
ATOM     26  H2  UNL     1      35.892  -8.956  36.714  1.00  0.00     0.187 HD
HETATM   27  C2  UNL     1      37.013 -11.588  35.369  1.00  0.00     0.035 A 
ATOM     28  H1  UNL     1      35.252 -11.341  36.516  1.00  0.00     0.186 HD
HETATM   29  C1  UNL     1      36.887 -13.038  35.086  1.00  0.00     0.070 C 
HETATM   30  C26 UNL     1      39.122 -10.768  34.274  1.00  0.00     0.005 A 
HETATM   31  C21 UNL     1      39.885  -9.616  34.089  1.00  0.00     0.045 A 
HETATM   32  C25 UNL     1      39.504 -11.963  33.739  1.00  0.00     0.014 A 
HETATM   33  N7  UNL     1      39.485  -8.466  34.623  1.00  0.00    -0.339 N 
HETATM   34  C22 UNL     1      41.045  -9.712  33.351  1.00  0.00     0.030 A 
ATOM     35  H7  UNL     1      40.063  -7.639  34.473  1.00  0.00     0.167 HD
HETATM   36  C23 UNL     1      41.432 -10.913  32.814  1.00  0.00     0.002 A 
HETATM   37  C24 UNL     1      40.691 -12.051  32.987  1.00  0.00     0.001 A 
ENDBRANCH  19  21
ENDBRANCH   1  19
BRANCH   6  38
HETATM   38  C7  UNL     1      41.943  -6.425  39.129  1.00  0.00    -0.026 A 
HETATM   39  C8  UNL     1      43.017  -7.236  39.385  1.00  0.00     0.010 A 
HETATM   40  C9  UNL     1      43.363  -7.491  40.712  1.00  0.00     0.001 A 
HETATM   41  C10 UNL     1      42.653  -6.950  41.750  1.00  0.00     0.000 A 
HETATM   42  C11 UNL     1      41.575  -6.137  41.498  1.00  0.00     0.001 A 
HETATM   43  C12 UNL     1      41.228  -5.881  40.175  1.00  0.00     0.010 A 
ENDBRANCH   6  38
TORSDOF 3
ENDMDL
MODEL 2
REMARK VINA RESULT: -9.743863593      2.390      6.874
REMARK  3 active torsions:
REMARK  status: ('A' for Active; 'I' for Inactive)
REMARK    1  A    between atoms: C4_8  and  N3_9 
REMARK    2  A    between atoms: N3_9  and  N4_11 
REMARK    3  A    between atoms: C6_16  and  C7_17 
ROOT
HETATM    1  N4  UNL     1      38.318  -7.360  35.825  1.00  0.00    -0.285 N 
ATOM      2  H4  UNL     1      37.968  -7.945  35.065  1.00  0.00     0.188 HD
HETATM    3  C5  UNL     1      39.003  -7.904  36.770  1.00  0.00     0.126 C 
HETATM    4  N5  UNL     1      39.541  -7.239  37.862  1.00  0.00    -0.359 N 
ATOM      5  H5  UNL     1      39.911  -6.290  37.802  1.00  0.00     0.162 HD
HETATM    6  C6  UNL     1      39.533  -8.005  39.097  1.00  0.00     0.180 C 
HETATM    7  S1  UNL     1      39.960  -9.655  38.403  1.00  0.00    -0.106 SA
HETATM    8  C13 UNL     1      39.278  -9.364  36.741  1.00  0.00     0.180 A 
HETATM    9  C14 UNL     1      40.178  -9.777  35.673  1.00  0.00     0.253 A 
HETATM   10  O1  UNL     1      41.323  -9.324  35.434  1.00  0.00    -0.271 OA
HETATM   11  N6  UNL     1      39.508 -10.801  34.939  1.00  0.00    -0.325 N 
ATOM     12  H6  UNL     1      39.886 -11.290  34.128  1.00  0.00     0.169 HD
HETATM   13  C15 UNL     1      38.219 -11.035  35.526  1.00  0.00     0.043 A 
HETATM   14  C16 UNL     1      37.172 -11.882  35.247  1.00  0.00     0.030 A 
HETATM   15  C17 UNL     1      36.003 -11.919  35.979  1.00  0.00     0.002 A 
HETATM   16  C18 UNL     1      35.883 -11.055  37.051  1.00  0.00     0.001 A 
HETATM   17  C19 UNL     1      36.906 -10.186  37.370  1.00  0.00     0.012 A 
HETATM   18  C20 UNL     1      38.063 -10.179  36.612  1.00  0.00     0.004 A 
ENDROOT
BRANCH   1  19
HETATM   19  N3  UNL     1      38.051  -6.032  35.812  1.00  0.00    -0.282 N 
ATOM     20  H3  UNL     1      37.093  -5.805  36.079  1.00  0.00     0.188 HD
BRANCH  19  21
HETATM   21  C4  UNL     1      38.756  -5.019  35.535  1.00  0.00     0.150 A 
HETATM   22  C3  UNL     1      38.232  -3.756  35.416  1.00  0.00     0.106 A 
HETATM   23  N2  UNL     1      36.997  -3.233  35.530  1.00  0.00    -0.296 N 
HETATM   24  C27 UNL     1      39.072  -2.682  35.107  1.00  0.00     0.032 A 
HETATM   25  N1  UNL     1      37.031  -1.943  35.316  1.00  0.00    -0.304 N 
ATOM     26  H2  UNL     1      36.156  -3.765  35.751  1.00  0.00     0.187 HD
HETATM   27  C2  UNL     1      38.304  -1.555  35.049  1.00  0.00     0.035 A 
ATOM     28  H1  UNL     1      36.222  -1.322  35.346  1.00  0.00     0.186 HD
HETATM   29  C1  UNL     1      38.643  -0.140  34.765  1.00  0.00     0.070 C 
HETATM   30  C26 UNL     1      40.426  -2.897  34.923  1.00  0.00     0.005 A 
HETATM   31  C21 UNL     1      40.911  -4.198  35.056  1.00  0.00     0.045 A 
HETATM   32  C25 UNL     1      41.259  -1.860  34.623  1.00  0.00     0.014 A 
HETATM   33  N7  UNL     1      40.073  -5.188  35.350  1.00  0.00    -0.339 N 
HETATM   34  C22 UNL     1      42.259  -4.415  34.873  1.00  0.00     0.030 A 
ATOM     35  H7  UNL     1      40.454  -6.129  35.440  1.00  0.00     0.167 HD
HETATM   36  C23 UNL     1      43.098  -3.373  34.570  1.00  0.00     0.002 A 
HETATM   37  C24 UNL     1      42.635  -2.091  34.438  1.00  0.00     0.001 A 
ENDBRANCH  19  21
ENDBRANCH   1  19
BRANCH   6  38
HETATM   38  C7  UNL     1      40.564  -7.557  40.045  1.00  0.00    -0.026 A 
HETATM   39  C8  UNL     1      40.699  -6.229  40.353  1.00  0.00     0.010 A 
HETATM   40  C9  UNL     1      41.690  -5.848  41.257  1.00  0.00     0.001 A 
HETATM   41  C10 UNL     1      42.520  -6.771  41.834  1.00  0.00     0.000 A 
HETATM   42  C11 UNL     1      42.389  -8.103  41.529  1.00  0.00     0.001 A 
HETATM   43  C12 UNL     1      41.400  -8.486  40.627  1.00  0.00     0.010 A 
ENDBRANCH   6  38
TORSDOF 3
ENDMDL
MODEL 3
REMARK VINA RESULT: -9.629933468      3.281      7.315
REMARK  3 active torsions:
REMARK  status: ('A' for Active; 'I' for Inactive)
REMARK    1  A    between atoms: C4_8  and  N3_9 
REMARK    2  A    between atoms: N3_9  and  N4_11 
REMARK    3  A    between atoms: C6_16  and  C7_17 
ROOT
HETATM    1  N4  UNL     1      41.495  -5.666  38.837  1.00  0.00    -0.285 N 
ATOM      2  H4  UNL     1      42.502  -5.510  38.874  1.00  0.00     0.188 HD
HETATM    3  C5  UNL     1      41.050  -6.866  38.692  1.00  0.00     0.126 C 
HETATM    4  N5  UNL     1      39.713  -7.228  38.625  1.00  0.00    -0.359 N 
ATOM      5  H5  UNL     1      38.987  -6.759  39.166  1.00  0.00     0.162 HD
HETATM    6  C6  UNL     1      39.433  -8.331  37.720  1.00  0.00     0.180 C 
HETATM    7  S1  UNL     1      40.911  -9.366  38.077  1.00  0.00    -0.106 SA
HETATM    8  C13 UNL     1      42.003  -8.001  38.586  1.00  0.00     0.180 A 
HETATM    9  C14 UNL     1      42.732  -8.280  39.815  1.00  0.00     0.253 A 
HETATM   10  O1  UNL     1      42.244  -8.497  40.950  1.00  0.00    -0.271 OA
HETATM   11  N6  UNL     1      44.121  -8.258  39.488  1.00  0.00    -0.325 N 
ATOM     12  H6  UNL     1      44.885  -8.418  40.143  1.00  0.00     0.169 HD
HETATM   13  C15 UNL     1      44.270  -7.976  38.088  1.00  0.00     0.043 A 
HETATM   14  C16 UNL     1      45.345  -7.838  37.242  1.00  0.00     0.030 A 
HETATM   15  C17 UNL     1      45.227  -7.558  35.896  1.00  0.00     0.002 A 
HETATM   16  C18 UNL     1      43.957  -7.408  35.375  1.00  0.00     0.001 A 
HETATM   17  C19 UNL     1      42.847  -7.536  36.184  1.00  0.00     0.012 A 
HETATM   18  C20 UNL     1      43.006  -7.819  37.529  1.00  0.00     0.004 A 
ENDROOT
BRANCH   1  19
HETATM   19  N3  UNL     1      40.659  -4.605  38.943  1.00  0.00    -0.282 N 
ATOM     20  H3  UNL     1      40.369  -4.406  39.900  1.00  0.00     0.188 HD
BRANCH  19  21
HETATM   21  C4  UNL     1      40.167  -3.813  38.087  1.00  0.00     0.150 A 
HETATM   22  C3  UNL     1      39.335  -2.775  38.424  1.00  0.00     0.106 A 
HETATM   23  N2  UNL     1      38.831  -2.308  39.581  1.00  0.00    -0.296 N 
HETATM   24  C27 UNL     1      38.828  -1.938  37.424  1.00  0.00     0.032 A 
HETATM   25  N1  UNL     1      38.070  -1.269  39.356  1.00  0.00    -0.304 N 
ATOM     26  H2  UNL     1      39.015  -2.707  40.501  1.00  0.00     0.187 HD
HETATM   27  C2  UNL     1      38.039  -1.002  38.025  1.00  0.00     0.035 A 
ATOM     28  H1  UNL     1      37.574  -0.738  40.073  1.00  0.00     0.186 HD
HETATM   29  C1  UNL     1      37.250   0.127  37.476  1.00  0.00     0.070 C 
HETATM   30  C26 UNL     1      39.168  -2.162  36.102  1.00  0.00     0.005 A 
HETATM   31  C21 UNL     1      40.016  -3.229  35.811  1.00  0.00     0.045 A 
HETATM   32  C25 UNL     1      38.683  -1.355  35.116  1.00  0.00     0.014 A 
HETATM   33  N7  UNL     1      40.473  -3.998  36.796  1.00  0.00    -0.339 N 
HETATM   34  C22 UNL     1      40.356  -3.453  34.494  1.00  0.00     0.030 A 
ATOM     35  H7  UNL     1      41.091  -4.772  36.554  1.00  0.00     0.167 HD
HETATM   36  C23 UNL     1      39.868  -2.643  33.501  1.00  0.00     0.002 A 
HETATM   37  C24 UNL     1      39.035  -1.592  33.774  1.00  0.00     0.001 A 
ENDBRANCH  19  21
ENDBRANCH   1  19
BRANCH   6  38
HETATM   38  C7  UNL     1      38.199  -9.048  38.070  1.00  0.00    -0.026 A 
HETATM   39  C8  UNL     1      37.891  -9.310  39.379  1.00  0.00     0.010 A 
HETATM   40  C9  UNL     1      36.710  -9.993  39.667  1.00  0.00     0.001 A 
HETATM   41  C10 UNL     1      35.863 -10.402  38.672  1.00  0.00     0.000 A 
HETATM   42  C11 UNL     1      36.167 -10.142  37.358  1.00  0.00     0.001 A 
HETATM   43  C12 UNL     1      37.346  -9.460  37.069  1.00  0.00     0.010 A 
ENDBRANCH   6  38
TORSDOF 3
ENDMDL
MODEL 4
REMARK VINA RESULT: -9.494184328      3.089      5.577
REMARK  3 active torsions:
REMARK  status: ('A' for Active; 'I' for Inactive)
REMARK    1  A    between atoms: C4_8  and  N3_9 
REMARK    2  A    between atoms: N3_9  and  N4_11 
REMARK    3  A    between atoms: C6_16  and  C7_17 
ROOT
HETATM    1  N4  UNL     1      39.853  -8.213  38.694  1.00  0.00    -0.285 N 
ATOM      2  H4  UNL     1      39.671  -7.327  39.166  1.00  0.00     0.188 HD
HETATM    3  C5  UNL     1      40.797  -8.275  37.820  1.00  0.00     0.126 C 
HETATM    4  N5  UNL     1      41.156  -9.406  37.102  1.00  0.00    -0.359 N 
ATOM      5  H5  UNL     1      41.124 -10.345  37.498  1.00  0.00     0.162 HD
HETATM    6  C6  UNL     1      41.584  -9.141  35.738  1.00  0.00     0.180 C 
HETATM    7  S1  UNL     1      42.531  -7.593  36.039  1.00  0.00    -0.106 SA
HETATM    8  C13 UNL     1      41.607  -7.067  37.516  1.00  0.00     0.180 A 
HETATM    9  C14 UNL     1      42.469  -6.642  38.609  1.00  0.00     0.253 A 
HETATM   10  O1  UNL     1      43.317  -7.339  39.217  1.00  0.00    -0.271 OA
HETATM   11  N6  UNL     1      42.168  -5.271  38.866  1.00  0.00    -0.325 N 
ATOM     12  H6  UNL     1      42.610  -4.692  39.579  1.00  0.00     0.169 HD
HETATM   13  C15 UNL     1      41.143  -4.836  37.959  1.00  0.00     0.043 A 
HETATM   14  C16 UNL     1      40.479  -3.651  37.751  1.00  0.00     0.030 A 
HETATM   15  C17 UNL     1      39.505  -3.478  36.789  1.00  0.00     0.002 A 
HETATM   16  C18 UNL     1      39.183  -4.560  35.993  1.00  0.00     0.001 A 
HETATM   17  C19 UNL     1      39.822  -5.772  36.163  1.00  0.00     0.012 A 
HETATM   18  C20 UNL     1      40.794  -5.905  37.139  1.00  0.00     0.004 A 
ENDROOT
BRANCH   1  19
HETATM   19  N3  UNL     1      39.095  -9.292  39.003  1.00  0.00    -0.282 N 
ATOM     20  H3  UNL     1      39.561  -9.956  39.622  1.00  0.00     0.188 HD
BRANCH  19  21
HETATM   21  C4  UNL     1      37.924  -9.640  38.674  1.00  0.00     0.150 A 
HETATM   22  C3  UNL     1      37.656 -10.409  37.570  1.00  0.00     0.106 A 
HETATM   23  N2  UNL     1      38.411 -10.973  36.608  1.00  0.00    -0.296 N 
HETATM   24  C27 UNL     1      36.336 -10.756  37.268  1.00  0.00     0.032 A 
HETATM   25  N1  UNL     1      37.654 -11.622  35.762  1.00  0.00    -0.304 N 
ATOM     26  H2  UNL     1      39.426 -10.903  36.548  1.00  0.00     0.187 HD
HETATM   27  C2  UNL     1      36.353 -11.514  36.134  1.00  0.00     0.035 A 
ATOM     28  H1  UNL     1      37.991 -12.133  34.946  1.00  0.00     0.186 HD
HETATM   29  C1  UNL     1      35.266 -12.154  35.355  1.00  0.00     0.070 C 
HETATM   30  C26 UNL     1      35.306 -10.320  38.082  1.00  0.00     0.005 A 
HETATM   31  C21 UNL     1      35.629  -9.541  39.192  1.00  0.00     0.045 A 
HETATM   32  C25 UNL     1      34.013 -10.649  37.801  1.00  0.00     0.014 A 
HETATM   33  N7  UNL     1      36.900  -9.237  39.439  1.00  0.00    -0.339 N 
HETATM   34  C22 UNL     1      34.605  -9.106  40.005  1.00  0.00     0.030 A 
ATOM     35  H7  UNL     1      37.107  -8.664  40.257  1.00  0.00     0.167 HD
HETATM   36  C23 UNL     1      33.304  -9.435  39.724  1.00  0.00     0.002 A 
HETATM   37  C24 UNL     1      32.974 -10.200  38.637  1.00  0.00     0.001 A 
ENDBRANCH  19  21
ENDBRANCH   1  19
BRANCH   6  38
HETATM   38  C7  UNL     1      42.463 -10.194  35.208  1.00  0.00    -0.026 A 
HETATM   39  C8  UNL     1      43.567  -9.872  34.463  1.00  0.00     0.010 A 
HETATM   40  C9  UNL     1      44.373 -10.902  33.980  1.00  0.00     0.001 A 
HETATM   41  C10 UNL     1      44.081 -12.215  34.235  1.00  0.00     0.000 A 
HETATM   42  C11 UNL     1      42.975 -12.543  34.981  1.00  0.00     0.001 A 
HETATM   43  C12 UNL     1      42.169 -11.516  35.464  1.00  0.00     0.010 A 
ENDBRANCH   6  38
TORSDOF 3
ENDMDL
MODEL 5
REMARK VINA RESULT: -9.456908608      3.489      7.841
REMARK  3 active torsions:
REMARK  status: ('A' for Active; 'I' for Inactive)
REMARK    1  A    between atoms: C4_8  and  N3_9 
REMARK    2  A    between atoms: N3_9  and  N4_11 
REMARK    3  A    between atoms: C6_16  and  C7_17 
ROOT
HETATM    1  N4  UNL     1      41.396  -5.669  39.054  1.00  0.00    -0.285 N 
ATOM      2  H4  UNL     1      42.404  -5.522  39.100  1.00  0.00     0.188 HD
HETATM    3  C5  UNL     1      40.943  -6.859  38.864  1.00  0.00     0.126 C 
HETATM    4  N5  UNL     1      39.603  -7.209  38.780  1.00  0.00    -0.359 N 
ATOM      5  H5  UNL     1      38.879  -6.755  39.337  1.00  0.00     0.162 HD
HETATM    6  C6  UNL     1      39.317  -8.275  37.834  1.00  0.00     0.180 C 
HETATM    7  S1  UNL     1      40.787  -9.334  38.156  1.00  0.00    -0.106 SA
HETATM    8  C13 UNL     1      41.887  -7.998  38.718  1.00  0.00     0.180 A 
HETATM    9  C14 UNL     1      42.611  -8.327  39.938  1.00  0.00     0.253 A 
HETATM   10  O1  UNL     1      42.118  -8.582  41.063  1.00  0.00    -0.271 OA
HETATM   11  N6  UNL     1      44.000  -8.304  39.615  1.00  0.00    -0.325 N 
ATOM     12  H6  UNL     1      44.762  -8.494  40.266  1.00  0.00     0.169 HD
HETATM   13  C15 UNL     1      44.156  -7.971  38.227  1.00  0.00     0.043 A 
HETATM   14  C16 UNL     1      45.234  -7.810  37.389  1.00  0.00     0.030 A 
HETATM   15  C17 UNL     1      45.122  -7.479  36.054  1.00  0.00     0.002 A 
HETATM   16  C18 UNL     1      43.854  -7.300  35.536  1.00  0.00     0.001 A 
HETATM   17  C19 UNL     1      42.741  -7.450  36.337  1.00  0.00     0.012 A 
HETATM   18  C20 UNL     1      42.894  -7.784  37.671  1.00  0.00     0.004 A 
ENDROOT
BRANCH   1  19
HETATM   19  N3  UNL     1      40.567  -4.607  39.197  1.00  0.00    -0.282 N 
ATOM     20  H3  UNL     1      40.074  -4.589  40.089  1.00  0.00     0.188 HD
BRANCH  19  21
HETATM   21  C4  UNL     1      40.286  -3.632  38.441  1.00  0.00     0.150 A 
HETATM   22  C3  UNL     1      41.028  -3.310  37.333  1.00  0.00     0.106 A 
HETATM   23  N2  UNL     1      42.128  -3.824  36.752  1.00  0.00    -0.296 N 
HETATM   24  C27 UNL     1      40.657  -2.217  36.542  1.00  0.00     0.032 A 
HETATM   25  N1  UNL     1      42.442  -3.133  35.687  1.00  0.00    -0.304 N 
ATOM     26  H2  UNL     1      42.642  -4.636  37.093  1.00  0.00     0.187 HD
HETATM   27  C2  UNL     1      41.553  -2.121  35.517  1.00  0.00     0.035 A 
ATOM     28  H1  UNL     1      43.237  -3.326  35.076  1.00  0.00     0.186 HD
HETATM   29  C1  UNL     1      41.664  -1.170  34.385  1.00  0.00     0.070 C 
HETATM   30  C26 UNL     1      39.546  -1.467  36.882  1.00  0.00     0.005 A 
HETATM   31  C21 UNL     1      38.825  -1.834  38.017  1.00  0.00     0.045 A 
HETATM   32  C25 UNL     1      39.171  -0.400  36.121  1.00  0.00     0.014 A 
HETATM   33  N7  UNL     1      39.216  -2.881  38.738  1.00  0.00    -0.339 N 
HETATM   34  C22 UNL     1      37.718  -1.088  38.358  1.00  0.00     0.030 A 
ATOM     35  H7  UNL     1      38.671  -3.127  39.564  1.00  0.00     0.167 HD
HETATM   36  C23 UNL     1      37.340  -0.014  37.594  1.00  0.00     0.002 A 
HETATM   37  C24 UNL     1      38.039   0.357  36.477  1.00  0.00     0.001 A 
ENDBRANCH  19  21
ENDBRANCH   1  19
BRANCH   6  38
HETATM   38  C7  UNL     1      38.076  -8.996  38.155  1.00  0.00    -0.026 A 
HETATM   39  C8  UNL     1      37.731  -9.246  39.457  1.00  0.00     0.010 A 
HETATM   40  C9  UNL     1      36.546  -9.933  39.716  1.00  0.00     0.001 A 
HETATM   41  C10 UNL     1      35.731 -10.356  38.700  1.00  0.00     0.000 A 
HETATM   42  C11 UNL     1      36.073 -10.108  37.394  1.00  0.00     0.001 A 
HETATM   43  C12 UNL     1      37.256  -9.422  37.133  1.00  0.00     0.010 A 
ENDBRANCH   6  38
TORSDOF 3
ENDMDL
