MODEL 1
REMARK VINA RESULT: -9.245136372      0.000      0.000
REMARK  5 active torsions:
REMARK  status: ('A' for Active; 'I' for Inactive)
REMARK    1  A    between atoms: C2_3  and  C3_4 
REMARK    2  A    between atoms: C4_5  and  O2_6 
REMARK    3  A    between atoms: C19_28  and  C20_29 
REMARK    4  A    between atoms: C23_32  and  C24_33 
REMARK    5  A    between atoms: N3_41  and  O5_42 
ROOT
HETATM    1  O1  UNL     1      38.224  -9.977  38.919  1.00  0.00    -0.265 OA
HETATM    2  C1  UNL     1      39.078  -9.903  37.976  1.00  0.00     0.284 A 
HETATM    3  C2  UNL     1      40.365  -9.235  38.029  1.00  0.00     0.062 A 
HETATM    4  C11 UNL     1      40.949  -9.384  36.852  1.00  0.00     0.021 A 
HETATM    5  C12 UNL     1      40.123 -10.147  35.934  1.00  0.00     0.079 A 
HETATM    6  C13 UNL     1      40.754 -10.270  34.768  1.00  0.00     0.046 A 
HETATM    7  C14 UNL     1      42.049  -9.603  34.808  1.00  0.00    -0.012 A 
HETATM    8  C15 UNL     1      42.169  -9.063  36.077  1.00  0.00    -0.011 A 
HETATM    9  C16 UNL     1      43.308  -8.368  36.408  1.00  0.00     0.013 A 
HETATM   10  C17 UNL     1      44.320  -8.209  35.488  1.00  0.00     0.002 A 
HETATM   11  C18 UNL     1      44.204  -8.747  34.217  1.00  0.00     0.013 A 
HETATM   12  C19 UNL     1      43.069  -9.443  33.879  1.00  0.00    -0.015 A 
HETATM   13  N3  UNL     1      38.951 -10.457  36.678  1.00  0.00    -0.186 N 
ENDROOT
BRANCH   3  14
HETATM   14  C3  UNL     1      40.962  -8.462  39.117  1.00  0.00     0.032 A 
HETATM   15  C4  UNL     1      41.880  -9.112  39.967  1.00  0.00     0.078 A 
HETATM   16  C5  UNL     1      42.440  -8.391  40.993  1.00  0.00     0.040 A 
HETATM   17  C6  UNL     1      42.133  -7.066  41.209  1.00  0.00     0.033 A 
HETATM   18  C7  UNL     1      41.233  -6.433  40.376  1.00  0.00     0.053 A 
HETATM   19  N1  UNL     1      40.937  -5.144  40.609  1.00  0.00    -0.308 N 
HETATM   20  C10 UNL     1      40.652  -7.159  39.324  1.00  0.00     0.073 A 
HETATM   21  C8  UNL     1      40.055  -4.516  39.817  1.00  0.00     0.327 A 
ATOM     22  H1  UNL     1      41.378  -4.647  41.382  1.00  0.00     0.170 HD
HETATM   23  O3  UNL     1      39.769  -3.303  40.027  1.00  0.00    -0.247 OA
HETATM   24  N2  UNL     1      39.472  -5.170  38.798  1.00  0.00    -0.275 N 
HETATM   25  C9  UNL     1      39.754  -6.476  38.540  1.00  0.00     0.262 A 
ATOM     26  H2  UNL     1      38.803  -4.677  38.207  1.00  0.00     0.173 HD
HETATM   27  O4  UNL     1      39.195  -7.057  37.588  1.00  0.00    -0.267 OA
BRANCH  15  28
HETATM   28  O2  UNL     1      42.162 -10.429  39.723  1.00  0.00    -0.360 OA
ATOM     29  H2  UNL     1      41.923 -11.067  40.385  1.00  0.00     0.217 HD
ENDBRANCH  15  28
ENDBRANCH   3  14
BRANCH  13  30
HETATM   30  O5  UNL     1      37.913 -11.173  36.163  1.00  0.00    -0.279 OA
ATOM     31  H5  UNL     1      37.175 -10.859  35.654  1.00  0.00     0.245 HD
ENDBRANCH  13  30
BRANCH  12  32
HETATM   32  C20 UNL     1      42.902 -10.022  32.559  1.00  0.00    -0.025 A 
HETATM   33  C21 UNL     1      42.196 -11.161  32.330  1.00  0.00     0.013 A 
HETATM   34  C22 UNL     1      42.096 -11.659  31.044  1.00  0.00     0.013 A 
HETATM   35  C23 UNL     1      42.720 -10.980  30.023  1.00  0.00    -0.026 A 
HETATM   36  C30 UNL     1      43.441  -9.824  30.239  1.00  0.00     0.013 A 
HETATM   37  C31 UNL     1      43.527  -9.351  31.509  1.00  0.00     0.013 A 
BRANCH  35  38
HETATM   38  C24 UNL     1      42.650 -11.472  28.653  1.00  0.00    -0.026 A 
HETATM   39  C25 UNL     1      42.020 -10.727  27.675  1.00  0.00     0.012 A 
HETATM   40  C26 UNL     1      42.009 -11.276  26.403  1.00  0.00     0.001 A 
HETATM   41  C27 UNL     1      42.587 -12.494  26.109  1.00  0.00     0.000 A 
HETATM   42  C28 UNL     1      43.207 -13.207  27.120  1.00  0.00     0.001 A 
HETATM   43  C29 UNL     1      43.236 -12.693  28.388  1.00  0.00     0.012 A 
ENDBRANCH  35  38
ENDBRANCH  12  32
TORSDOF 5
ENDMDL
MODEL 2
REMARK VINA RESULT: -9.004087258      3.940      9.289
REMARK  5 active torsions:
REMARK  status: ('A' for Active; 'I' for Inactive)
REMARK    1  A    between atoms: C2_3  and  C3_4 
REMARK    2  A    between atoms: C4_5  and  O2_6 
REMARK    3  A    between atoms: C19_28  and  C20_29 
REMARK    4  A    between atoms: C23_32  and  C24_33 
REMARK    5  A    between atoms: N3_41  and  O5_42 
ROOT
HETATM    1  O1  UNL     1      38.132 -11.477  35.835  1.00  0.00    -0.265 OA
HETATM    2  C1  UNL     1      38.625 -10.302  35.830  1.00  0.00     0.284 A 
HETATM    3  C2  UNL     1      39.980  -9.937  35.461  1.00  0.00     0.062 A 
HETATM    4  C11 UNL     1      40.098  -8.626  35.590  1.00  0.00     0.021 A 
HETATM    5  C12 UNL     1      38.860  -8.017  36.044  1.00  0.00     0.079 A 
HETATM    6  C13 UNL     1      39.029  -6.702  36.155  1.00  0.00     0.046 A 
HETATM    7  C14 UNL     1      40.387  -6.321  35.788  1.00  0.00    -0.012 A 
HETATM    8  C15 UNL     1      41.039  -7.493  35.443  1.00  0.00    -0.011 A 
HETATM    9  C16 UNL     1      42.354  -7.440  35.045  1.00  0.00     0.013 A 
HETATM   10  C17 UNL     1      43.017  -6.235  34.989  1.00  0.00     0.002 A 
HETATM   11  C18 UNL     1      42.370  -5.060  35.332  1.00  0.00     0.013 A 
HETATM   12  C19 UNL     1      41.056  -5.106  35.731  1.00  0.00    -0.015 A 
HETATM   13  N3  UNL     1      37.954  -9.105  36.184  1.00  0.00    -0.186 N 
ENDROOT
BRANCH   3  14
HETATM   14  C3  UNL     1      41.095 -10.797  35.068  1.00  0.00     0.032 A 
HETATM   15  C4  UNL     1      41.984 -11.232  36.072  1.00  0.00     0.078 A 
HETATM   16  C5  UNL     1      43.034 -12.038  35.706  1.00  0.00     0.040 A 
HETATM   17  C6  UNL     1      43.239 -12.426  34.401  1.00  0.00     0.033 A 
HETATM   18  C7  UNL     1      42.368 -11.998  33.421  1.00  0.00     0.053 A 
HETATM   19  N1  UNL     1      42.589 -12.378  32.152  1.00  0.00    -0.308 N 
HETATM   20  C10 UNL     1      41.290 -11.173  33.781  1.00  0.00     0.073 A 
HETATM   21  C8  UNL     1      41.760 -11.961  31.184  1.00  0.00     0.327 A 
ATOM     22  H1  UNL     1      43.382 -12.978  31.926  1.00  0.00     0.170 HD
HETATM   23  O3  UNL     1      41.959 -12.312  29.986  1.00  0.00    -0.247 OA
HETATM   24  N2  UNL     1      40.715 -11.169  31.479  1.00  0.00    -0.275 N 
HETATM   25  C9  UNL     1      40.468 -10.770  32.757  1.00  0.00     0.262 A 
ATOM     26  H2  UNL     1      40.095 -10.860  30.731  1.00  0.00     0.173 HD
HETATM   27  O4  UNL     1      39.491 -10.032  33.000  1.00  0.00    -0.267 OA
BRANCH  15  28
HETATM   28  O2  UNL     1      41.751 -10.827  37.358  1.00  0.00    -0.360 OA
ATOM     29  H2  UNL     1      41.438 -11.473  37.980  1.00  0.00     0.217 HD
ENDBRANCH  15  28
ENDBRANCH   3  14
BRANCH  13  30
HETATM   30  O5  UNL     1      36.666  -8.949  36.598  1.00  0.00    -0.279 OA
ATOM     31  H5  UNL     1      36.286  -9.173  37.439  1.00  0.00     0.245 HD
ENDBRANCH  13  30
BRANCH  12  32
HETATM   32  C20 UNL     1      40.337  -3.901  36.104  1.00  0.00    -0.025 A 
HETATM   33  C21 UNL     1      40.316  -3.409  37.371  1.00  0.00     0.013 A 
HETATM   34  C22 UNL     1      39.593  -2.263  37.649  1.00  0.00     0.013 A 
HETATM   35  C23 UNL     1      38.911  -1.648  36.625  1.00  0.00    -0.026 A 
HETATM   36  C30 UNL     1      38.923  -2.135  35.334  1.00  0.00     0.013 A 
HETATM   37  C31 UNL     1      39.638  -3.261  35.081  1.00  0.00     0.013 A 
BRANCH  35  38
HETATM   38  C24 UNL     1      38.130  -0.443  36.873  1.00  0.00    -0.026 A 
HETATM   39  C25 UNL     1      37.185  -0.417  37.879  1.00  0.00     0.012 A 
HETATM   40  C26 UNL     1      36.498   0.775  38.040  1.00  0.00     0.001 A 
HETATM   41  C27 UNL     1      36.728   1.884  37.251  1.00  0.00     0.000 A 
HETATM   42  C28 UNL     1      37.684   1.814  36.254  1.00  0.00     0.001 A 
HETATM   43  C29 UNL     1      38.382   0.651  36.068  1.00  0.00     0.012 A 
ENDBRANCH  35  38
ENDBRANCH  12  32
TORSDOF 5
ENDMDL
MODEL 3
REMARK VINA RESULT: -8.893528497      4.903      8.234
REMARK  5 active torsions:
REMARK  status: ('A' for Active; 'I' for Inactive)
REMARK    1  A    between atoms: C2_3  and  C3_4 
REMARK    2  A    between atoms: C4_5  and  O2_6 
REMARK    3  A    between atoms: C19_28  and  C20_29 
REMARK    4  A    between atoms: C23_32  and  C24_33 
REMARK    5  A    between atoms: N3_41  and  O5_42 
ROOT
HETATM    1  O1  UNL     1      41.766 -10.833  38.836  1.00  0.00    -0.265 OA
HETATM    2  C1  UNL     1      41.638  -9.695  38.277  1.00  0.00     0.284 A 
HETATM    3  C2  UNL     1      40.397  -9.086  37.835  1.00  0.00     0.062 A 
HETATM    4  C11 UNL     1      40.687  -7.909  37.307  1.00  0.00     0.021 A 
HETATM    5  C12 UNL     1      42.113  -7.636  37.350  1.00  0.00     0.079 A 
HETATM    6  C13 UNL     1      42.352  -6.444  36.809  1.00  0.00     0.046 A 
HETATM    7  C14 UNL     1      41.113  -5.821  36.361  1.00  0.00    -0.012 A 
HETATM    8  C15 UNL     1      40.098  -6.712  36.663  1.00  0.00    -0.011 A 
HETATM    9  C16 UNL     1      38.799  -6.386  36.352  1.00  0.00     0.013 A 
HETATM   10  C17 UNL     1      38.509  -5.184  35.746  1.00  0.00     0.002 A 
HETATM   11  C18 UNL     1      39.521  -4.289  35.442  1.00  0.00     0.013 A 
HETATM   12  C19 UNL     1      40.821  -4.609  35.750  1.00  0.00    -0.015 A 
HETATM   13  N3  UNL     1      42.680  -8.785  37.968  1.00  0.00    -0.186 N 
ENDROOT
BRANCH   3  14
HETATM   14  C3  UNL     1      39.039  -9.625  37.869  1.00  0.00     0.032 A 
HETATM   15  C4  UNL     1      38.215  -9.281  38.961  1.00  0.00     0.078 A 
HETATM   16  C5  UNL     1      36.940  -9.789  38.999  1.00  0.00     0.040 A 
HETATM   17  C6  UNL     1      36.451 -10.614  38.011  1.00  0.00     0.033 A 
HETATM   18  C7  UNL     1      37.259 -10.950  36.945  1.00  0.00     0.053 A 
HETATM   19  N1  UNL     1      36.769 -11.765  35.996  1.00  0.00    -0.308 N 
HETATM   20  C10 UNL     1      38.566 -10.438  36.894  1.00  0.00     0.073 A 
HETATM   21  C8  UNL     1      37.545 -12.111  34.959  1.00  0.00     0.327 A 
ATOM     22  H1  UNL     1      35.815 -12.117  36.064  1.00  0.00     0.170 HD
HETATM   23  O3  UNL     1      37.094 -12.878  34.061  1.00  0.00    -0.247 OA
HETATM   24  N2  UNL     1      38.803 -11.649  34.867  1.00  0.00    -0.275 N 
HETATM   25  C9  UNL     1      39.325 -10.822  35.814  1.00  0.00     0.262 A 
ATOM     26  H2  UNL     1      39.380 -11.924  34.072  1.00  0.00     0.173 HD
HETATM   27  O4  UNL     1      40.497 -10.410  35.703  1.00  0.00    -0.267 OA
BRANCH  15  28
HETATM   28  O2  UNL     1      38.734  -8.459  39.924  1.00  0.00    -0.360 OA
ATOM     29  H2  UNL     1      38.153  -7.829  40.333  1.00  0.00     0.217 HD
ENDBRANCH  15  28
ENDBRANCH   3  14
BRANCH  13  30
HETATM   30  O5  UNL     1      44.015  -8.921  38.196  1.00  0.00    -0.279 OA
ATOM     31  H5  UNL     1      44.633  -8.263  38.494  1.00  0.00     0.245 HD
ENDBRANCH  13  30
BRANCH  12  32
HETATM   32  C20 UNL     1      41.914  -3.703  35.447  1.00  0.00    -0.025 A 
HETATM   33  C21 UNL     1      42.797  -3.915  34.436  1.00  0.00     0.013 A 
HETATM   34  C22 UNL     1      43.823  -3.013  34.222  1.00  0.00     0.013 A 
HETATM   35  C23 UNL     1      43.920  -1.916  35.046  1.00  0.00    -0.026 A 
HETATM   36  C30 UNL     1      43.032  -1.686  36.076  1.00  0.00     0.013 A 
HETATM   37  C31 UNL     1      42.031  -2.584  36.271  1.00  0.00     0.013 A 
BRANCH  35  38
HETATM   38  C24 UNL     1      44.990  -0.942  34.863  1.00  0.00    -0.026 A 
HETATM   39  C25 UNL     1      45.593  -0.790  33.630  1.00  0.00     0.012 A 
HETATM   40  C26 UNL     1      46.595   0.163  33.555  1.00  0.00     0.001 A 
HETATM   41  C27 UNL     1      46.983   0.927  34.637  1.00  0.00     0.000 A 
HETATM   42  C28 UNL     1      46.351   0.743  35.854  1.00  0.00     0.001 A 
HETATM   43  C29 UNL     1      45.356  -0.192  35.962  1.00  0.00     0.012 A 
ENDBRANCH  35  38
ENDBRANCH  12  32
TORSDOF 5
ENDMDL
MODEL 4
REMARK VINA RESULT: -8.876534873      0.410      1.161
REMARK  5 active torsions:
REMARK  status: ('A' for Active; 'I' for Inactive)
REMARK    1  A    between atoms: C2_3  and  C3_4 
REMARK    2  A    between atoms: C4_5  and  O2_6 
REMARK    3  A    between atoms: C19_28  and  C20_29 
REMARK    4  A    between atoms: C23_32  and  C24_33 
REMARK    5  A    between atoms: N3_41  and  O5_42 
ROOT
HETATM    1  O1  UNL     1      38.449 -10.065  38.615  1.00  0.00    -0.265 OA
HETATM    2  C1  UNL     1      39.324  -9.886  37.707  1.00  0.00     0.284 A 
HETATM    3  C2  UNL     1      40.569  -9.152  37.842  1.00  0.00     0.062 A 
HETATM    4  C11 UNL     1      41.196  -9.195  36.678  1.00  0.00     0.021 A 
HETATM    5  C12 UNL     1      40.442  -9.943  35.689  1.00  0.00     0.079 A 
HETATM    6  C13 UNL     1      41.112  -9.958  34.540  1.00  0.00     0.046 A 
HETATM    7  C14 UNL     1      42.365  -9.224  34.662  1.00  0.00    -0.012 A 
HETATM    8  C15 UNL     1      42.418  -8.758  35.965  1.00  0.00    -0.011 A 
HETATM    9  C16 UNL     1      43.504  -8.024  36.375  1.00  0.00     0.013 A 
HETATM   10  C17 UNL     1      44.532  -7.752  35.500  1.00  0.00     0.002 A 
HETATM   11  C18 UNL     1      44.485  -8.215  34.196  1.00  0.00     0.013 A 
HETATM   12  C19 UNL     1      43.402  -8.951  33.779  1.00  0.00    -0.015 A 
HETATM   13  N3  UNL     1      39.268 -10.363  36.374  1.00  0.00    -0.186 N 
ENDROOT
BRANCH   3  14
HETATM   14  C3  UNL     1      41.089  -8.417  38.995  1.00  0.00     0.032 A 
HETATM   15  C4  UNL     1      41.963  -9.090  39.872  1.00  0.00     0.078 A 
HETATM   16  C5  UNL     1      42.450  -8.404  40.958  1.00  0.00     0.040 A 
HETATM   17  C6  UNL     1      42.112  -7.093  41.207  1.00  0.00     0.033 A 
HETATM   18  C7  UNL     1      41.256  -6.437  40.347  1.00  0.00     0.053 A 
HETATM   19  N1  UNL     1      40.928  -5.162  40.613  1.00  0.00    -0.308 N 
HETATM   20  C10 UNL     1      40.749  -7.127  39.234  1.00  0.00     0.073 A 
HETATM   21  C8  UNL     1      40.087  -4.513  39.794  1.00  0.00     0.327 A 
ATOM     22  H1  UNL     1      41.315  -4.691  41.430  1.00  0.00     0.170 HD
HETATM   23  O3  UNL     1      39.772  -3.313  40.034  1.00  0.00    -0.247 OA
HETATM   24  N2  UNL     1      39.575  -5.132  38.717  1.00  0.00    -0.275 N 
HETATM   25  C9  UNL     1      39.891  -6.423  38.424  1.00  0.00     0.262 A 
ATOM     26  H2  UNL     1      38.937  -4.623  38.105  1.00  0.00     0.173 HD
HETATM   27  O4  UNL     1      39.398  -6.972  37.418  1.00  0.00    -0.267 OA
BRANCH  15  28
HETATM   28  O2  UNL     1      42.277 -10.392  39.594  1.00  0.00    -0.360 OA
ATOM     29  H2  UNL     1      41.633 -11.061  39.797  1.00  0.00     0.217 HD
ENDBRANCH  15  28
ENDBRANCH   3  14
BRANCH  13  30
HETATM   30  O5  UNL     1      38.289 -11.103  35.783  1.00  0.00    -0.279 OA
ATOM     31  H5  UNL     1      37.929 -11.936  36.063  1.00  0.00     0.245 HD
ENDBRANCH  13  30
BRANCH  12  32
HETATM   32  C20 UNL     1      43.307  -9.454  32.422  1.00  0.00    -0.025 A 
HETATM   33  C21 UNL     1      43.930  -8.869  31.365  1.00  0.00     0.013 A 
HETATM   34  C22 UNL     1      43.778  -9.401  30.098  1.00  0.00     0.013 A 
HETATM   35  C23 UNL     1      42.992 -10.519  29.942  1.00  0.00    -0.026 A 
HETATM   36  C30 UNL     1      42.353 -11.125  31.003  1.00  0.00     0.013 A 
HETATM   37  C31 UNL     1      42.515 -10.588  32.240  1.00  0.00     0.013 A 
BRANCH  35  38
HETATM   38  C24 UNL     1      42.795 -11.111  28.624  1.00  0.00    -0.026 A 
HETATM   39  C25 UNL     1      43.217 -12.400  28.366  1.00  0.00     0.012 A 
HETATM   40  C26 UNL     1      42.981 -12.874  27.086  1.00  0.00     0.001 A 
HETATM   41  C27 UNL     1      42.363 -12.119  26.111  1.00  0.00     0.000 A 
HETATM   42  C28 UNL     1      41.956 -10.831  26.412  1.00  0.00     0.001 A 
HETATM   43  C29 UNL     1      42.174 -10.332  27.668  1.00  0.00     0.012 A 
ENDBRANCH  35  38
ENDBRANCH  12  32
TORSDOF 5
ENDMDL
MODEL 5
REMARK VINA RESULT: -8.763545331      1.717      2.855
REMARK  5 active torsions:
REMARK  status: ('A' for Active; 'I' for Inactive)
REMARK    1  A    between atoms: C2_3  and  C3_4 
REMARK    2  A    between atoms: C4_5  and  O2_6 
REMARK    3  A    between atoms: C19_28  and  C20_29 
REMARK    4  A    between atoms: C23_32  and  C24_33 
REMARK    5  A    between atoms: N3_41  and  O5_42 
ROOT
HETATM    1  O1  UNL     1      37.615  -9.343  38.105  1.00  0.00    -0.265 OA
HETATM    2  C1  UNL     1      38.462  -9.509  37.168  1.00  0.00     0.284 A 
HETATM    3  C2  UNL     1      39.625  -8.683  36.903  1.00  0.00     0.062 A 
HETATM    4  C11 UNL     1      40.246  -9.182  35.847  1.00  0.00     0.021 A 
HETATM    5  C12 UNL     1      39.567 -10.356  35.329  1.00  0.00     0.079 A 
HETATM    6  C13 UNL     1      40.229 -10.819  34.271  1.00  0.00     0.046 A 
HETATM    7  C14 UNL     1      41.401  -9.999  33.994  1.00  0.00    -0.012 A 
HETATM    8  C15 UNL     1      41.413  -9.000  34.953  1.00  0.00    -0.011 A 
HETATM    9  C16 UNL     1      42.420  -8.066  34.941  1.00  0.00     0.013 A 
HETATM   10  C17 UNL     1      43.409  -8.120  33.985  1.00  0.00     0.002 A 
HETATM   11  C18 UNL     1      43.403  -9.117  33.023  1.00  0.00     0.013 A 
HETATM   12  C19 UNL     1      42.399 -10.054  33.030  1.00  0.00    -0.015 A 
HETATM   13  N3  UNL     1      38.447 -10.532  36.187  1.00  0.00    -0.186 N 
ENDROOT
BRANCH   3  14
HETATM   14  C3  UNL     1      40.073  -7.469  37.584  1.00  0.00     0.032 A 
HETATM   15  C4  UNL     1      39.543  -6.234  37.158  1.00  0.00     0.078 A 
HETATM   16  C5  UNL     1      39.963  -5.092  37.794  1.00  0.00     0.040 A 
HETATM   17  C6  UNL     1      40.877  -5.121  38.823  1.00  0.00     0.033 A 
HETATM   18  C7  UNL     1      41.395  -6.330  39.237  1.00  0.00     0.053 A 
HETATM   19  N1  UNL     1      42.294  -6.339  40.235  1.00  0.00    -0.308 N 
HETATM   20  C10 UNL     1      40.975  -7.507  38.595  1.00  0.00     0.073 A 
HETATM   21  C8  UNL     1      42.817  -7.505  40.642  1.00  0.00     0.327 A 
ATOM     22  H1  UNL     1      42.577  -5.466  40.679  1.00  0.00     0.170 HD
HETATM   23  O3  UNL     1      43.665  -7.524  41.580  1.00  0.00    -0.247 OA
HETATM   24  N2  UNL     1      42.447  -8.656  40.057  1.00  0.00    -0.275 N 
HETATM   25  C9  UNL     1      41.538  -8.677  39.044  1.00  0.00     0.262 A 
ATOM     26  H2  UNL     1      42.856  -9.534  40.378  1.00  0.00     0.173 HD
HETATM   27  O4  UNL     1      41.215  -9.762  38.519  1.00  0.00    -0.267 OA
BRANCH  15  28
HETATM   28  O2  UNL     1      38.636  -6.243  36.133  1.00  0.00    -0.360 OA
ATOM     29  H2  UNL     1      38.036  -5.510  36.062  1.00  0.00     0.217 HD
ENDBRANCH  15  28
ENDBRANCH   3  14
BRANCH  13  30
HETATM   30  O5  UNL     1      37.545 -11.541  36.034  1.00  0.00    -0.279 OA
ATOM     31  H5  UNL     1      37.103 -12.043  36.708  1.00  0.00     0.245 HD
ENDBRANCH  13  30
BRANCH  12  32
HETATM   32  C20 UNL     1      42.349 -11.115  32.041  1.00  0.00    -0.025 A 
HETATM   33  C21 UNL     1      41.350 -12.036  31.987  1.00  0.00     0.013 A 
HETATM   34  C22 UNL     1      41.383 -13.027  31.023  1.00  0.00     0.013 A 
HETATM   35  C23 UNL     1      42.435 -13.051  30.137  1.00  0.00    -0.026 A 
HETATM   36  C30 UNL     1      43.455 -12.124  30.177  1.00  0.00     0.013 A 
HETATM   37  C31 UNL     1      43.405 -11.159  31.132  1.00  0.00     0.013 A 
BRANCH  35  38
HETATM   38  C24 UNL     1      42.515 -14.082  29.109  1.00  0.00    -0.026 A 
HETATM   39  C25 UNL     1      43.137 -13.820  27.904  1.00  0.00     0.012 A 
HETATM   40  C26 UNL     1      43.167 -14.864  26.994  1.00  0.00     0.001 A 
HETATM   41  C27 UNL     1      42.613 -16.101  27.256  1.00  0.00     0.000 A 
HETATM   42  C28 UNL     1      41.999 -16.320  28.476  1.00  0.00     0.001 A 
HETATM   43  C29 UNL     1      41.952 -15.309  29.398  1.00  0.00     0.012 A 
ENDBRANCH  35  38
ENDBRANCH  12  32
TORSDOF 5
ENDMDL
