MODEL 1
REMARK VINA RESULT: -8.320142804      0.000      0.000
REMARK  6 active torsions:
REMARK  status: ('A' for Active; 'I' for Inactive)
REMARK    1  A    between atoms: N1_1  and  C1_4 
REMARK    2  A    between atoms: C3_8  and  C4_9 
REMARK       I    between atoms: C4_9  and  N3_11 
REMARK    3  A    between atoms: C7_14  and  N4_15 
REMARK    4  A    between atoms: C11_19  and  C12_20 
REMARK    5  A    between atoms: C13_21  and  N5_22 
REMARK    6  A    between atoms: C16_25  and  N6_26 
ROOT
HETATM    1  N4  UNL     1     -25.539  31.742  -5.481  1.00  0.00    -0.408 N 
HETATM    2  C8  UNL     1     -26.353  32.781  -5.944  1.00  0.00     0.117 C 
HETATM    3  C9  UNL     1     -26.445  33.857  -4.858  1.00  0.00     0.020 C 
HETATM    4  C10 UNL     1     -25.193  34.650  -4.715  1.00  0.00     0.011 C 
HETATM    5  C11 UNL     1     -24.184  34.079  -3.748  1.00  0.00     0.020 C 
HETATM    6  C25 UNL     1     -24.156  32.585  -3.754  1.00  0.00     0.028 C 
HETATM    7  C26 UNL     1     -24.193  32.018  -5.163  1.00  0.00     0.118 C 
ENDROOT
BRANCH   1   8
HETATM    8  C7  UNL     1     -25.989  30.414  -5.490  1.00  0.00     0.082 C 
HETATM    9  C6  UNL     1     -24.970  29.532  -6.180  1.00  0.00     0.045 C 
HETATM   10  C5  UNL     1     -24.982  28.124  -5.677  1.00  0.00     0.128 C 
HETATM   11  N3  UNL     1     -26.361  27.731  -5.344  1.00  0.00    -0.347 N 
HETATM   12  C4  UNL     1     -26.868  26.585  -5.995  1.00  0.00     0.262 C 
HETATM   13  C28 UNL     1     -27.069  28.541  -4.405  1.00  0.00     0.128 C 
HETATM   14  O1  UNL     1     -26.188  25.932  -6.829  1.00  0.00    -0.267 OA
HETATM   15  C27 UNL     1     -26.219  29.792  -4.123  1.00  0.00     0.045 C 
BRANCH  12  16
HETATM   16  C3  UNL     1     -28.224  26.104  -5.718  1.00  0.00     0.091 A 
HETATM   17  C2  UNL     1     -28.619  25.147  -4.818  1.00  0.00     0.115 A 
HETATM   18  N2  UNL     1     -29.885  24.876  -4.724  1.00  0.00    -0.345 N 
HETATM   19  C1  UNL     1     -30.747  25.530  -5.497  1.00  0.00     0.142 A 
ATOM     20  H2  UNL     1     -30.214  24.170  -4.065  1.00  0.00     0.167 HD
HETATM   21  S2  UNL     1     -29.731  26.572  -6.394  1.00  0.00    -0.048 SA
BRANCH  19  22
HETATM   22  N1  UNL     1     -32.055  25.412  -5.562  1.00  0.00    -0.380 N 
ATOM     23  H12 UNL     1     -32.633  24.618  -5.287  1.00  0.00     0.158 HD
ATOM     24  H11 UNL     1     -32.744  26.085  -5.897  1.00  0.00     0.158 HD
ENDBRANCH  19  22
ENDBRANCH  12  16
ENDBRANCH   1   8
BRANCH   5  25
HETATM   25  C12 UNL     1     -24.379  34.554  -2.355  1.00  0.00    -0.025 C 
HETATM   26  C13 UNL     1     -23.345  35.016  -1.658  1.00  0.00     0.142 C 
HETATM   27  O2  UNL     1     -23.460  35.479  -0.345  1.00  0.00    -0.336 OA
HETATM   28  C22 UNL     1     -24.784  35.790   0.106  1.00  0.00     0.177 C 
HETATM   29  C23 UNL     1     -25.604  34.555  -0.215  1.00  0.00     0.031 C 
HETATM   30  C24 UNL     1     -25.714  34.514  -1.747  1.00  0.00     0.041 C 
BRANCH  26  31
HETATM   31  N5  UNL     1     -22.049  35.058  -2.230  1.00  0.00    -0.362 N 
HETATM   32  C14 UNL     1     -21.069  34.061  -1.859  1.00  0.00     0.127 C 
HETATM   33  C15 UNL     1     -20.567  33.370  -3.130  1.00  0.00     0.045 C 
HETATM   34  C16 UNL     1     -19.978  34.414  -4.016  1.00  0.00     0.092 C 
HETATM   35  C20 UNL     1     -21.049  35.434  -4.426  1.00  0.00     0.045 C 
HETATM   36  C21 UNL     1     -21.659  36.067  -3.190  1.00  0.00     0.127 C 
BRANCH  34  37
HETATM   37  N6  UNL     1     -19.310  33.984  -5.172  1.00  0.00    -0.359 N 
HETATM   38  C17 UNL     1     -18.366  32.968  -5.122  1.00  0.00     0.075 C 
HETATM   39  C18 UNL     1     -16.986  33.500  -5.412  1.00  0.00     0.124 C 
HETATM   40  S1  UNL     1     -17.407  34.821  -6.619  1.00  0.00    -0.119 SA
HETATM   41  C19 UNL     1     -19.214  34.836  -6.281  1.00  0.00     0.136 C 
ENDBRANCH  34  37
ENDBRANCH  26  31
ENDBRANCH   5  25
TORSDOF 6
ENDMDL
MODEL 2
REMARK VINA RESULT: -7.897836853      4.319      6.343
REMARK  6 active torsions:
REMARK  status: ('A' for Active; 'I' for Inactive)
REMARK    1  A    between atoms: N1_1  and  C1_4 
REMARK    2  A    between atoms: C3_8  and  C4_9 
REMARK       I    between atoms: C4_9  and  N3_11 
REMARK    3  A    between atoms: C7_14  and  N4_15 
REMARK    4  A    between atoms: C11_19  and  C12_20 
REMARK    5  A    between atoms: C13_21  and  N5_22 
REMARK    6  A    between atoms: C16_25  and  N6_26 
ROOT
HETATM    1  N4  UNL     1     -23.940  34.297  -4.285  1.00  0.00    -0.408 N 
HETATM    2  C8  UNL     1     -23.508  35.186  -3.296  1.00  0.00     0.117 C 
HETATM    3  C9  UNL     1     -22.030  35.507  -3.534  1.00  0.00     0.020 C 
HETATM    4  C10 UNL     1     -21.808  36.404  -4.702  1.00  0.00     0.011 C 
HETATM    5  C11 UNL     1     -21.635  35.697  -6.024  1.00  0.00     0.020 C 
HETATM    6  C25 UNL     1     -22.481  34.471  -6.141  1.00  0.00     0.028 C 
HETATM    7  C26 UNL     1     -23.896  34.701  -5.635  1.00  0.00     0.118 C 
ENDROOT
BRANCH   1   8
HETATM    8  C7  UNL     1     -24.569  33.090  -3.946  1.00  0.00     0.082 C 
HETATM    9  C6  UNL     1     -24.215  32.707  -2.526  1.00  0.00     0.045 C 
HETATM   10  C5  UNL     1     -25.280  31.900  -1.856  1.00  0.00     0.128 C 
HETATM   11  N3  UNL     1     -25.920  31.014  -2.841  1.00  0.00    -0.347 N 
HETATM   12  C4  UNL     1     -25.905  29.631  -2.552  1.00  0.00     0.262 C 
HETATM   13  C28 UNL     1     -26.489  31.619  -4.001  1.00  0.00     0.128 C 
HETATM   14  O1  UNL     1     -25.363  29.168  -1.514  1.00  0.00    -0.267 OA
HETATM   15  C27 UNL     1     -26.088  33.105  -4.006  1.00  0.00     0.045 C 
BRANCH  12  16
HETATM   16  C3  UNL     1     -26.530  28.669  -3.464  1.00  0.00     0.091 A 
HETATM   17  C2  UNL     1     -27.576  28.874  -4.328  1.00  0.00     0.115 A 
HETATM   18  N2  UNL     1     -27.973  27.878  -5.059  1.00  0.00    -0.345 N 
HETATM   19  C1  UNL     1     -27.358  26.705  -4.947  1.00  0.00     0.142 A 
ATOM     20  H2  UNL     1     -28.748  27.994  -5.712  1.00  0.00     0.167 HD
HETATM   21  S2  UNL     1     -26.168  27.017  -3.760  1.00  0.00    -0.048 SA
BRANCH  19  22
HETATM   22  N1  UNL     1     -27.596  25.580  -5.585  1.00  0.00    -0.380 N 
ATOM     23  H12 UNL     1     -27.699  24.643  -5.197  1.00  0.00     0.158 HD
ATOM     24  H11 UNL     1     -27.725  25.424  -6.585  1.00  0.00     0.158 HD
ENDBRANCH  19  22
ENDBRANCH  12  16
ENDBRANCH   1   8
BRANCH   5  25
HETATM   25  C12 UNL     1     -20.223  35.341  -6.314  1.00  0.00    -0.025 C 
HETATM   26  C13 UNL     1     -19.640  35.782  -7.425  1.00  0.00     0.142 C 
HETATM   27  O2  UNL     1     -18.316  35.486  -7.757  1.00  0.00    -0.336 OA
HETATM   28  C22 UNL     1     -17.487  35.001  -6.693  1.00  0.00     0.177 C 
HETATM   29  C23 UNL     1     -18.269  33.856  -6.081  1.00  0.00     0.031 C 
HETATM   30  C24 UNL     1     -19.471  34.501  -5.375  1.00  0.00     0.041 C 
BRANCH  26  31
HETATM   31  N5  UNL     1     -20.354  36.591  -8.344  1.00  0.00    -0.362 N 
HETATM   32  C14 UNL     1     -20.050  38.003  -8.441  1.00  0.00     0.127 C 
HETATM   33  C15 UNL     1     -19.697  38.328  -9.895  1.00  0.00     0.045 C 
HETATM   34  C16 UNL     1     -20.866  37.959 -10.744  1.00  0.00     0.092 C 
HETATM   35  C20 UNL     1     -21.138  36.451 -10.653  1.00  0.00     0.045 C 
HETATM   36  C21 UNL     1     -21.383  36.058  -9.207  1.00  0.00     0.127 C 
BRANCH  34  37
HETATM   37  N6  UNL     1     -20.825  38.320 -12.099  1.00  0.00    -0.359 N 
HETATM   38  C17 UNL     1     -20.444  39.595 -12.493  1.00  0.00     0.075 C 
HETATM   39  C18 UNL     1     -21.608  40.347 -13.086  1.00  0.00     0.124 C 
HETATM   40  S1  UNL     1     -22.503  38.954 -13.888  1.00  0.00    -0.119 SA
HETATM   41  C19 UNL     1     -21.587  37.608 -13.035  1.00  0.00     0.136 C 
ENDBRANCH  34  37
ENDBRANCH  26  31
ENDBRANCH   5  25
TORSDOF 6
ENDMDL
MODEL 3
REMARK VINA RESULT: -7.736576081      4.150      6.246
REMARK  6 active torsions:
REMARK  status: ('A' for Active; 'I' for Inactive)
REMARK    1  A    between atoms: N1_1  and  C1_4 
REMARK    2  A    between atoms: C3_8  and  C4_9 
REMARK       I    between atoms: C4_9  and  N3_11 
REMARK    3  A    between atoms: C7_14  and  N4_15 
REMARK    4  A    between atoms: C11_19  and  C12_20 
REMARK    5  A    between atoms: C13_21  and  N5_22 
REMARK    6  A    between atoms: C16_25  and  N6_26 
ROOT
HETATM    1  N4  UNL     1     -23.778  34.354  -4.354  1.00  0.00    -0.408 N 
HETATM    2  C8  UNL     1     -23.374  35.291  -3.397  1.00  0.00     0.117 C 
HETATM    3  C9  UNL     1     -21.885  35.589  -3.598  1.00  0.00     0.020 C 
HETATM    4  C10 UNL     1     -21.614  36.423  -4.802  1.00  0.00     0.011 C 
HETATM    5  C11 UNL     1     -21.401  35.647  -6.079  1.00  0.00     0.020 C 
HETATM    6  C25 UNL     1     -22.253  34.422  -6.163  1.00  0.00     0.028 C 
HETATM    7  C26 UNL     1     -23.682  34.688  -5.721  1.00  0.00     0.118 C 
ENDROOT
BRANCH   1   8
HETATM    8  C7  UNL     1     -24.429  33.170  -3.976  1.00  0.00     0.082 C 
HETATM    9  C6  UNL     1     -24.095  32.838  -2.538  1.00  0.00     0.045 C 
HETATM   10  C5  UNL     1     -25.180  32.073  -1.849  1.00  0.00     0.128 C 
HETATM   11  N3  UNL     1     -25.822  31.158  -2.807  1.00  0.00    -0.347 N 
HETATM   12  C4  UNL     1     -25.831  29.788  -2.465  1.00  0.00     0.262 C 
HETATM   13  C28 UNL     1     -26.370  31.727  -3.996  1.00  0.00     0.128 C 
HETATM   14  O1  UNL     1     -25.308  29.358  -1.404  1.00  0.00    -0.267 OA
HETATM   15  C27 UNL     1     -25.946  33.205  -4.053  1.00  0.00     0.045 C 
BRANCH  12  16
HETATM   16  C3  UNL     1     -26.461  28.801  -3.346  1.00  0.00     0.091 A 
HETATM   17  C2  UNL     1     -27.533  28.973  -4.186  1.00  0.00     0.115 A 
HETATM   18  N2  UNL     1     -27.929  27.959  -4.892  1.00  0.00    -0.345 N 
HETATM   19  C1  UNL     1     -27.289  26.799  -4.778  1.00  0.00     0.142 A 
ATOM     20  H2  UNL     1     -28.722  28.051  -5.527  1.00  0.00     0.167 HD
HETATM   21  S2  UNL     1     -26.076  27.152  -3.627  1.00  0.00    -0.048 SA
BRANCH  19  22
HETATM   22  N1  UNL     1     -27.522  25.661  -5.393  1.00  0.00    -0.380 N 
ATOM     23  H12 UNL     1     -27.875  24.789  -4.997  1.00  0.00     0.158 HD
ATOM     24  H11 UNL     1     -27.398  25.425  -6.378  1.00  0.00     0.158 HD
ENDBRANCH  19  22
ENDBRANCH  12  16
ENDBRANCH   1   8
BRANCH   5  25
HETATM   25  C12 UNL     1     -19.982  35.267  -6.300  1.00  0.00    -0.025 C 
HETATM   26  C13 UNL     1     -19.337  35.703  -7.377  1.00  0.00     0.142 C 
HETATM   27  O2  UNL     1     -18.003  35.385  -7.643  1.00  0.00    -0.336 OA
HETATM   28  C22 UNL     1     -17.237  34.880  -6.542  1.00  0.00     0.177 C 
HETATM   29  C23 UNL     1     -18.069  33.746  -5.977  1.00  0.00     0.031 C 
HETATM   30  C24 UNL     1     -19.294  34.410  -5.328  1.00  0.00     0.041 C 
BRANCH  26  31
HETATM   31  N5  UNL     1     -19.988  36.529  -8.326  1.00  0.00    -0.362 N 
HETATM   32  C14 UNL     1     -20.830  35.930  -9.339  1.00  0.00     0.127 C 
HETATM   33  C15 UNL     1     -22.222  36.560  -9.255  1.00  0.00     0.045 C 
HETATM   34  C16 UNL     1     -22.074  38.029  -9.463  1.00  0.00     0.092 C 
HETATM   35  C20 UNL     1     -21.212  38.643  -8.352  1.00  0.00     0.045 C 
HETATM   36  C21 UNL     1     -19.853  37.969  -8.322  1.00  0.00     0.127 C 
BRANCH  34  37
HETATM   37  N6  UNL     1     -23.246  38.790  -9.585  1.00  0.00    -0.359 N 
HETATM   38  C17 UNL     1     -23.721  39.186 -10.828  1.00  0.00     0.075 C 
HETATM   39  C18 UNL     1     -23.611  40.679 -10.997  1.00  0.00     0.124 C 
HETATM   40  S1  UNL     1     -23.911  41.213  -9.263  1.00  0.00    -0.119 SA
HETATM   41  C19 UNL     1     -23.700  39.554  -8.501  1.00  0.00     0.136 C 
ENDBRANCH  34  37
ENDBRANCH  26  31
ENDBRANCH   5  25
TORSDOF 6
ENDMDL
MODEL 4
REMARK VINA RESULT: -7.681896796      3.998      6.200
REMARK  6 active torsions:
REMARK  status: ('A' for Active; 'I' for Inactive)
REMARK    1  A    between atoms: N1_1  and  C1_4 
REMARK    2  A    between atoms: C3_8  and  C4_9 
REMARK       I    between atoms: C4_9  and  N3_11 
REMARK    3  A    between atoms: C7_14  and  N4_15 
REMARK    4  A    between atoms: C11_19  and  C12_20 
REMARK    5  A    between atoms: C13_21  and  N5_22 
REMARK    6  A    between atoms: C16_25  and  N6_26 
ROOT
HETATM    1  N4  UNL     1     -23.843  34.372  -4.356  1.00  0.00    -0.408 N 
HETATM    2  C8  UNL     1     -23.430  35.302  -3.395  1.00  0.00     0.117 C 
HETATM    3  C9  UNL     1     -21.947  35.613  -3.617  1.00  0.00     0.020 C 
HETATM    4  C10 UNL     1     -21.701  36.461  -4.816  1.00  0.00     0.011 C 
HETATM    5  C11 UNL     1     -21.502  35.700  -6.105  1.00  0.00     0.020 C 
HETATM    6  C25 UNL     1     -22.347  34.469  -6.188  1.00  0.00     0.028 C 
HETATM    7  C26 UNL     1     -23.771  34.721  -5.720  1.00  0.00     0.118 C 
ENDROOT
BRANCH   1   8
HETATM    8  C7  UNL     1     -24.479  33.180  -3.980  1.00  0.00     0.082 C 
HETATM    9  C6  UNL     1     -24.126  32.838  -2.548  1.00  0.00     0.045 C 
HETATM   10  C5  UNL     1     -25.195  32.059  -1.853  1.00  0.00     0.128 C 
HETATM   11  N3  UNL     1     -25.842  31.147  -2.811  1.00  0.00    -0.347 N 
HETATM   12  C4  UNL     1     -25.836  29.774  -2.480  1.00  0.00     0.262 C 
HETATM   13  C28 UNL     1     -26.409  31.721  -3.989  1.00  0.00     0.128 C 
HETATM   14  O1  UNL     1     -25.296  29.340  -1.429  1.00  0.00    -0.267 OA
HETATM   15  C27 UNL     1     -25.998  33.203  -4.038  1.00  0.00     0.045 C 
BRANCH  12  16
HETATM   16  C3  UNL     1     -26.468  28.789  -3.362  1.00  0.00     0.091 A 
HETATM   17  C2  UNL     1     -27.547  28.962  -4.193  1.00  0.00     0.115 A 
HETATM   18  N2  UNL     1     -27.944  27.949  -4.902  1.00  0.00    -0.345 N 
HETATM   19  C1  UNL     1     -27.298  26.791  -4.799  1.00  0.00     0.142 A 
ATOM     20  H2  UNL     1     -28.742  28.041  -5.530  1.00  0.00     0.167 HD
HETATM   21  S2  UNL     1     -26.078  27.143  -3.654  1.00  0.00    -0.048 SA
BRANCH  19  22
HETATM   22  N1  UNL     1     -27.532  25.655  -5.417  1.00  0.00    -0.380 N 
ATOM     23  H12 UNL     1     -27.527  25.468  -6.420  1.00  0.00     0.158 HD
ATOM     24  H11 UNL     1     -27.763  24.744  -5.021  1.00  0.00     0.158 HD
ENDBRANCH  19  22
ENDBRANCH  12  16
ENDBRANCH   1   8
BRANCH   5  25
HETATM   25  C12 UNL     1     -20.085  35.332  -6.352  1.00  0.00    -0.025 C 
HETATM   26  C13 UNL     1     -19.457  35.792  -7.429  1.00  0.00     0.142 C 
HETATM   27  O2  UNL     1     -18.124  35.486  -7.719  1.00  0.00    -0.336 OA
HETATM   28  C22 UNL     1     -17.341  34.966  -6.638  1.00  0.00     0.177 C 
HETATM   29  C23 UNL     1     -18.159  33.816  -6.083  1.00  0.00     0.031 C 
HETATM   30  C24 UNL     1     -19.379  34.461  -5.406  1.00  0.00     0.041 C 
BRANCH  26  31
HETATM   31  N5  UNL     1     -20.125  36.632  -8.353  1.00  0.00    -0.362 N 
HETATM   32  C14 UNL     1     -20.875  36.045  -9.443  1.00  0.00     0.127 C 
HETATM   33  C15 UNL     1     -22.313  36.567  -9.386  1.00  0.00     0.045 C 
HETATM   34  C16 UNL     1     -22.266  38.053  -9.491  1.00  0.00     0.092 C 
HETATM   35  C20 UNL     1     -21.501  38.650  -8.302  1.00  0.00     0.045 C 
HETATM   36  C21 UNL     1     -20.098  38.074  -8.249  1.00  0.00     0.127 C 
BRANCH  34  37
HETATM   37  N6  UNL     1     -23.484  38.735  -9.621  1.00  0.00    -0.359 N 
HETATM   38  C17 UNL     1     -24.107  39.312  -8.522  1.00  0.00     0.075 C 
HETATM   39  C18 UNL     1     -25.388  38.593  -8.188  1.00  0.00     0.124 C 
HETATM   40  S1  UNL     1     -25.926  38.112  -9.880  1.00  0.00    -0.119 SA
HETATM   41  C19 UNL     1     -24.325  38.466 -10.710  1.00  0.00     0.136 C 
ENDBRANCH  34  37
ENDBRANCH  26  31
ENDBRANCH   5  25
TORSDOF 6
ENDMDL
MODEL 5
REMARK VINA RESULT: -7.608355088      4.146      6.223
REMARK  6 active torsions:
REMARK  status: ('A' for Active; 'I' for Inactive)
REMARK    1  A    between atoms: N1_1  and  C1_4 
REMARK    2  A    between atoms: C3_8  and  C4_9 
REMARK       I    between atoms: C4_9  and  N3_11 
REMARK    3  A    between atoms: C7_14  and  N4_15 
REMARK    4  A    between atoms: C11_19  and  C12_20 
REMARK    5  A    between atoms: C13_21  and  N5_22 
REMARK    6  A    between atoms: C16_25  and  N6_26 
ROOT
HETATM    1  N4  UNL     1     -24.060  34.204  -4.018  1.00  0.00    -0.408 N 
HETATM    2  C8  UNL     1     -23.510  34.958  -2.976  1.00  0.00     0.117 C 
HETATM    3  C9  UNL     1     -22.070  35.329  -3.344  1.00  0.00     0.020 C 
HETATM    4  C10 UNL     1     -21.989  36.379  -4.398  1.00  0.00     0.011 C 
HETATM    5  C11 UNL     1     -21.979  35.859  -5.815  1.00  0.00     0.020 C 
HETATM    6  C25 UNL     1     -22.836  34.647  -5.995  1.00  0.00     0.028 C 
HETATM    7  C26 UNL     1     -24.178  34.787  -5.297  1.00  0.00     0.118 C 
ENDROOT
BRANCH   1   8
HETATM    8  C7  UNL     1     -24.646  32.953  -3.773  1.00  0.00     0.082 C 
HETATM    9  C6  UNL     1     -24.378  32.532  -2.344  1.00  0.00     0.045 C 
HETATM   10  C5  UNL     1     -25.444  31.645  -1.788  1.00  0.00     0.128 C 
HETATM   11  N3  UNL     1     -25.960  30.767  -2.851  1.00  0.00    -0.347 N 
HETATM   12  C4  UNL     1     -25.891  29.376  -2.613  1.00  0.00     0.262 C 
HETATM   13  C28 UNL     1     -26.473  31.389  -4.029  1.00  0.00     0.128 C 
HETATM   14  O1  UNL     1     -25.404  28.900  -1.554  1.00  0.00    -0.267 OA
HETATM   15  C27 UNL     1     -26.154  32.892  -3.948  1.00  0.00     0.045 C 
BRANCH  12  16
HETATM   16  C3  UNL     1     -26.393  28.421  -3.604  1.00  0.00     0.091 A 
HETATM   17  C2  UNL     1     -26.113  27.082  -3.711  1.00  0.00     0.115 A 
HETATM   18  N2  UNL     1     -26.677  26.410  -4.668  1.00  0.00    -0.345 N 
HETATM   19  C1  UNL     1     -27.500  27.038  -5.503  1.00  0.00     0.142 A 
ATOM     20  H2  UNL     1     -26.492  25.414  -4.777  1.00  0.00     0.167 HD
HETATM   21  S2  UNL     1     -27.478  28.644  -4.915  1.00  0.00    -0.048 SA
BRANCH  19  22
HETATM   22  N1  UNL     1     -28.168  26.554  -6.526  1.00  0.00    -0.380 N 
ATOM     23  H12 UNL     1     -27.958  25.728  -7.085  1.00  0.00     0.158 HD
ATOM     24  H11 UNL     1     -29.022  26.906  -6.961  1.00  0.00     0.158 HD
ENDBRANCH  19  22
ENDBRANCH  12  16
ENDBRANCH   1   8
BRANCH   5  25
HETATM   25  C12 UNL     1     -20.613  35.565  -6.318  1.00  0.00    -0.025 C 
HETATM   26  C13 UNL     1     -20.159  36.180  -7.406  1.00  0.00     0.142 C 
HETATM   27  O2  UNL     1     -18.884  35.951  -7.931  1.00  0.00    -0.336 OA
HETATM   28  C22 UNL     1     -17.942  35.314  -7.058  1.00  0.00     0.177 C 
HETATM   29  C23 UNL     1     -18.659  34.080  -6.547  1.00  0.00     0.031 C 
HETATM   30  C24 UNL     1     -19.766  34.596  -5.615  1.00  0.00     0.041 C 
BRANCH  26  31
HETATM   31  N5  UNL     1     -20.966  37.116  -8.098  1.00  0.00    -0.362 N 
HETATM   32  C14 UNL     1     -21.875  36.657  -9.126  1.00  0.00     0.127 C 
HETATM   33  C15 UNL     1     -23.287  37.134  -8.780  1.00  0.00     0.045 C 
HETATM   34  C16 UNL     1     -23.261  38.622  -8.697  1.00  0.00     0.092 C 
HETATM   35  C20 UNL     1     -22.321  39.079  -7.573  1.00  0.00     0.045 C 
HETATM   36  C21 UNL     1     -20.926  38.533  -7.813  1.00  0.00     0.127 C 
BRANCH  34  37
HETATM   37  N6  UNL     1     -24.486  39.288  -8.547  1.00  0.00    -0.359 N 
HETATM   38  C17 UNL     1     -25.683  38.587  -8.487  1.00  0.00     0.075 C 
HETATM   39  C18 UNL     1     -26.527  38.854  -9.707  1.00  0.00     0.124 C 
HETATM   40  S1  UNL     1     -26.063  40.604 -10.030  1.00  0.00    -0.119 SA
HETATM   41  C19 UNL     1     -24.601  40.635  -8.916  1.00  0.00     0.136 C 
ENDBRANCH  34  37
ENDBRANCH  26  31
ENDBRANCH   5  25
TORSDOF 6
ENDMDL
