MODEL 1
REMARK VINA RESULT: -8.162211974      0.000      0.000
REMARK  10 active torsions:
REMARK  status: ('A' for Active; 'I' for Inactive)
REMARK    1  A    between atoms: C2_2  and  C3_3 
REMARK    2  A    between atoms: C4_4  and  C5_5 
REMARK    3  A    between atoms: C5_5  and  C6_6 
REMARK    4  A    between atoms: C6_6  and  C7_7 
REMARK    5  A    between atoms: C8_8  and  C9_9 
REMARK    6  A    between atoms: C9_9  and  C10_10 
REMARK    7  A    between atoms: C10_10  and  O1_11 
REMARK    8  A    between atoms: C19_24  and  O3_25 
REMARK    9  A    between atoms: C20_27  and  O4_28 
REMARK   10  A    between atoms: O4_28  and  C21_29 
ROOT
HETATM    1  C10 UNL     1     -23.658  35.737  -2.584  1.00  0.00     0.075 C 
HETATM    2  C11 UNL     1     -23.477  34.783  -1.420  1.00  0.00     0.040 C 
HETATM    3  C12 UNL     1     -24.863  34.150  -1.355  1.00  0.00     0.010 C 
HETATM    4  C13 UNL     1     -25.181  33.951  -2.801  1.00  0.00     0.020 C 
HETATM    5  C14 UNL     1     -24.875  32.518  -3.156  1.00  0.00     0.096 C 
HETATM    6  N1  UNL     1     -25.733  31.677  -2.348  1.00  0.00    -0.369 N 
ATOM      7  H1  UNL     1     -26.192  32.037  -1.511  1.00  0.00     0.161 HD
HETATM    8  C15 UNL     1     -25.897  30.454  -2.729  1.00  0.00     0.112 C 
HETATM    9  C16 UNL     1     -26.778  29.575  -1.909  1.00  0.00     0.097 C 
HETATM   10  O2  UNL     1     -25.240  30.053  -3.875  1.00  0.00    -0.312 OA
HETATM   11  C17 UNL     1     -25.202  30.936  -4.980  1.00  0.00     0.181 C 
HETATM   12  C18 UNL     1     -24.197  30.483  -6.016  1.00  0.00     0.091 C 
HETATM   13  C19 UNL     1     -24.620  29.166  -6.538  1.00  0.00     0.166 C 
HETATM   14  C20 UNL     1     -26.097  29.163  -6.784  1.00  0.00     0.278 C 
HETATM   15  S1  UNL     1     -26.714  30.609  -5.908  1.00  0.00     0.207 S 
HETATM   16  O6  UNL     1     -27.014  31.703  -6.859  1.00  0.00    -0.222 OA
HETATM   17  O7  UNL     1     -27.828  30.269  -4.997  1.00  0.00    -0.222 OA
HETATM   18  C26 UNL     1     -25.082  32.369  -4.629  1.00  0.00     0.059 C 
HETATM   19  C27 UNL     1     -24.005  33.127  -5.346  1.00  0.00     0.011 C 
HETATM   20  C28 UNL     1     -23.437  34.271  -4.578  1.00  0.00     0.013 C 
HETATM   21  C29 UNL     1     -24.361  34.927  -3.605  1.00  0.00    -0.006 C 
HETATM   22  C30 UNL     1     -25.330  35.804  -4.365  1.00  0.00     0.019 C 
ENDROOT
BRANCH  13  23
HETATM   23  O3  UNL     1     -24.185  28.091  -5.772  1.00  0.00    -0.392 OA
ATOM     24  H3  UNL     1     -24.890  27.575  -5.398  1.00  0.00     0.210 HD
ENDBRANCH  13  23
BRANCH  14  25
HETATM   25  O4  UNL     1     -26.620  28.056  -6.075  1.00  0.00    -0.338 OA
BRANCH  25  26
HETATM   26  C21 UNL     1     -26.926  27.004  -6.932  1.00  0.00     0.261 C 
HETATM   27  C22 UNL     1     -28.411  26.791  -7.031  1.00  0.00     0.061 C 
HETATM   28  C23 UNL     1     -29.016  26.388  -5.703  1.00  0.00     0.007 C 
HETATM   29  C24 UNL     1     -28.209  25.230  -5.156  1.00  0.00     0.026 C 
HETATM   30  C25 UNL     1     -27.125  24.850  -6.117  1.00  0.00     0.171 C 
HETATM   31  O5  UNL     1     -26.277  25.879  -6.452  1.00  0.00    -0.361 OA
ENDBRANCH  25  26
ENDBRANCH  14  25
BRANCH   1  32
HETATM   32  C9  UNL     1     -22.355  36.346  -3.013  1.00  0.00     0.132 C 
BRANCH  32  33
HETATM   33  C8  UNL     1     -21.206  35.587  -2.539  1.00  0.00    -0.104 C 
HETATM   34  C7  UNL     1     -20.230  34.962  -2.156  1.00  0.00    -0.106 C 
BRANCH  34  35
HETATM   35  C6  UNL     1     -19.045  34.212  -1.718  1.00  0.00     0.106 C 
BRANCH  35  36
HETATM   36  C5  UNL     1     -19.036  32.826  -2.343  1.00  0.00     0.106 C 
BRANCH  36  37
HETATM   37  C4  UNL     1     -19.421  32.892  -3.762  1.00  0.00    -0.106 C 
HETATM   38  C3  UNL     1     -19.757  32.960  -4.929  1.00  0.00    -0.107 C 
BRANCH  38  39
HETATM   39  C2  UNL     1     -20.181  33.053  -6.322  1.00  0.00     0.089 C 
HETATM   40  C1  UNL     1     -20.379  34.524  -6.636  1.00  0.00     0.018 C 
ENDBRANCH  38  39
ENDBRANCH  36  37
ENDBRANCH  35  36
ENDBRANCH  34  35
ENDBRANCH  32  33
ENDBRANCH   1  32
BRANCH   1  41
HETATM   41  O1  UNL     1     -24.493  36.753  -2.123  1.00  0.00    -0.388 OA
ATOM     42  H1  UNL     1     -25.395  36.498  -2.280  1.00  0.00     0.210 HD
ENDBRANCH   1  41
TORSDOF 10
ENDMDL
MODEL 2
REMARK VINA RESULT: -7.905225867      1.086      1.805
REMARK  10 active torsions:
REMARK  status: ('A' for Active; 'I' for Inactive)
REMARK    1  A    between atoms: C2_2  and  C3_3 
REMARK    2  A    between atoms: C4_4  and  C5_5 
REMARK    3  A    between atoms: C5_5  and  C6_6 
REMARK    4  A    between atoms: C6_6  and  C7_7 
REMARK    5  A    between atoms: C8_8  and  C9_9 
REMARK    6  A    between atoms: C9_9  and  C10_10 
REMARK    7  A    between atoms: C10_10  and  O1_11 
REMARK    8  A    between atoms: C19_24  and  O3_25 
REMARK    9  A    between atoms: C20_27  and  O4_28 
REMARK   10  A    between atoms: O4_28  and  C21_29 
ROOT
HETATM    1  C10 UNL     1     -23.610  35.712  -2.602  1.00  0.00     0.075 C 
HETATM    2  C11 UNL     1     -23.408  34.753  -1.446  1.00  0.00     0.040 C 
HETATM    3  C12 UNL     1     -24.796  34.129  -1.350  1.00  0.00     0.010 C 
HETATM    4  C13 UNL     1     -25.149  33.937  -2.789  1.00  0.00     0.020 C 
HETATM    5  C14 UNL     1     -24.861  32.503  -3.156  1.00  0.00     0.096 C 
HETATM    6  N1  UNL     1     -25.705  31.664  -2.331  1.00  0.00    -0.369 N 
ATOM      7  H1  UNL     1     -26.141  32.024  -1.482  1.00  0.00     0.161 HD
HETATM    8  C15 UNL     1     -25.885  30.444  -2.712  1.00  0.00     0.112 C 
HETATM    9  C16 UNL     1     -26.753  29.568  -1.874  1.00  0.00     0.097 C 
HETATM   10  O2  UNL     1     -25.258  30.043  -3.875  1.00  0.00    -0.312 OA
HETATM   11  C17 UNL     1     -25.241  30.929  -4.977  1.00  0.00     0.181 C 
HETATM   12  C18 UNL     1     -24.264  30.474  -6.038  1.00  0.00     0.091 C 
HETATM   13  C19 UNL     1     -24.707  29.161  -6.554  1.00  0.00     0.166 C 
HETATM   14  C20 UNL     1     -26.190  29.169  -6.766  1.00  0.00     0.278 C 
HETATM   15  S1  UNL     1     -26.776  30.615  -5.870  1.00  0.00     0.207 S 
HETATM   16  O6  UNL     1     -27.092  31.715  -6.810  1.00  0.00    -0.222 OA
HETATM   17  O7  UNL     1     -27.871  30.280  -4.934  1.00  0.00    -0.222 OA
HETATM   18  C26 UNL     1     -25.103  32.361  -4.624  1.00  0.00     0.059 C 
HETATM   19  C27 UNL     1     -24.039  33.114  -5.364  1.00  0.00     0.011 C 
HETATM   20  C28 UNL     1     -23.445  34.252  -4.605  1.00  0.00     0.013 C 
HETATM   21  C29 UNL     1     -24.342  34.910  -3.608  1.00  0.00    -0.006 C 
HETATM   22  C30 UNL     1     -25.323  35.796  -4.342  1.00  0.00     0.019 C 
ENDROOT
BRANCH  13  23
HETATM   23  O3  UNL     1     -24.261  28.081  -5.803  1.00  0.00    -0.392 OA
ATOM     24  H3  UNL     1     -24.038  27.317  -6.322  1.00  0.00     0.210 HD
ENDBRANCH  13  23
BRANCH  14  25
HETATM   25  O4  UNL     1     -26.703  28.062  -6.048  1.00  0.00    -0.338 OA
BRANCH  25  26
HETATM   26  C21 UNL     1     -26.918  26.972  -6.884  1.00  0.00     0.261 C 
HETATM   27  C22 UNL     1     -28.378  26.802  -7.199  1.00  0.00     0.061 C 
HETATM   28  C23 UNL     1     -29.194  26.498  -5.960  1.00  0.00     0.007 C 
HETATM   29  C24 UNL     1     -28.527  25.349  -5.235  1.00  0.00     0.026 C 
HETATM   30  C25 UNL     1     -27.327  24.878  -5.995  1.00  0.00     0.171 C 
HETATM   31  O5  UNL     1     -26.397  25.857  -6.251  1.00  0.00    -0.361 OA
ENDBRANCH  25  26
ENDBRANCH  14  25
BRANCH   1  32
HETATM   32  C9  UNL     1     -22.313  36.314  -3.060  1.00  0.00     0.132 C 
BRANCH  32  33
HETATM   33  C8  UNL     1     -21.159  35.544  -2.619  1.00  0.00    -0.104 C 
HETATM   34  C7  UNL     1     -20.183  34.900  -2.270  1.00  0.00    -0.106 C 
BRANCH  34  35
HETATM   35  C6  UNL     1     -19.005  34.116  -1.875  1.00  0.00     0.106 C 
BRANCH  35  36
HETATM   36  C5  UNL     1     -19.382  32.655  -1.686  1.00  0.00     0.106 C 
BRANCH  36  37
HETATM   37  C4  UNL     1     -18.298  31.773  -2.150  1.00  0.00    -0.106 C 
HETATM   38  C3  UNL     1     -17.406  31.033  -2.515  1.00  0.00    -0.107 C 
BRANCH  38  39
HETATM   39  C2  UNL     1     -16.337  30.130  -2.932  1.00  0.00     0.089 C 
HETATM   40  C1  UNL     1     -15.976  29.274  -1.732  1.00  0.00     0.018 C 
ENDBRANCH  38  39
ENDBRANCH  36  37
ENDBRANCH  35  36
ENDBRANCH  34  35
ENDBRANCH  32  33
ENDBRANCH   1  32
BRANCH   1  41
HETATM   41  O1  UNL     1     -24.428  36.731  -2.118  1.00  0.00    -0.388 OA
ATOM     42  H1  UNL     1     -24.075  37.565  -2.406  1.00  0.00     0.210 HD
ENDBRANCH   1  41
TORSDOF 10
ENDMDL
MODEL 3
REMARK VINA RESULT: -7.330531935      4.947      8.391
REMARK  10 active torsions:
REMARK  status: ('A' for Active; 'I' for Inactive)
REMARK    1  A    between atoms: C2_2  and  C3_3 
REMARK    2  A    between atoms: C4_4  and  C5_5 
REMARK    3  A    between atoms: C5_5  and  C6_6 
REMARK    4  A    between atoms: C6_6  and  C7_7 
REMARK    5  A    between atoms: C8_8  and  C9_9 
REMARK    6  A    between atoms: C9_9  and  C10_10 
REMARK    7  A    between atoms: C10_10  and  O1_11 
REMARK    8  A    between atoms: C19_24  and  O3_25 
REMARK    9  A    between atoms: C20_27  and  O4_28 
REMARK   10  A    between atoms: O4_28  and  C21_29 
ROOT
HETATM    1  C10 UNL     1     -22.658  33.369  -3.127  1.00  0.00     0.075 C 
HETATM    2  C11 UNL     1     -21.364  32.841  -3.712  1.00  0.00     0.040 C 
HETATM    3  C12 UNL     1     -21.790  32.577  -5.152  1.00  0.00     0.010 C 
HETATM    4  C13 UNL     1     -22.634  33.773  -5.450  1.00  0.00     0.020 C 
HETATM    5  C14 UNL     1     -21.788  34.770  -6.202  1.00  0.00     0.096 C 
HETATM    6  N1  UNL     1     -21.377  34.143  -7.441  1.00  0.00    -0.369 N 
ATOM      7  H1  UNL     1     -21.421  33.131  -7.563  1.00  0.00     0.161 HD
HETATM    8  C15 UNL     1     -20.953  34.915  -8.385  1.00  0.00     0.112 C 
HETATM    9  C16 UNL     1     -20.527  34.286  -9.667  1.00  0.00     0.097 C 
HETATM   10  O2  UNL     1     -20.929  36.272  -8.133  1.00  0.00    -0.312 OA
HETATM   11  C17 UNL     1     -22.018  36.853  -7.443  1.00  0.00     0.181 C 
HETATM   12  C18 UNL     1     -21.694  38.258  -6.980  1.00  0.00     0.091 C 
HETATM   13  C19 UNL     1     -21.446  39.099  -8.170  1.00  0.00     0.166 C 
HETATM   14  C20 UNL     1     -22.467  38.808  -9.226  1.00  0.00     0.278 C 
HETATM   15  S1  UNL     1     -23.231  37.260  -8.714  1.00  0.00     0.207 S 
HETATM   16  O6  UNL     1     -24.567  37.510  -8.129  1.00  0.00    -0.222 OA
HETATM   17  O7  UNL     1     -23.217  36.253  -9.797  1.00  0.00    -0.222 OA
HETATM   18  C26 UNL     1     -22.609  36.005  -6.383  1.00  0.00     0.059 C 
HETATM   19  C27 UNL     1     -22.790  36.664  -5.048  1.00  0.00     0.011 C 
HETATM   20  C28 UNL     1     -22.716  35.735  -3.885  1.00  0.00     0.013 C 
HETATM   21  C29 UNL     1     -23.146  34.327  -4.145  1.00  0.00    -0.006 C 
HETATM   22  C30 UNL     1     -24.656  34.278  -4.201  1.00  0.00     0.019 C 
ENDROOT
BRANCH  13  23
HETATM   23  O3  UNL     1     -20.138  39.044  -8.636  1.00  0.00    -0.392 OA
ATOM     24  H3  UNL     1     -19.917  39.737  -9.247  1.00  0.00     0.210 HD
ENDBRANCH  13  23
BRANCH  14  25
HETATM   25  O4  UNL     1     -21.748  38.489 -10.402  1.00  0.00    -0.338 OA
BRANCH  25  26
HETATM   26  C21 UNL     1     -22.110  39.318 -11.458  1.00  0.00     0.261 C 
HETATM   27  C22 UNL     1     -23.271  38.752 -12.227  1.00  0.00     0.061 C 
HETATM   28  C23 UNL     1     -22.928  37.431 -12.883  1.00  0.00     0.007 C 
HETATM   29  C24 UNL     1     -21.640  37.616 -13.655  1.00  0.00     0.026 C 
HETATM   30  C25 UNL     1     -21.166  39.032 -13.548  1.00  0.00     0.171 C 
HETATM   31  O5  UNL     1     -20.993  39.477 -12.260  1.00  0.00    -0.361 OA
ENDBRANCH  25  26
ENDBRANCH  14  25
BRANCH   1  32
HETATM   32  C9  UNL     1     -22.462  33.922  -1.746  1.00  0.00     0.132 C 
BRANCH  32  33
HETATM   33  C8  UNL     1     -21.104  34.400  -1.530  1.00  0.00    -0.104 C 
HETATM   34  C7  UNL     1     -19.959  34.780  -1.346  1.00  0.00    -0.106 C 
BRANCH  34  35
HETATM   35  C6  UNL     1     -18.576  35.217  -1.110  1.00  0.00     0.106 C 
BRANCH  35  36
HETATM   36  C5  UNL     1     -17.602  34.101  -1.454  1.00  0.00     0.106 C 
BRANCH  36  37
HETATM   37  C4  UNL     1     -17.711  33.735  -2.875  1.00  0.00    -0.106 C 
HETATM   38  C3  UNL     1     -17.817  33.449  -4.052  1.00  0.00    -0.107 C 
BRANCH  38  39
HETATM   39  C2  UNL     1     -17.962  33.122  -5.468  1.00  0.00     0.089 C 
HETATM   40  C1  UNL     1     -18.018  34.433  -6.230  1.00  0.00     0.018 C 
ENDBRANCH  38  39
ENDBRANCH  36  37
ENDBRANCH  35  36
ENDBRANCH  34  35
ENDBRANCH  32  33
ENDBRANCH   1  32
BRANCH   1  41
HETATM   41  O1  UNL     1     -23.520  32.276  -3.051  1.00  0.00    -0.388 OA
ATOM     42  H1  UNL     1     -23.303  31.773  -2.275  1.00  0.00     0.210 HD
ENDBRANCH   1  41
TORSDOF 10
ENDMDL
MODEL 4
REMARK VINA RESULT: -7.302185715      1.969      3.208
REMARK  10 active torsions:
REMARK  status: ('A' for Active; 'I' for Inactive)
REMARK    1  A    between atoms: C2_2  and  C3_3 
REMARK    2  A    between atoms: C4_4  and  C5_5 
REMARK    3  A    between atoms: C5_5  and  C6_6 
REMARK    4  A    between atoms: C6_6  and  C7_7 
REMARK    5  A    between atoms: C8_8  and  C9_9 
REMARK    6  A    between atoms: C9_9  and  C10_10 
REMARK    7  A    between atoms: C10_10  and  O1_11 
REMARK    8  A    between atoms: C19_24  and  O3_25 
REMARK    9  A    between atoms: C20_27  and  O4_28 
REMARK   10  A    between atoms: O4_28  and  C21_29 
ROOT
HETATM    1  C10 UNL     1     -22.627  34.879  -4.746  1.00  0.00     0.075 C 
HETATM    2  C11 UNL     1     -23.712  35.493  -5.607  1.00  0.00     0.040 C 
HETATM    3  C12 UNL     1     -23.687  34.553  -6.808  1.00  0.00     0.010 C 
HETATM    4  C13 UNL     1     -23.533  33.219  -6.154  1.00  0.00     0.020 C 
HETATM    5  C14 UNL     1     -24.896  32.579  -6.064  1.00  0.00     0.096 C 
HETATM    6  N1  UNL     1     -25.384  32.405  -7.417  1.00  0.00    -0.369 N 
ATOM      7  H1  UNL     1     -24.978  32.922  -8.197  1.00  0.00     0.161 HD
HETATM    8  C15 UNL     1     -26.353  31.571  -7.596  1.00  0.00     0.112 C 
HETATM    9  C16 UNL     1     -26.867  31.380  -8.982  1.00  0.00     0.097 C 
HETATM   10  O2  UNL     1     -26.840  30.915  -6.483  1.00  0.00    -0.312 OA
HETATM   11  C17 UNL     1     -25.921  30.437  -5.521  1.00  0.00     0.181 C 
HETATM   12  C18 UNL     1     -26.619  30.032  -4.241  1.00  0.00     0.091 C 
HETATM   13  C19 UNL     1     -27.541  28.916  -4.540  1.00  0.00     0.166 C 
HETATM   14  C20 UNL     1     -26.873  27.929  -5.447  1.00  0.00     0.278 C 
HETATM   15  S1  UNL     1     -25.435  28.797  -6.094  1.00  0.00     0.207 S 
HETATM   16  O6  UNL     1     -24.201  28.330  -5.420  1.00  0.00    -0.222 OA
HETATM   17  O7  UNL     1     -25.379  28.750  -7.571  1.00  0.00    -0.222 OA
HETATM   18  C26 UNL     1     -24.741  31.304  -5.300  1.00  0.00     0.059 C 
HETATM   19  C27 UNL     1     -24.434  31.634  -3.869  1.00  0.00     0.011 C 
HETATM   20  C28 UNL     1     -23.762  32.949  -3.668  1.00  0.00     0.013 C 
HETATM   21  C29 UNL     1     -22.909  33.426  -4.798  1.00  0.00    -0.006 C 
HETATM   22  C30 UNL     1     -21.606  32.659  -4.785  1.00  0.00     0.019 C 
ENDROOT
BRANCH  13  23
HETATM   23  O3  UNL     1     -28.791  29.323  -4.991  1.00  0.00    -0.392 OA
ATOM     24  H3  UNL     1     -29.389  29.570  -4.296  1.00  0.00     0.210 HD
ENDBRANCH  13  23
BRANCH  14  25
HETATM   25  O4  UNL     1     -27.730  27.763  -6.560  1.00  0.00    -0.338 OA
BRANCH  25  26
HETATM   26  C21 UNL     1     -27.970  26.417  -6.818  1.00  0.00     0.261 C 
HETATM   27  C22 UNL     1     -29.185  26.234  -7.684  1.00  0.00     0.061 C 
HETATM   28  C23 UNL     1     -30.447  26.722  -7.004  1.00  0.00     0.007 C 
HETATM   29  C24 UNL     1     -30.506  26.095  -5.628  1.00  0.00     0.026 C 
HETATM   30  C25 UNL     1     -29.336  25.184  -5.420  1.00  0.00     0.171 C 
HETATM   31  O5  UNL     1     -28.112  25.782  -5.596  1.00  0.00    -0.361 OA
ENDBRANCH  25  26
ENDBRANCH  14  25
BRANCH   1  32
HETATM   32  C9  UNL     1     -22.589  35.491  -3.377  1.00  0.00     0.132 C 
BRANCH  32  33
HETATM   33  C8  UNL     1     -21.312  35.279  -2.711  1.00  0.00    -0.104 C 
HETATM   34  C7  UNL     1     -20.251  35.100  -2.133  1.00  0.00    -0.106 C 
BRANCH  34  35
HETATM   35  C6  UNL     1     -18.985  34.898  -1.417  1.00  0.00     0.106 C 
BRANCH  35  36
HETATM   36  C5  UNL     1     -18.423  33.516  -1.715  1.00  0.00     0.106 C 
BRANCH  36  37
HETATM   37  C4  UNL     1     -17.915  33.448  -3.095  1.00  0.00    -0.106 C 
HETATM   38  C3  UNL     1     -17.500  33.413  -4.237  1.00  0.00    -0.107 C 
BRANCH  38  39
HETATM   39  C2  UNL     1     -17.008  33.396  -5.612  1.00  0.00     0.089 C 
HETATM   40  C1  UNL     1     -17.495  34.667  -6.281  1.00  0.00     0.018 C 
ENDBRANCH  38  39
ENDBRANCH  36  37
ENDBRANCH  35  36
ENDBRANCH  34  35
ENDBRANCH  32  33
ENDBRANCH   1  32
BRANCH   1  41
HETATM   41  O1  UNL     1     -21.423  35.154  -5.391  1.00  0.00    -0.388 OA
ATOM     42  H1  UNL     1     -21.604  35.685  -6.157  1.00  0.00     0.210 HD
ENDBRANCH   1  41
TORSDOF 10
ENDMDL
MODEL 5
REMARK VINA RESULT: -7.048157656      1.284      2.251
REMARK  10 active torsions:
REMARK  status: ('A' for Active; 'I' for Inactive)
REMARK    1  A    between atoms: C2_2  and  C3_3 
REMARK    2  A    between atoms: C4_4  and  C5_5 
REMARK    3  A    between atoms: C5_5  and  C6_6 
REMARK    4  A    between atoms: C6_6  and  C7_7 
REMARK    5  A    between atoms: C8_8  and  C9_9 
REMARK    6  A    between atoms: C9_9  and  C10_10 
REMARK    7  A    between atoms: C10_10  and  O1_11 
REMARK    8  A    between atoms: C19_24  and  O3_25 
REMARK    9  A    between atoms: C20_27  and  O4_28 
REMARK   10  A    between atoms: O4_28  and  C21_29 
ROOT
HETATM    1  C10 UNL     1     -23.638  35.638  -2.602  1.00  0.00     0.075 C 
HETATM    2  C11 UNL     1     -23.527  34.691  -1.424  1.00  0.00     0.040 C 
HETATM    3  C12 UNL     1     -24.929  34.090  -1.412  1.00  0.00     0.010 C 
HETATM    4  C13 UNL     1     -25.191  33.885  -2.868  1.00  0.00     0.020 C 
HETATM    5  C14 UNL     1     -24.903  32.442  -3.199  1.00  0.00     0.096 C 
HETATM    6  N1  UNL     1     -25.813  31.628  -2.421  1.00  0.00    -0.369 N 
ATOM      7  H1  UNL     1     -26.298  32.005  -1.607  1.00  0.00     0.161 HD
HETATM    8  C15 UNL     1     -25.988  30.406  -2.800  1.00  0.00     0.112 C 
HETATM    9  C16 UNL     1     -26.923  29.554  -2.010  1.00  0.00     0.097 C 
HETATM   10  O2  UNL     1     -25.293  29.980  -3.914  1.00  0.00    -0.312 OA
HETATM   11  C17 UNL     1     -25.190  30.852  -5.023  1.00  0.00     0.181 C 
HETATM   12  C18 UNL     1     -24.153  30.368  -6.013  1.00  0.00     0.091 C 
HETATM   13  C19 UNL     1     -24.584  29.056  -6.542  1.00  0.00     0.166 C 
HETATM   14  C20 UNL     1     -26.049  29.084  -6.850  1.00  0.00     0.278 C 
HETATM   15  S1  UNL     1     -26.669  30.551  -6.010  1.00  0.00     0.207 S 
HETATM   16  O6  UNL     1     -26.904  31.643  -6.982  1.00  0.00    -0.222 OA
HETATM   17  O7  UNL     1     -27.827  30.245  -5.145  1.00  0.00    -0.222 OA
HETATM   18  C26 UNL     1     -25.052  32.286  -4.678  1.00  0.00     0.059 C 
HETATM   19  C27 UNL     1     -23.929  33.013  -5.356  1.00  0.00     0.011 C 
HETATM   20  C28 UNL     1     -23.367  34.150  -4.573  1.00  0.00     0.013 C 
HETATM   21  C29 UNL     1     -24.316  34.835  -3.644  1.00  0.00    -0.006 C 
HETATM   22  C30 UNL     1     -25.232  35.727  -4.451  1.00  0.00     0.019 C 
ENDROOT
BRANCH  13  23
HETATM   23  O3  UNL     1     -24.206  27.978  -5.750  1.00  0.00    -0.392 OA
ATOM     24  H3  UNL     1     -24.899  27.651  -5.189  1.00  0.00     0.210 HD
ENDBRANCH  13  23
BRANCH  14  25
HETATM   25  O4  UNL     1     -26.626  27.995  -6.154  1.00  0.00    -0.338 OA
BRANCH  25  26
HETATM   26  C21 UNL     1     -27.009  26.983  -7.027  1.00  0.00     0.261 C 
HETATM   27  C22 UNL     1     -28.480  26.694  -6.920  1.00  0.00     0.061 C 
HETATM   28  C23 UNL     1     -28.859  26.177  -5.549  1.00  0.00     0.007 C 
HETATM   29  C24 UNL     1     -27.927  25.035  -5.209  1.00  0.00     0.026 C 
HETATM   30  C25 UNL     1     -26.984  24.775  -6.342  1.00  0.00     0.171 C 
HETATM   31  O5  UNL     1     -26.244  25.868  -6.727  1.00  0.00    -0.361 OA
ENDBRANCH  25  26
ENDBRANCH  14  25
BRANCH   1  32
HETATM   32  C9  UNL     1     -22.305  36.214  -2.980  1.00  0.00     0.132 C 
BRANCH  32  33
HETATM   33  C8  UNL     1     -22.346  36.913  -4.257  1.00  0.00    -0.104 C 
HETATM   34  C7  UNL     1     -22.365  37.485  -5.335  1.00  0.00    -0.106 C 
BRANCH  34  35
HETATM   35  C6  UNL     1     -22.363  38.169  -6.635  1.00  0.00     0.106 C 
BRANCH  35  36
HETATM   36  C5  UNL     1     -22.874  37.237  -7.723  1.00  0.00     0.106 C 
BRANCH  36  37
HETATM   37  C4  UNL     1     -21.991  36.068  -7.865  1.00  0.00    -0.106 C 
HETATM   38  C3  UNL     1     -21.274  35.096  -7.999  1.00  0.00    -0.107 C 
BRANCH  38  39
HETATM   39  C2  UNL     1     -20.428  33.920  -8.179  1.00  0.00     0.089 C 
HETATM   40  C1  UNL     1     -20.369  33.199  -6.845  1.00  0.00     0.018 C 
ENDBRANCH  38  39
ENDBRANCH  36  37
ENDBRANCH  35  36
ENDBRANCH  34  35
ENDBRANCH  32  33
ENDBRANCH   1  32
BRANCH   1  41
HETATM   41  O1  UNL     1     -24.468  36.676  -2.184  1.00  0.00    -0.388 OA
ATOM     42  H1  UNL     1     -24.132  37.493  -2.534  1.00  0.00     0.210 HD
ENDBRANCH   1  41
TORSDOF 10
ENDMDL
