MODEL 1
REMARK VINA RESULT: -8.659287267      0.000      0.000
REMARK  5 active torsions:
REMARK  status: ('A' for Active; 'I' for Inactive)
REMARK    1  A    between atoms: C4_5  and  O1_6 
REMARK    2  A    between atoms: O1_6  and  C5_7 
REMARK    3  A    between atoms: N2_9  and  C7_10 
REMARK    4  A    between atoms: C14_21  and  C15_22 
REMARK    5  A    between atoms: C22_30  and  O4_31 
ROOT
HETATM    1  C5  UNL     1     -23.015  34.544  -5.390  1.00  0.00     0.114 A 
HETATM    2  C6  UNL     1     -23.381  35.342  -6.482  1.00  0.00     0.106 A 
HETATM    3  N2  UNL     1     -24.335  35.993  -7.164  1.00  0.00    -0.252 N 
HETATM    4  N3  UNL     1     -23.779  36.612  -8.183  1.00  0.00    -0.291 N 
ATOM      5  H3  UNL     1     -24.296  37.177  -8.856  1.00  0.00     0.187 HD
HETATM    6  C14 UNL     1     -22.442  36.412  -8.235  1.00  0.00     0.080 A 
HETATM    7  C19 UNL     1     -22.110  35.616  -7.185  1.00  0.00     0.053 A 
HETATM    8  C20 UNL     1     -21.089  34.990  -6.486  1.00  0.00     0.063 A 
HETATM    9  C21 UNL     1     -21.640  34.346  -5.402  1.00  0.00     0.061 A 
HETATM   10  C22 UNL     1     -20.996  33.680  -4.455  1.00  0.00     0.092 A 
HETATM   11  C23 UNL     1     -19.542  33.422  -4.380  1.00  0.00     0.010 A 
HETATM   12  C24 UNL     1     -19.197  32.670  -3.260  1.00  0.00     0.015 A 
HETATM   13  C25 UNL     1     -17.876  32.332  -3.023  1.00  0.00     0.001 A 
HETATM   14  C26 UNL     1     -16.855  32.712  -3.864  1.00  0.00     0.001 A 
HETATM   15  C27 UNL     1     -17.193  33.458  -4.974  1.00  0.00     0.014 A 
HETATM   16  C28 UNL     1     -18.518  33.794  -5.208  1.00  0.00    -0.008 A 
HETATM   17  C29 UNL     1     -18.601  34.582  -6.427  1.00  0.00     0.100 A 
HETATM   18  N4  UNL     1     -19.878  35.023  -6.797  1.00  0.00    -0.363 N 
ATOM     19  H4  UNL     1     -19.785  35.586  -7.642  1.00  0.00     0.165 HD
ENDROOT
BRANCH   3  20
HETATM   20  C7  UNL     1     -25.737  36.082  -6.830  1.00  0.00     0.059 A 
HETATM   21  C8  UNL     1     -26.553  35.030  -7.143  1.00  0.00     0.034 A 
HETATM   22  C9  UNL     1     -27.917  35.075  -6.853  1.00  0.00     0.042 A 
HETATM   23  C10 UNL     1     -28.445  36.196  -6.245  1.00  0.00     0.105 A 
HETATM   24  C11 UNL     1     -27.638  37.262  -5.925  1.00  0.00     0.107 A 
HETATM   25  O3  UNL     1     -29.750  36.473  -5.862  1.00  0.00    -0.323 OA
HETATM   26  C12 UNL     1     -26.277  37.186  -6.228  1.00  0.00     0.071 A 
HETATM   27  O2  UNL     1     -28.436  38.215  -5.338  1.00  0.00    -0.323 OA
HETATM   28  C13 UNL     1     -29.796  37.869  -5.613  1.00  0.00     0.352 C 
ENDBRANCH   3  20
BRANCH   1  29
HETATM   29  O1  UNL     1     -23.954  34.061  -4.494  1.00  0.00    -0.342 OA
BRANCH  29  30
HETATM   30  C4  UNL     1     -24.924  33.076  -4.705  1.00  0.00     0.132 C 
HETATM   31  C3  UNL     1     -25.042  32.148  -3.536  1.00  0.00     0.062 C 
HETATM   32  C2  UNL     1     -26.060  31.057  -3.748  1.00  0.00     0.274 C 
HETATM   33  N1  UNL     1     -25.831  30.276  -4.929  1.00  0.00     0.084 N 
HETATM   34  C1  UNL     1     -26.980  30.272  -5.815  1.00  0.00     0.309 C 
HETATM   35  C31 UNL     1     -24.633  30.735  -5.597  1.00  0.00     0.274 C 
HETATM   36  C30 UNL     1     -24.681  32.192  -5.912  1.00  0.00     0.062 C 
ENDBRANCH  29  30
ENDBRANCH   1  29
BRANCH   6  37
HETATM   37  C15 UNL     1     -21.566  37.019  -9.249  1.00  0.00     0.034 A 
HETATM   38  C16 UNL     1     -21.443  36.935 -10.582  1.00  0.00     0.021 A 
HETATM   39  C17 UNL     1     -20.451  37.624 -11.191  1.00  0.00     0.008 A 
HETATM   40  C18 UNL     1     -19.631  38.372 -10.405  1.00  0.00     0.050 A 
HETATM   41  S1  UNL     1     -20.244  38.106  -8.853  1.00  0.00    -0.100 SA
ENDBRANCH   6  37
BRANCH  10  42
HETATM   42  O4  UNL     1     -21.702  33.155  -3.410  1.00  0.00    -0.359 OA
ATOM     43  H4  UNL     1     -22.003  32.256  -3.458  1.00  0.00     0.217 HD
ENDBRANCH  10  42
TORSDOF 5
ENDMDL
MODEL 2
REMARK VINA RESULT: -8.460581045      3.356      6.067
REMARK  5 active torsions:
REMARK  status: ('A' for Active; 'I' for Inactive)
REMARK    1  A    between atoms: C4_5  and  O1_6 
REMARK    2  A    between atoms: O1_6  and  C5_7 
REMARK    3  A    between atoms: N2_9  and  C7_10 
REMARK    4  A    between atoms: C14_21  and  C15_22 
REMARK    5  A    between atoms: C22_30  and  O4_31 
ROOT
HETATM    1  C5  UNL     1     -21.880  34.723  -6.174  1.00  0.00     0.114 A 
HETATM    2  C6  UNL     1     -23.063  35.238  -5.627  1.00  0.00     0.106 A 
HETATM    3  N2  UNL     1     -24.245  35.846  -5.805  1.00  0.00    -0.252 N 
HETATM    4  N3  UNL     1     -24.853  35.940  -4.642  1.00  0.00    -0.291 N 
ATOM      5  H3  UNL     1     -25.770  36.366  -4.512  1.00  0.00     0.187 HD
HETATM    6  C14 UNL     1     -24.120  35.406  -3.638  1.00  0.00     0.080 A 
HETATM    7  C19 UNL     1     -22.968  34.935  -4.182  1.00  0.00     0.053 A 
HETATM    8  C20 UNL     1     -21.771  34.269  -3.962  1.00  0.00     0.063 A 
HETATM    9  C21 UNL     1     -21.120  34.141  -5.167  1.00  0.00     0.061 A 
HETATM   10  C22 UNL     1     -19.975  33.516  -5.395  1.00  0.00     0.092 A 
HETATM   11  C23 UNL     1     -19.102  32.866  -4.394  1.00  0.00     0.010 A 
HETATM   12  C24 UNL     1     -17.958  32.317  -4.970  1.00  0.00     0.015 A 
HETATM   13  C25 UNL     1     -17.023  31.665  -4.185  1.00  0.00     0.001 A 
HETATM   14  C26 UNL     1     -17.170  31.527  -2.823  1.00  0.00     0.001 A 
HETATM   15  C27 UNL     1     -18.302  32.068  -2.250  1.00  0.00     0.014 A 
HETATM   16  C28 UNL     1     -19.236  32.721  -3.040  1.00  0.00    -0.008 A 
HETATM   17  C29 UNL     1     -20.328  33.186  -2.200  1.00  0.00     0.100 A 
HETATM   18  N4  UNL     1     -21.373  33.853  -2.852  1.00  0.00    -0.363 N 
ATOM     19  H4  UNL     1     -22.079  34.090  -2.155  1.00  0.00     0.165 HD
ENDROOT
BRANCH   3  20
HETATM   20  C7  UNL     1     -24.822  36.278  -7.056  1.00  0.00     0.059 A 
HETATM   21  C8  UNL     1     -25.014  37.617  -7.261  1.00  0.00     0.034 A 
HETATM   22  C9  UNL     1     -25.581  38.082  -8.449  1.00  0.00     0.042 A 
HETATM   23  C10 UNL     1     -25.952  37.178  -9.423  1.00  0.00     0.105 A 
HETATM   24  C11 UNL     1     -25.765  35.829  -9.232  1.00  0.00     0.107 A 
HETATM   25  O3  UNL     1     -26.526  37.393 -10.669  1.00  0.00    -0.323 OA
HETATM   26  C12 UNL     1     -25.195  35.396  -8.033  1.00  0.00     0.071 A 
HETATM   27  O2  UNL     1     -26.224  35.191 -10.360  1.00  0.00    -0.323 OA
HETATM   28  C13 UNL     1     -27.008  36.130 -11.100  1.00  0.00     0.352 C 
ENDBRANCH   3  20
BRANCH   1  29
HETATM   29  O1  UNL     1     -21.594  34.836  -7.525  1.00  0.00    -0.342 OA
BRANCH  29  30
HETATM   30  C4  UNL     1     -20.966  35.893  -8.189  1.00  0.00     0.132 C 
HETATM   31  C3  UNL     1     -21.311  37.218  -7.582  1.00  0.00     0.062 C 
HETATM   32  C2  UNL     1     -20.672  38.381  -8.296  1.00  0.00     0.274 C 
HETATM   33  N1  UNL     1     -20.968  38.429  -9.699  1.00  0.00     0.084 N 
HETATM   34  C1  UNL     1     -19.768  38.439 -10.514  1.00  0.00     0.309 C 
HETATM   35  C31 UNL     1     -21.854  37.341 -10.053  1.00  0.00     0.274 C 
HETATM   36  C30 UNL     1     -21.304  36.011  -9.661  1.00  0.00     0.062 C 
ENDBRANCH  29  30
ENDBRANCH   1  29
BRANCH   6  37
HETATM   37  C15 UNL     1     -24.577  35.341  -2.241  1.00  0.00     0.034 A 
HETATM   38  C16 UNL     1     -24.509  36.150  -1.173  1.00  0.00     0.021 A 
HETATM   39  C17 UNL     1     -25.013  35.718   0.006  1.00  0.00     0.008 A 
HETATM   40  C18 UNL     1     -25.566  34.476   0.036  1.00  0.00     0.050 A 
HETATM   41  S1  UNL     1     -25.378  33.936  -1.554  1.00  0.00    -0.100 SA
ENDBRANCH   6  37
BRANCH  10  42
HETATM   42  O4  UNL     1     -19.503  33.430  -6.674  1.00  0.00    -0.359 OA
ATOM     43  H4  UNL     1     -20.109  33.242  -7.381  1.00  0.00     0.217 HD
ENDBRANCH  10  42
TORSDOF 5
ENDMDL
MODEL 3
REMARK VINA RESULT: -8.450676073      0.970      1.495
REMARK  5 active torsions:
REMARK  status: ('A' for Active; 'I' for Inactive)
REMARK    1  A    between atoms: C4_5  and  O1_6 
REMARK    2  A    between atoms: O1_6  and  C5_7 
REMARK    3  A    between atoms: N2_9  and  C7_10 
REMARK    4  A    between atoms: C14_21  and  C15_22 
REMARK    5  A    between atoms: C22_30  and  O4_31 
ROOT
HETATM    1  C5  UNL     1     -23.025  34.596  -5.540  1.00  0.00     0.114 A 
HETATM    2  C6  UNL     1     -23.346  35.419  -6.628  1.00  0.00     0.106 A 
HETATM    3  N2  UNL     1     -24.272  36.077  -7.340  1.00  0.00    -0.252 N 
HETATM    4  N3  UNL     1     -23.673  36.728  -8.314  1.00  0.00    -0.291 N 
ATOM      5  H3  UNL     1     -24.163  37.305  -8.997  1.00  0.00     0.187 HD
HETATM    6  C14 UNL     1     -22.334  36.544  -8.304  1.00  0.00     0.080 A 
HETATM    7  C19 UNL     1     -22.044  35.724  -7.259  1.00  0.00     0.053 A 
HETATM    8  C20 UNL     1     -21.052  35.091  -6.526  1.00  0.00     0.063 A 
HETATM    9  C21 UNL     1     -21.649  34.413  -5.487  1.00  0.00     0.061 A 
HETATM   10  C22 UNL     1     -21.046  33.730  -4.526  1.00  0.00     0.092 A 
HETATM   11  C23 UNL     1     -19.594  33.486  -4.386  1.00  0.00     0.010 A 
HETATM   12  C24 UNL     1     -19.297  32.709  -3.269  1.00  0.00     0.015 A 
HETATM   13  C25 UNL     1     -17.985  32.379  -2.974  1.00  0.00     0.001 A 
HETATM   14  C26 UNL     1     -16.928  32.791  -3.753  1.00  0.00     0.001 A 
HETATM   15  C27 UNL     1     -17.219  33.561  -4.860  1.00  0.00     0.014 A 
HETATM   16  C28 UNL     1     -18.534  33.889  -5.151  1.00  0.00    -0.008 A 
HETATM   17  C29 UNL     1     -18.565  34.708  -6.352  1.00  0.00     0.100 A 
HETATM   18  N4  UNL     1     -19.828  35.145  -6.774  1.00  0.00    -0.363 N 
ATOM     19  H4  UNL     1     -19.699  35.730  -7.599  1.00  0.00     0.165 HD
ENDROOT
BRANCH   3  20
HETATM   20  C7  UNL     1     -25.690  36.143  -7.075  1.00  0.00     0.059 A 
HETATM   21  C8  UNL     1     -26.142  37.042  -6.149  1.00  0.00     0.034 A 
HETATM   22  C9  UNL     1     -27.502  37.133  -5.848  1.00  0.00     0.042 A 
HETATM   23  C10 UNL     1     -28.397  36.303  -6.493  1.00  0.00     0.105 A 
HETATM   24  C11 UNL     1     -27.957  35.394  -7.427  1.00  0.00     0.107 A 
HETATM   25  O3  UNL     1     -29.776  36.207  -6.368  1.00  0.00    -0.323 OA
HETATM   26  C12 UNL     1     -26.591  35.328  -7.705  1.00  0.00     0.071 A 
HETATM   27  O2  UNL     1     -29.062  34.721  -7.891  1.00  0.00    -0.323 OA
HETATM   28  C13 UNL     1     -30.140  34.984  -6.988  1.00  0.00     0.352 C 
ENDBRANCH   3  20
BRANCH   1  29
HETATM   29  O1  UNL     1     -24.003  34.080  -4.704  1.00  0.00    -0.342 OA
BRANCH  29  30
HETATM   30  C4  UNL     1     -25.040  33.202  -5.028  1.00  0.00     0.132 C 
HETATM   31  C3  UNL     1     -26.345  33.634  -4.432  1.00  0.00     0.062 C 
HETATM   32  C2  UNL     1     -27.477  32.688  -4.741  1.00  0.00     0.274 C 
HETATM   33  N1  UNL     1     -27.221  31.333  -4.347  1.00  0.00     0.084 N 
HETATM   34  C1  UNL     1     -27.348  30.406  -5.455  1.00  0.00     0.309 C 
HETATM   35  C31 UNL     1     -25.925  31.243  -3.710  1.00  0.00     0.274 C 
HETATM   36  C30 UNL     1     -24.830  31.772  -4.573  1.00  0.00     0.062 C 
ENDBRANCH  29  30
ENDBRANCH   1  29
BRANCH   6  37
HETATM   37  C15 UNL     1     -21.415  37.186  -9.258  1.00  0.00     0.034 A 
HETATM   38  C16 UNL     1     -20.218  37.786  -9.178  1.00  0.00     0.021 A 
HETATM   39  C17 UNL     1     -19.683  38.325 -10.297  1.00  0.00     0.008 A 
HETATM   40  C18 UNL     1     -20.399  38.223 -11.448  1.00  0.00     0.050 A 
HETATM   41  S1  UNL     1     -21.786  37.391 -10.963  1.00  0.00    -0.100 SA
ENDBRANCH   6  37
BRANCH  10  42
HETATM   42  O4  UNL     1     -21.797  33.171  -3.532  1.00  0.00    -0.359 OA
ATOM     43  H4  UNL     1     -22.549  33.643  -3.197  1.00  0.00     0.217 HD
ENDBRANCH  10  42
TORSDOF 5
ENDMDL
MODEL 4
REMARK VINA RESULT: -8.304928685      3.330      5.996
REMARK  5 active torsions:
REMARK  status: ('A' for Active; 'I' for Inactive)
REMARK    1  A    between atoms: C4_5  and  O1_6 
REMARK    2  A    between atoms: O1_6  and  C5_7 
REMARK    3  A    between atoms: N2_9  and  C7_10 
REMARK    4  A    between atoms: C14_21  and  C15_22 
REMARK    5  A    between atoms: C22_30  and  O4_31 
ROOT
HETATM    1  C5  UNL     1     -21.879  34.718  -6.160  1.00  0.00     0.114 A 
HETATM    2  C6  UNL     1     -23.059  35.236  -5.610  1.00  0.00     0.106 A 
HETATM    3  N2  UNL     1     -24.239  35.848  -5.784  1.00  0.00    -0.252 N 
HETATM    4  N3  UNL     1     -24.844  35.941  -4.620  1.00  0.00    -0.291 N 
ATOM      5  H3  UNL     1     -25.759  36.371  -4.488  1.00  0.00     0.187 HD
HETATM    6  C14 UNL     1     -24.112  35.403  -3.619  1.00  0.00     0.080 A 
HETATM    7  C19 UNL     1     -22.962  34.929  -4.166  1.00  0.00     0.053 A 
HETATM    8  C20 UNL     1     -21.767  34.258  -3.950  1.00  0.00     0.063 A 
HETATM    9  C21 UNL     1     -21.119  34.131  -5.157  1.00  0.00     0.061 A 
HETATM   10  C22 UNL     1     -19.976  33.502  -5.388  1.00  0.00     0.092 A 
HETATM   11  C23 UNL     1     -19.103  32.847  -4.390  1.00  0.00     0.010 A 
HETATM   12  C24 UNL     1     -17.963  32.296  -4.969  1.00  0.00     0.015 A 
HETATM   13  C25 UNL     1     -17.029  31.638  -4.187  1.00  0.00     0.001 A 
HETATM   14  C26 UNL     1     -17.173  31.498  -2.825  1.00  0.00     0.001 A 
HETATM   15  C27 UNL     1     -18.302  32.042  -2.249  1.00  0.00     0.014 A 
HETATM   16  C28 UNL     1     -19.235  32.700  -3.036  1.00  0.00    -0.008 A 
HETATM   17  C29 UNL     1     -20.325  33.166  -2.193  1.00  0.00     0.100 A 
HETATM   18  N4  UNL     1     -21.369  33.839  -2.841  1.00  0.00    -0.363 N 
ATOM     19  H4  UNL     1     -22.072  34.077  -2.142  1.00  0.00     0.165 HD
ENDROOT
BRANCH   3  20
HETATM   20  C7  UNL     1     -24.816  36.285  -7.033  1.00  0.00     0.059 A 
HETATM   21  C8  UNL     1     -25.309  35.342  -7.893  1.00  0.00     0.034 A 
HETATM   22  C9  UNL     1     -25.864  35.714  -9.119  1.00  0.00     0.042 A 
HETATM   23  C10 UNL     1     -25.913  37.049  -9.463  1.00  0.00     0.105 A 
HETATM   24  C11 UNL     1     -25.422  38.010  -8.610  1.00  0.00     0.107 A 
HETATM   25  O3  UNL     1     -26.409  37.659 -10.608  1.00  0.00    -0.323 OA
HETATM   26  C12 UNL     1     -24.873  37.605  -7.392  1.00  0.00     0.071 A 
HETATM   27  O2  UNL     1     -25.608  39.228  -9.218  1.00  0.00    -0.323 OA
HETATM   28  C13 UNL     1     -25.902  38.984 -10.596  1.00  0.00     0.352 C 
ENDBRANCH   3  20
BRANCH   1  29
HETATM   29  O1  UNL     1     -21.594  34.833  -7.511  1.00  0.00    -0.342 OA
BRANCH  29  30
HETATM   30  C4  UNL     1     -20.965  35.891  -8.174  1.00  0.00     0.132 C 
HETATM   31  C3  UNL     1     -21.263  37.210  -7.531  1.00  0.00     0.062 C 
HETATM   32  C2  UNL     1     -20.622  38.373  -8.243  1.00  0.00     0.274 C 
HETATM   33  N1  UNL     1     -20.961  38.456  -9.634  1.00  0.00     0.084 N 
HETATM   34  C1  UNL     1     -19.786  38.457 -10.486  1.00  0.00     0.309 C 
HETATM   35  C31 UNL     1     -21.880  37.394  -9.981  1.00  0.00     0.274 C 
HETATM   36  C30 UNL     1     -21.346  36.045  -9.633  1.00  0.00     0.062 C 
ENDBRANCH  29  30
ENDBRANCH   1  29
BRANCH   6  37
HETATM   37  C15 UNL     1     -24.566  35.336  -2.221  1.00  0.00     0.034 A 
HETATM   38  C16 UNL     1     -24.485  36.138  -1.149  1.00  0.00     0.021 A 
HETATM   39  C17 UNL     1     -24.992  35.707   0.029  1.00  0.00     0.008 A 
HETATM   40  C18 UNL     1     -25.562  34.472   0.053  1.00  0.00     0.050 A 
HETATM   41  S1  UNL     1     -25.385  33.939  -1.540  1.00  0.00    -0.100 SA
ENDBRANCH   6  37
BRANCH  10  42
HETATM   42  O4  UNL     1     -19.507  33.418  -6.668  1.00  0.00    -0.359 OA
ATOM     43  H4  UNL     1     -19.945  33.905  -7.356  1.00  0.00     0.217 HD
ENDBRANCH  10  42
TORSDOF 5
ENDMDL
MODEL 5
REMARK VINA RESULT: -8.123650756      1.719      2.311
REMARK  5 active torsions:
REMARK  status: ('A' for Active; 'I' for Inactive)
REMARK    1  A    between atoms: C4_5  and  O1_6 
REMARK    2  A    between atoms: O1_6  and  C5_7 
REMARK    3  A    between atoms: N2_9  and  C7_10 
REMARK    4  A    between atoms: C14_21  and  C15_22 
REMARK    5  A    between atoms: C22_30  and  O4_31 
ROOT
HETATM    1  C5  UNL     1     -22.841  34.444  -5.495  1.00  0.00     0.114 A 
HETATM    2  C6  UNL     1     -23.194  35.327  -6.524  1.00  0.00     0.106 A 
HETATM    3  N2  UNL     1     -24.140  36.025  -7.169  1.00  0.00    -0.252 N 
HETATM    4  N3  UNL     1     -23.571  36.729  -8.123  1.00  0.00    -0.291 N 
ATOM      5  H3  UNL     1     -24.081  37.343  -8.757  1.00  0.00     0.187 HD
HETATM    6  C14 UNL     1     -22.232  36.543  -8.166  1.00  0.00     0.080 A 
HETATM    7  C19 UNL     1     -21.912  35.667  -7.179  1.00  0.00     0.053 A 
HETATM    8  C20 UNL     1     -20.898  34.992  -6.514  1.00  0.00     0.063 A 
HETATM    9  C21 UNL     1     -21.464  34.258  -5.496  1.00  0.00     0.061 A 
HETATM   10  C22 UNL     1     -20.832  33.521  -4.595  1.00  0.00     0.092 A 
HETATM   11  C23 UNL     1     -19.377  33.268  -4.514  1.00  0.00     0.010 A 
HETATM   12  C24 UNL     1     -19.047  32.430  -3.453  1.00  0.00     0.015 A 
HETATM   13  C25 UNL     1     -17.727  32.083  -3.219  1.00  0.00     0.001 A 
HETATM   14  C26 UNL     1     -16.694  32.538  -4.006  1.00  0.00     0.001 A 
HETATM   15  C27 UNL     1     -17.018  33.369  -5.059  1.00  0.00     0.014 A 
HETATM   16  C28 UNL     1     -18.341  33.714  -5.289  1.00  0.00    -0.008 A 
HETATM   17  C29 UNL     1     -18.408  34.599  -6.441  1.00  0.00     0.100 A 
HETATM   18  N4  UNL     1     -19.683  35.059  -6.798  1.00  0.00    -0.363 N 
ATOM     19  H4  UNL     1     -19.579  35.690  -7.592  1.00  0.00     0.165 HD
ENDROOT
BRANCH   3  20
HETATM   20  C7  UNL     1     -25.549  36.076  -6.856  1.00  0.00     0.059 A 
HETATM   21  C8  UNL     1     -26.330  34.999  -7.172  1.00  0.00     0.034 A 
HETATM   22  C9  UNL     1     -27.699  35.007  -6.902  1.00  0.00     0.042 A 
HETATM   23  C10 UNL     1     -28.267  36.117  -6.310  1.00  0.00     0.105 A 
HETATM   24  C11 UNL     1     -27.495  37.208  -5.986  1.00  0.00     0.107 A 
HETATM   25  O3  UNL     1     -29.585  36.360  -5.947  1.00  0.00    -0.323 OA
HETATM   26  C12 UNL     1     -26.129  37.168  -6.269  1.00  0.00     0.071 A 
HETATM   27  O2  UNL     1     -28.328  38.141  -5.418  1.00  0.00    -0.323 OA
HETATM   28  C13 UNL     1     -29.674  37.755  -5.709  1.00  0.00     0.352 C 
ENDBRANCH   3  20
BRANCH   1  29
HETATM   29  O1  UNL     1     -23.792  33.883  -4.659  1.00  0.00    -0.342 OA
BRANCH  29  30
HETATM   30  C4  UNL     1     -24.349  34.426  -3.497  1.00  0.00     0.132 C 
HETATM   31  C3  UNL     1     -23.486  35.502  -2.914  1.00  0.00     0.062 C 
HETATM   32  C2  UNL     1     -24.047  36.086  -1.643  1.00  0.00     0.274 C 
HETATM   33  N1  UNL     1     -24.309  35.109  -0.626  1.00  0.00     0.084 N 
HETATM   34  C1  UNL     1     -25.688  35.140  -0.177  1.00  0.00     0.309 C 
HETATM   35  C31 UNL     1     -23.920  33.797  -1.093  1.00  0.00     0.274 C 
HETATM   36  C30 UNL     1     -24.583  33.431  -2.378  1.00  0.00     0.062 C 
ENDBRANCH  29  30
ENDBRANCH   1  29
BRANCH   6  37
HETATM   37  C15 UNL     1     -21.343  37.237  -9.111  1.00  0.00     0.034 A 
HETATM   38  C16 UNL     1     -20.136  37.819  -9.039  1.00  0.00     0.021 A 
HETATM   39  C17 UNL     1     -19.637  38.425 -10.140  1.00  0.00     0.008 A 
HETATM   40  C18 UNL     1     -20.398  38.406 -11.267  1.00  0.00     0.050 A 
HETATM   41  S1  UNL     1     -21.776  37.557 -10.783  1.00  0.00    -0.100 SA
ENDBRANCH   6  37
BRANCH  10  42
HETATM   42  O4  UNL     1     -21.553  32.907  -3.610  1.00  0.00    -0.359 OA
ATOM     43  H4  UNL     1     -21.095  32.513  -2.878  1.00  0.00     0.217 HD
ENDBRANCH  10  42
TORSDOF 5
ENDMDL
