MODEL 1
REMARK VINA RESULT: -8.443821535      0.000      0.000
REMARK  7 active torsions:
REMARK  status: ('A' for Active; 'I' for Inactive)
REMARK    1  A    between atoms: N2_5  and  C4_6 
REMARK    2  A    between atoms: C5_9  and  N4_10 
REMARK    3  A    between atoms: N4_10  and  C6_12 
REMARK    4  A    between atoms: C11_17  and  C12_18 
REMARK    5  A    between atoms: C13_19  and  C14_20 
REMARK    6  A    between atoms: C18_26  and  N6_27 
REMARK    7  A    between atoms: N9_38  and  C25_40 
ROOT
HETATM    1  N4  UNL     1     -21.755  38.903  -9.000  1.00  0.00    -0.189 N 
ATOM      2  H4  UNL     1     -21.023  39.486  -8.595  1.00  0.00     0.184 HD
ENDROOT
BRANCH   1   3
HETATM    3  C5  UNL     1     -22.767  38.515  -8.287  1.00  0.00     0.711 A 
HETATM    4  N3  UNL     1     -22.585  37.936  -7.068  1.00  0.00    -0.021 N 
HETATM    5  C4  UNL     1     -23.624  37.530  -6.322  1.00  0.00     0.709 A 
ATOM      6  H3  UNL     1     -21.637  37.807  -6.714  1.00  0.00     0.203 HD
HETATM    7  N10 UNL     1     -24.877  37.694  -6.775  1.00  0.00    -0.021 N 
HETATM    8  C24 UNL     1     -25.111  38.270  -7.994  1.00  0.00     0.711 A 
ATOM      9  H10 UNL     1     -25.664  37.384  -6.205  1.00  0.00     0.203 HD
HETATM   10  N8  UNL     1     -24.035  38.658  -8.700  1.00  0.00    -0.021 N 
HETATM   11  N9  UNL     1     -26.309  38.437  -8.450  1.00  0.00    -0.191 N 
ATOM     12  H8  UNL     1     -24.192  39.089  -9.611  1.00  0.00     0.203 HD
ATOM     13  H9  UNL     1     -26.417  38.873  -9.366  1.00  0.00     0.184 HD
BRANCH   5  14
HETATM   14  N2  UNL     1     -23.432  36.928  -5.054  1.00  0.00    -0.213 N 
HETATM   15  C3  UNL     1     -24.508  36.450  -4.212  1.00  0.00     0.171 C 
HETATM   16  C2  UNL     1     -24.000  35.293  -3.387  1.00  0.00     0.292 C 
HETATM   17  N1  UNL     1     -22.919  35.633  -2.511  1.00  0.00     0.087 N 
HETATM   18  C1  UNL     1     -22.102  34.486  -2.161  1.00  0.00     0.310 C 
HETATM   19  C32 UNL     1     -22.105  36.722  -3.005  1.00  0.00     0.292 C 
HETATM   20  C31 UNL     1     -22.077  36.758  -4.519  1.00  0.00     0.171 C 
ENDBRANCH   5  14
BRANCH  11  21
HETATM   21  C25 UNL     1     -27.468  38.054  -7.762  1.00  0.00     0.049 A 
HETATM   22  C26 UNL     1     -28.011  36.807  -7.980  1.00  0.00     0.030 A 
HETATM   23  C27 UNL     1     -29.152  36.465  -7.286  1.00  0.00     0.002 A 
HETATM   24  C28 UNL     1     -29.773  37.310  -6.388  1.00  0.00     0.000 A 
HETATM   25  C29 UNL     1     -29.214  38.547  -6.188  1.00  0.00     0.002 A 
HETATM   26  C30 UNL     1     -28.073  38.918  -6.868  1.00  0.00     0.030 A 
ENDBRANCH  11  21
ENDBRANCH   1   3
BRANCH   1  27
HETATM   27  C6  UNL     1     -21.691  38.496 -10.355  1.00  0.00     0.068 A 
HETATM   28  C7  UNL     1     -22.073  39.340 -11.397  1.00  0.00     0.031 A 
HETATM   29  C8  UNL     1     -22.006  38.931 -12.715  1.00  0.00     0.002 A 
HETATM   30  C9  UNL     1     -21.551  37.662 -13.001  1.00  0.00     0.002 A 
HETATM   31  C10 UNL     1     -21.175  36.832 -11.969  1.00  0.00     0.023 A 
HETATM   32  C11 UNL     1     -21.239  37.233 -10.636  1.00  0.00     0.045 A 
BRANCH  32  33
HETATM   33  C12 UNL     1     -20.847  36.371  -9.557  1.00  0.00    -0.058 C 
HETATM   34  C13 UNL     1     -20.537  35.637  -8.642  1.00  0.00    -0.043 C 
BRANCH  34  35
HETATM   35  C14 UNL     1     -20.192  34.771  -7.549  1.00  0.00     0.087 A 
HETATM   36  C15 UNL     1     -21.145  33.946  -6.975  1.00  0.00     0.041 A 
HETATM   37  C16 UNL     1     -20.841  33.104  -5.924  1.00  0.00     0.035 A 
HETATM   38  C17 UNL     1     -19.559  33.065  -5.412  1.00  0.00     0.060 A 
HETATM   39  N5  UNL     1     -19.216  32.261  -4.389  1.00  0.00    -0.341 N 
HETATM   40  C23 UNL     1     -18.625  33.899  -6.003  1.00  0.00     0.060 A 
HETATM   41  C18 UNL     1     -17.964  32.211  -3.876  1.00  0.00     0.102 A 
ATOM     42  H5  UNL     1     -19.933  31.662  -3.981  1.00  0.00     0.167 HD
HETATM   43  C21 UNL     1     -17.005  33.025  -4.436  1.00  0.00     0.051 A 
HETATM   44  C22 UNL     1     -17.341  33.850  -5.480  1.00  0.00     0.035 A 
HETATM   45  N7  UNL     1     -18.958  34.709  -7.030  1.00  0.00    -0.347 N 
ATOM     46  H7  UNL     1     -18.234  35.304  -7.432  1.00  0.00     0.167 HD
BRANCH  41  47
HETATM   47  N6  UNL     1     -17.644  31.340  -2.786  1.00  0.00    -0.376 N 
HETATM   48  C19 UNL     1     -16.640  30.334  -2.971  1.00  0.00     0.150 C 
HETATM   49  C20 UNL     1     -18.304  31.448  -1.511  1.00  0.00     0.150 C 
ENDBRANCH  41  47
ENDBRANCH  34  35
ENDBRANCH  32  33
ENDBRANCH   1  27
TORSDOF 7
ENDMDL
MODEL 2
REMARK VINA RESULT: -8.387323836      3.383      8.519
REMARK  7 active torsions:
REMARK  status: ('A' for Active; 'I' for Inactive)
REMARK    1  A    between atoms: N2_5  and  C4_6 
REMARK    2  A    between atoms: C5_9  and  N4_10 
REMARK    3  A    between atoms: N4_10  and  C6_12 
REMARK    4  A    between atoms: C11_17  and  C12_18 
REMARK    5  A    between atoms: C13_19  and  C14_20 
REMARK    6  A    between atoms: C18_26  and  N6_27 
REMARK    7  A    between atoms: N9_38  and  C25_40 
ROOT
HETATM    1  N4  UNL     1     -20.639  32.680  -6.486  1.00  0.00    -0.189 N 
ATOM      2  H4  UNL     1     -20.760  32.420  -7.464  1.00  0.00     0.184 HD
ENDROOT
BRANCH   1   3
HETATM    3  C5  UNL     1     -21.653  32.713  -5.676  1.00  0.00     0.711 A 
HETATM    4  N3  UNL     1     -22.766  31.965  -5.916  1.00  0.00    -0.021 N 
HETATM    5  C4  UNL     1     -23.821  31.994  -5.086  1.00  0.00     0.709 A 
ATOM      6  H3  UNL     1     -22.798  31.371  -6.744  1.00  0.00     0.203 HD
HETATM    7  N10 UNL     1     -23.792  32.772  -3.993  1.00  0.00    -0.021 N 
HETATM    8  C24 UNL     1     -22.696  33.542  -3.711  1.00  0.00     0.711 A 
ATOM      9  H10 UNL     1     -24.596  32.789  -3.365  1.00  0.00     0.203 HD
HETATM   10  N8  UNL     1     -21.668  33.476  -4.574  1.00  0.00    -0.021 N 
HETATM   11  N9  UNL     1     -22.647  34.298  -2.664  1.00  0.00    -0.191 N 
ATOM     12  H8  UNL     1     -20.844  34.045  -4.377  1.00  0.00     0.203 HD
ATOM     13  H9  UNL     1     -21.802  34.848  -2.509  1.00  0.00     0.184 HD
BRANCH   5  14
HETATM   14  N2  UNL     1     -24.977  31.214  -5.337  1.00  0.00    -0.213 N 
HETATM   15  C3  UNL     1     -25.414  30.814  -6.658  1.00  0.00     0.171 C 
HETATM   16  C2  UNL     1     -26.141  29.496  -6.549  1.00  0.00     0.292 C 
HETATM   17  N1  UNL     1     -27.316  29.546  -5.731  1.00  0.00     0.087 N 
HETATM   18  C1  UNL     1     -27.676  28.249  -5.190  1.00  0.00     0.310 C 
HETATM   19  C32 UNL     1     -27.241  30.543  -4.686  1.00  0.00     0.292 C 
HETATM   20  C31 UNL     1     -25.816  30.764  -4.222  1.00  0.00     0.171 C 
ENDBRANCH   5  14
BRANCH  11  21
HETATM   21  C25 UNL     1     -23.685  34.409  -1.729  1.00  0.00     0.049 A 
HETATM   22  C26 UNL     1     -23.961  35.631  -1.155  1.00  0.00     0.030 A 
HETATM   23  C27 UNL     1     -24.989  35.702  -0.239  1.00  0.00     0.002 A 
HETATM   24  C28 UNL     1     -25.751  34.611   0.128  1.00  0.00     0.000 A 
HETATM   25  C29 UNL     1     -25.457  33.405  -0.456  1.00  0.00     0.002 A 
HETATM   26  C30 UNL     1     -24.435  33.302  -1.375  1.00  0.00     0.030 A 
ENDBRANCH  11  21
ENDBRANCH   1   3
BRANCH   1  27
HETATM   27  C6  UNL     1     -19.360  33.012  -5.977  1.00  0.00     0.068 A 
HETATM   28  C7  UNL     1     -18.656  32.152  -5.134  1.00  0.00     0.031 A 
HETATM   29  C8  UNL     1     -17.409  32.489  -4.645  1.00  0.00     0.002 A 
HETATM   30  C9  UNL     1     -16.853  33.699  -4.998  1.00  0.00     0.002 A 
HETATM   31  C10 UNL     1     -17.553  34.545  -5.830  1.00  0.00     0.023 A 
HETATM   32  C11 UNL     1     -18.811  34.218  -6.330  1.00  0.00     0.045 A 
BRANCH  32  33
HETATM   33  C12 UNL     1     -19.544  35.096  -7.197  1.00  0.00    -0.058 C 
HETATM   34  C13 UNL     1     -20.165  35.852  -7.914  1.00  0.00    -0.043 C 
BRANCH  34  35
HETATM   35  C14 UNL     1     -20.910  36.758  -8.744  1.00  0.00     0.087 A 
HETATM   36  C15 UNL     1     -20.977  36.567 -10.114  1.00  0.00     0.041 A 
HETATM   37  C16 UNL     1     -21.686  37.422 -10.934  1.00  0.00     0.035 A 
HETATM   38  C17 UNL     1     -22.356  38.505 -10.397  1.00  0.00     0.060 A 
HETATM   39  N5  UNL     1     -23.060  39.364 -11.157  1.00  0.00    -0.341 N 
HETATM   40  C23 UNL     1     -22.274  38.672  -9.025  1.00  0.00     0.060 A 
HETATM   41  C18 UNL     1     -23.722  40.429 -10.646  1.00  0.00     0.102 A 
ATOM     42  H5  UNL     1     -23.095  39.206 -12.164  1.00  0.00     0.167 HD
HETATM   43  C21 UNL     1     -23.666  40.632  -9.285  1.00  0.00     0.051 A 
HETATM   44  C22 UNL     1     -22.952  39.762  -8.499  1.00  0.00     0.035 A 
HETATM   45  N7  UNL     1     -21.571  37.815  -8.255  1.00  0.00    -0.347 N 
ATOM     46  H7  UNL     1     -21.542  37.981  -7.249  1.00  0.00     0.167 HD
BRANCH  41  47
HETATM   47  N6  UNL     1     -24.458  41.319 -11.492  1.00  0.00    -0.376 N 
HETATM   48  C19 UNL     1     -24.890  42.580 -10.968  1.00  0.00     0.150 C 
HETATM   49  C20 UNL     1     -24.776  40.979 -12.855  1.00  0.00     0.150 C 
ENDBRANCH  41  47
ENDBRANCH  34  35
ENDBRANCH  32  33
ENDBRANCH   1  27
TORSDOF 7
ENDMDL
MODEL 3
REMARK VINA RESULT: -8.378066400      3.473      8.546
REMARK  7 active torsions:
REMARK  status: ('A' for Active; 'I' for Inactive)
REMARK    1  A    between atoms: N2_5  and  C4_6 
REMARK    2  A    between atoms: C5_9  and  N4_10 
REMARK    3  A    between atoms: N4_10  and  C6_12 
REMARK    4  A    between atoms: C11_17  and  C12_18 
REMARK    5  A    between atoms: C13_19  and  C14_20 
REMARK    6  A    between atoms: C18_26  and  N6_27 
REMARK    7  A    between atoms: N9_38  and  C25_40 
ROOT
HETATM    1  N4  UNL     1     -20.612  32.674  -6.477  1.00  0.00    -0.189 N 
ATOM      2  H4  UNL     1     -20.727  32.411  -7.455  1.00  0.00     0.184 HD
ENDROOT
BRANCH   1   3
HETATM    3  C5  UNL     1     -21.630  32.708  -5.673  1.00  0.00     0.711 A 
HETATM    4  N3  UNL     1     -22.742  31.961  -5.919  1.00  0.00    -0.021 N 
HETATM    5  C4  UNL     1     -23.801  31.989  -5.095  1.00  0.00     0.709 A 
ATOM      6  H3  UNL     1     -22.771  31.368  -6.748  1.00  0.00     0.203 HD
HETATM    7  N10 UNL     1     -23.777  32.766  -4.000  1.00  0.00    -0.021 N 
HETATM    8  C24 UNL     1     -22.683  33.535  -3.712  1.00  0.00     0.711 A 
ATOM      9  H10 UNL     1     -24.585  32.784  -3.377  1.00  0.00     0.203 HD
HETATM   10  N8  UNL     1     -21.650  33.470  -4.570  1.00  0.00    -0.021 N 
HETATM   11  N9  UNL     1     -22.638  34.291  -2.664  1.00  0.00    -0.191 N 
ATOM     12  H8  UNL     1     -20.827  34.037  -4.369  1.00  0.00     0.203 HD
ATOM     13  H9  UNL     1     -21.794  34.840  -2.504  1.00  0.00     0.184 HD
BRANCH   5  14
HETATM   14  N2  UNL     1     -24.957  31.211  -5.353  1.00  0.00    -0.213 N 
HETATM   15  C3  UNL     1     -25.391  30.818  -6.676  1.00  0.00     0.171 C 
HETATM   16  C2  UNL     1     -26.118  29.500  -6.577  1.00  0.00     0.292 C 
HETATM   17  N1  UNL     1     -27.294  29.544  -5.760  1.00  0.00     0.087 N 
HETATM   18  C1  UNL     1     -27.655  28.244  -5.228  1.00  0.00     0.310 C 
HETATM   19  C32 UNL     1     -27.222  30.535  -4.709  1.00  0.00     0.292 C 
HETATM   20  C31 UNL     1     -25.798  30.754  -4.241  1.00  0.00     0.171 C 
ENDBRANCH   5  14
BRANCH  11  21
HETATM   21  C25 UNL     1     -23.681  34.401  -1.735  1.00  0.00     0.049 A 
HETATM   22  C26 UNL     1     -23.956  35.622  -1.158  1.00  0.00     0.030 A 
HETATM   23  C27 UNL     1     -24.989  35.693  -0.248  1.00  0.00     0.002 A 
HETATM   24  C28 UNL     1     -25.756  34.603   0.112  1.00  0.00     0.000 A 
HETATM   25  C29 UNL     1     -25.463  33.398  -0.475  1.00  0.00     0.002 A 
HETATM   26  C30 UNL     1     -24.436  33.295  -1.388  1.00  0.00     0.030 A 
ENDBRANCH  11  21
ENDBRANCH   1   3
BRANCH   1  27
HETATM   27  C6  UNL     1     -19.337  33.012  -5.963  1.00  0.00     0.068 A 
HETATM   28  C7  UNL     1     -18.662  32.185  -5.065  1.00  0.00     0.031 A 
HETATM   29  C8  UNL     1     -17.418  32.526  -4.571  1.00  0.00     0.002 A 
HETATM   30  C9  UNL     1     -16.835  33.707  -4.976  1.00  0.00     0.002 A 
HETATM   31  C10 UNL     1     -17.505  34.520  -5.862  1.00  0.00     0.023 A 
HETATM   32  C11 UNL     1     -18.761  34.188  -6.368  1.00  0.00     0.045 A 
BRANCH  32  33
HETATM   33  C12 UNL     1     -19.463  35.032  -7.292  1.00  0.00    -0.058 C 
HETATM   34  C13 UNL     1     -20.048  35.762  -8.064  1.00  0.00    -0.043 C 
BRANCH  34  35
HETATM   35  C14 UNL     1     -20.740  36.645  -8.962  1.00  0.00     0.087 A 
HETATM   36  C15 UNL     1     -21.363  37.787  -8.487  1.00  0.00     0.041 A 
HETATM   37  C16 UNL     1     -22.035  38.653  -9.327  1.00  0.00     0.035 A 
HETATM   38  C17 UNL     1     -22.101  38.396 -10.682  1.00  0.00     0.060 A 
HETATM   39  N5  UNL     1     -22.744  39.210 -11.539  1.00  0.00    -0.341 N 
HETATM   40  C23 UNL     1     -21.469  37.248 -11.132  1.00  0.00     0.060 A 
HETATM   41  C18 UNL     1     -22.818  38.972 -12.869  1.00  0.00     0.102 A 
ATOM     42  H5  UNL     1     -23.197  40.045 -11.168  1.00  0.00     0.167 HD
HETATM   43  C21 UNL     1     -22.202  37.841 -13.358  1.00  0.00     0.051 A 
HETATM   44  C22 UNL     1     -21.543  37.001 -12.495  1.00  0.00     0.035 A 
HETATM   45  N7  UNL     1     -20.822  36.425 -10.281  1.00  0.00    -0.347 N 
ATOM     46  H7  UNL     1     -20.371  35.592 -10.661  1.00  0.00     0.167 HD
BRANCH  41  47
HETATM   47  N6  UNL     1     -23.513  39.866 -13.745  1.00  0.00    -0.376 N 
HETATM   48  C19 UNL     1     -23.344  39.726 -15.161  1.00  0.00     0.150 C 
HETATM   49  C20 UNL     1     -24.376  40.902 -13.240  1.00  0.00     0.150 C 
ENDBRANCH  41  47
ENDBRANCH  34  35
ENDBRANCH  32  33
ENDBRANCH   1  27
TORSDOF 7
ENDMDL
MODEL 4
REMARK VINA RESULT: -8.282326591      5.043      8.595
REMARK  7 active torsions:
REMARK  status: ('A' for Active; 'I' for Inactive)
REMARK    1  A    between atoms: N2_5  and  C4_6 
REMARK    2  A    between atoms: C5_9  and  N4_10 
REMARK    3  A    between atoms: N4_10  and  C6_12 
REMARK    4  A    between atoms: C11_17  and  C12_18 
REMARK    5  A    between atoms: C13_19  and  C14_20 
REMARK    6  A    between atoms: C18_26  and  N6_27 
REMARK    7  A    between atoms: N9_38  and  C25_40 
ROOT
HETATM    1  N4  UNL     1     -25.115  34.713  -4.132  1.00  0.00    -0.189 N 
ATOM      2  H4  UNL     1     -25.998  34.517  -4.603  1.00  0.00     0.184 HD
ENDROOT
BRANCH   1   3
HETATM    3  C5  UNL     1     -24.048  35.002  -4.812  1.00  0.00     0.711 A 
HETATM    4  N3  UNL     1     -22.833  34.498  -4.458  1.00  0.00    -0.021 N 
HETATM    5  C4  UNL     1     -21.723  34.791  -5.153  1.00  0.00     0.709 A 
ATOM      6  H3  UNL     1     -22.766  33.884  -3.647  1.00  0.00     0.203 HD
HETATM    7  N10 UNL     1     -21.798  35.599  -6.223  1.00  0.00    -0.021 N 
HETATM    8  C24 UNL     1     -22.996  36.130  -6.617  1.00  0.00     0.711 A 
ATOM      9  H10 UNL     1     -20.952  35.818  -6.749  1.00  0.00     0.203 HD
HETATM   10  N8  UNL     1     -24.075  35.804  -5.886  1.00  0.00    -0.021 N 
HETATM   11  N9  UNL     1     -23.090  36.909  -7.644  1.00  0.00    -0.191 N 
ATOM     12  H8  UNL     1     -24.976  36.192  -6.166  1.00  0.00     0.203 HD
ATOM     13  H9  UNL     1     -24.012  37.273  -7.886  1.00  0.00     0.184 HD
BRANCH   5  14
HETATM   14  N2  UNL     1     -20.461  34.265  -4.783  1.00  0.00    -0.213 N 
HETATM   15  C3  UNL     1     -19.903  34.357  -3.451  1.00  0.00     0.171 C 
HETATM   16  C2  UNL     1     -19.012  33.163  -3.215  1.00  0.00     0.292 C 
HETATM   17  N1  UNL     1     -17.901  33.078  -4.115  1.00  0.00     0.087 N 
HETATM   18  C1  UNL     1     -17.400  31.724  -4.259  1.00  0.00     0.310 C 
HETATM   19  C32 UNL     1     -18.166  33.675  -5.406  1.00  0.00     0.292 C 
HETATM   20  C31 UNL     1     -19.631  33.578  -5.778  1.00  0.00     0.171 C 
ENDBRANCH   5  14
BRANCH  11  21
HETATM   21  C25 UNL     1     -22.003  37.285  -8.443  1.00  0.00     0.049 A 
HETATM   22  C26 UNL     1     -21.025  38.105  -7.925  1.00  0.00     0.030 A 
HETATM   23  C27 UNL     1     -19.970  38.454  -8.741  1.00  0.00     0.002 A 
HETATM   24  C28 UNL     1     -19.849  38.023 -10.047  1.00  0.00     0.000 A 
HETATM   25  C29 UNL     1     -20.836  37.208 -10.541  1.00  0.00     0.002 A 
HETATM   26  C30 UNL     1     -21.903  36.842  -9.750  1.00  0.00     0.030 A 
ENDBRANCH  11  21
ENDBRANCH   1   3
BRANCH   1  27
HETATM   27  C6  UNL     1     -25.024  34.676  -2.719  1.00  0.00     0.068 A 
HETATM   28  C7  UNL     1     -24.736  35.816  -1.969  1.00  0.00     0.031 A 
HETATM   29  C8  UNL     1     -24.650  35.767  -0.592  1.00  0.00     0.002 A 
HETATM   30  C9  UNL     1     -24.853  34.565   0.051  1.00  0.00     0.002 A 
HETATM   31  C10 UNL     1     -25.137  33.442  -0.693  1.00  0.00     0.023 A 
HETATM   32  C11 UNL     1     -25.226  33.478  -2.084  1.00  0.00     0.045 A 
BRANCH  32  33
HETATM   33  C12 UNL     1     -25.522  32.311  -2.864  1.00  0.00    -0.058 C 
HETATM   34  C13 UNL     1     -25.760  31.313  -3.511  1.00  0.00    -0.043 C 
BRANCH  34  35
HETATM   35  C14 UNL     1     -26.019  30.121  -4.270  1.00  0.00     0.087 A 
HETATM   36  C15 UNL     1     -26.571  29.005  -3.664  1.00  0.00     0.041 A 
HETATM   37  C16 UNL     1     -26.831  27.846  -4.369  1.00  0.00     0.035 A 
HETATM   38  C17 UNL     1     -26.542  27.774  -5.718  1.00  0.00     0.060 A 
HETATM   39  N5  UNL     1     -26.777  26.667  -6.446  1.00  0.00    -0.341 N 
HETATM   40  C23 UNL     1     -25.992  28.903  -6.300  1.00  0.00     0.060 A 
HETATM   41  C18 UNL     1     -26.499  26.580  -7.768  1.00  0.00     0.102 A 
ATOM     42  H5  UNL     1     -27.183  25.856  -5.980  1.00  0.00     0.167 HD
HETATM   43  C21 UNL     1     -25.951  27.682  -8.386  1.00  0.00     0.051 A 
HETATM   44  C22 UNL     1     -25.706  28.818  -7.655  1.00  0.00     0.035 A 
HETATM   45  N7  UNL     1     -25.752  30.019  -5.579  1.00  0.00    -0.347 N 
ATOM     46  H7  UNL     1     -25.346  30.825  -6.054  1.00  0.00     0.167 HD
BRANCH  41  47
HETATM   47  N6  UNL     1     -26.766  25.382  -8.504  1.00  0.00    -0.376 N 
HETATM   48  C19 UNL     1     -28.057  24.768  -8.392  1.00  0.00     0.150 C 
HETATM   49  C20 UNL     1     -25.773  24.777  -9.354  1.00  0.00     0.150 C 
ENDBRANCH  41  47
ENDBRANCH  34  35
ENDBRANCH  32  33
ENDBRANCH   1  27
TORSDOF 7
ENDMDL
MODEL 5
REMARK VINA RESULT: -8.257875779      4.436      9.253
REMARK  7 active torsions:
REMARK  status: ('A' for Active; 'I' for Inactive)
REMARK    1  A    between atoms: N2_5  and  C4_6 
REMARK    2  A    between atoms: C5_9  and  N4_10 
REMARK    3  A    between atoms: N4_10  and  C6_12 
REMARK    4  A    between atoms: C11_17  and  C12_18 
REMARK    5  A    between atoms: C13_19  and  C14_20 
REMARK    6  A    between atoms: C18_26  and  N6_27 
REMARK    7  A    between atoms: N9_38  and  C25_40 
ROOT
HETATM    1  N4  UNL     1     -24.592  35.636  -3.437  1.00  0.00    -0.189 N 
ATOM      2  H4  UNL     1     -25.297  36.121  -3.992  1.00  0.00     0.184 HD
ENDROOT
BRANCH   1   3
HETATM    3  C5  UNL     1     -23.402  35.427  -3.910  1.00  0.00     0.711 A 
HETATM    4  N3  UNL     1     -22.969  36.073  -5.028  1.00  0.00    -0.021 N 
HETATM    5  C4  UNL     1     -21.740  35.863  -5.526  1.00  0.00     0.709 A 
ATOM      6  H3  UNL     1     -23.591  36.730  -5.497  1.00  0.00     0.203 HD
HETATM    7  N10 UNL     1     -20.910  35.000  -4.920  1.00  0.00    -0.021 N 
HETATM    8  C24 UNL     1     -21.301  34.327  -3.795  1.00  0.00     0.711 A 
ATOM      9  H10 UNL     1     -19.977  34.845  -5.302  1.00  0.00     0.203 HD
HETATM   10  N8  UNL     1     -22.540  34.574  -3.338  1.00  0.00    -0.021 N 
HETATM   11  N9  UNL     1     -20.518  33.491  -3.194  1.00  0.00    -0.191 N 
ATOM     12  H8  UNL     1     -22.847  34.079  -2.500  1.00  0.00     0.203 HD
ATOM     13  H9  UNL     1     -20.868  33.021  -2.360  1.00  0.00     0.184 HD
BRANCH   5  14
HETATM   14  N2  UNL     1     -21.291  36.537  -6.690  1.00  0.00    -0.213 N 
HETATM   15  C3  UNL     1     -20.180  36.094  -7.505  1.00  0.00     0.171 C 
HETATM   16  C2  UNL     1     -20.422  36.527  -8.930  1.00  0.00     0.292 C 
HETATM   17  N1  UNL     1     -20.510  37.947  -9.099  1.00  0.00     0.087 N 
HETATM   18  C1  UNL     1     -21.261  38.323 -10.282  1.00  0.00     0.310 C 
HETATM   19  C32 UNL     1     -21.007  38.632  -7.926  1.00  0.00     0.292 C 
HETATM   20  C31 UNL     1     -21.961  37.764  -7.133  1.00  0.00     0.171 C 
ENDBRANCH   5  14
BRANCH  11  21
HETATM   21  C25 UNL     1     -19.218  33.193  -3.622  1.00  0.00     0.049 A 
HETATM   22  C26 UNL     1     -18.144  33.514  -2.820  1.00  0.00     0.030 A 
HETATM   23  C27 UNL     1     -16.879  33.206  -3.273  1.00  0.00     0.002 A 
HETATM   24  C28 UNL     1     -16.639  32.594  -4.487  1.00  0.00     0.000 A 
HETATM   25  C29 UNL     1     -17.723  32.285  -5.268  1.00  0.00     0.002 A 
HETATM   26  C30 UNL     1     -19.000  32.581  -4.843  1.00  0.00     0.030 A 
ENDBRANCH  11  21
ENDBRANCH   1   3
BRANCH   1  27
HETATM   27  C6  UNL     1     -24.889  35.174  -2.132  1.00  0.00     0.068 A 
HETATM   28  C7  UNL     1     -24.718  35.982  -1.008  1.00  0.00     0.031 A 
HETATM   29  C8  UNL     1     -25.011  35.520   0.260  1.00  0.00     0.002 A 
HETATM   30  C9  UNL     1     -25.482  34.234   0.414  1.00  0.00     0.002 A 
HETATM   31  C10 UNL     1     -25.649  33.440  -0.699  1.00  0.00     0.023 A 
HETATM   32  C11 UNL     1     -25.357  33.894  -1.984  1.00  0.00     0.045 A 
BRANCH  32  33
HETATM   33  C12 UNL     1     -25.530  33.071  -3.146  1.00  0.00    -0.058 C 
HETATM   34  C13 UNL     1     -25.657  32.367  -4.126  1.00  0.00    -0.043 C 
BRANCH  34  35
HETATM   35  C14 UNL     1     -25.782  31.532  -5.288  1.00  0.00     0.087 A 
HETATM   36  C15 UNL     1     -26.472  31.976  -6.404  1.00  0.00     0.041 A 
HETATM   37  C16 UNL     1     -26.608  31.195  -7.535  1.00  0.00     0.035 A 
HETATM   38  C17 UNL     1     -26.049  29.932  -7.579  1.00  0.00     0.060 A 
HETATM   39  N5  UNL     1     -26.156  29.136  -8.658  1.00  0.00    -0.341 N 
HETATM   40  C23 UNL     1     -25.365  29.513  -6.451  1.00  0.00     0.060 A 
HETATM   41  C18 UNL     1     -25.615  27.896  -8.717  1.00  0.00     0.102 A 
ATOM     42  H5  UNL     1     -26.669  29.482  -9.468  1.00  0.00     0.167 HD
HETATM   43  C21 UNL     1     -24.924  27.440  -7.615  1.00  0.00     0.051 A 
HETATM   44  C22 UNL     1     -24.808  28.243  -6.508  1.00  0.00     0.035 A 
HETATM   45  N7  UNL     1     -25.252  30.304  -5.363  1.00  0.00    -0.347 N 
ATOM     46  H7  UNL     1     -24.737  29.950  -4.558  1.00  0.00     0.167 HD
BRANCH  41  47
HETATM   47  N6  UNL     1     -25.752  27.082  -9.886  1.00  0.00    -0.376 N 
HETATM   48  C19 UNL     1     -24.580  26.730 -10.632  1.00  0.00     0.150 C 
HETATM   49  C20 UNL     1     -27.037  26.608 -10.333  1.00  0.00     0.150 C 
ENDBRANCH  41  47
ENDBRANCH  34  35
ENDBRANCH  32  33
ENDBRANCH   1  27
TORSDOF 7
ENDMDL
