MODEL 1
REMARK VINA RESULT: -8.196413220      0.000      0.000
REMARK  10 active torsions:
REMARK  status: ('A' for Active; 'I' for Inactive)
REMARK    1  A    between atoms: O1_2  and  C2_3 
REMARK    2  A    between atoms: C2_3  and  C3_4 
REMARK    3  A    between atoms: C3_4  and  O2_5 
REMARK    4  A    between atoms: C3_4  and  C4_7 
REMARK    5  A    between atoms: C4_7  and  C5_8 
REMARK    6  A    between atoms: C5_8  and  N1_9 
REMARK    7  A    between atoms: N1_9  and  C6_11 
REMARK    8  A    between atoms: C7_14  and  C8_15 
REMARK    9  A    between atoms: C8_15  and  C9_16 
REMARK   10  A    between atoms: C12_22  and  C13_23 
ROOT
HETATM    1  C6  UNL     1      12.026  66.065   4.480  1.00  0.00     0.131 A 
HETATM    2  N2  UNL     1      12.936  65.919   5.446  1.00  0.00    -0.341 N 
ATOM      3  H2  UNL     1      12.767  66.370   6.345  1.00  0.00     0.167 HD
HETATM    4  C7  UNL     1      14.081  65.192   5.284  1.00  0.00     0.036 A 
HETATM    5  C10 UNL     1      14.303  64.589   4.073  1.00  0.00     0.061 A 
HETATM    6  C11 UNL     1      13.399  64.701   3.031  1.00  0.00     0.066 A 
HETATM    7  N3  UNL     1      13.320  64.255   1.753  1.00  0.00    -0.340 N 
ATOM      8  H3  UNL     1      14.021  63.672   1.295  1.00  0.00     0.167 HD
HETATM    9  C12 UNL     1      12.201  64.683   1.181  1.00  0.00     0.123 A 
HETATM   10  N5  UNL     1      11.568  65.420   2.144  1.00  0.00    -0.337 N 
ATOM     11  H5  UNL     1      10.671  65.888   2.018  1.00  0.00     0.167 HD
HETATM   12  C17 UNL     1      12.276  65.441   3.261  1.00  0.00     0.105 A 
ENDROOT
BRANCH   1  13
HETATM   13  N1  UNL     1      10.987  66.749   4.594  1.00  0.00    -0.374 N 
ATOM     14  H1  UNL     1      10.225  66.271   5.074  1.00  0.00     0.161 HD
BRANCH  13  15
HETATM   15  C5  UNL     1      10.672  68.076   4.177  1.00  0.00     0.123 C 
BRANCH  15  16
HETATM   16  C4  UNL     1       9.163  68.168   4.137  1.00  0.00     0.053 C 
BRANCH  16  17
HETATM   17  C3  UNL     1       8.466  66.877   3.821  1.00  0.00     0.143 C 
BRANCH  17  18
HETATM   18  C2  UNL     1       7.016  66.838   4.105  1.00  0.00     0.198 C 
BRANCH  18  19
HETATM   19  O1  UNL     1       6.678  66.078   5.179  1.00  0.00    -0.393 OA
HETATM   20  C1  UNL     1       5.955  64.936   5.025  1.00  0.00     0.201 C 
ENDBRANCH  18  19
ENDBRANCH  17  18
BRANCH  17  21
HETATM   21  O2  UNL     1       8.787  66.448   2.537  1.00  0.00    -0.393 OA
ATOM     22  H2  UNL     1       9.230  65.608   2.522  1.00  0.00     0.210 HD
ENDBRANCH  17  21
ENDBRANCH  16  17
ENDBRANCH  15  16
ENDBRANCH  13  15
ENDBRANCH   1  13
BRANCH   4  23
HETATM   23  C8  UNL     1      15.004  65.095   6.417  1.00  0.00     0.037 C 
BRANCH  23  24
HETATM   24  C9  UNL     1      15.028  64.046   7.192  1.00  0.00     0.058 C 
HETATM   25 BR1  UNL     1      16.429  62.755   6.921  1.00  0.00    -0.064 Br
ENDBRANCH  23  24
ENDBRANCH   4  23
BRANCH   9  26
HETATM   26  C13 UNL     1      11.658  64.506  -0.159  1.00  0.00     0.099 A 
HETATM   27  C14 UNL     1      10.506  63.984  -0.501  1.00  0.00     0.098 A 
HETATM   28 BR2  UNL     1       9.212  63.304   0.717  1.00  0.00    -0.044 Br
HETATM   29  C15 UNL     1      10.331  63.988  -1.963  1.00  0.00     0.266 A 
HETATM   30  O3  UNL     1       9.327  63.550  -2.592  1.00  0.00    -0.267 OA
HETATM   31  N4  UNL     1      11.498  64.571  -2.512  1.00  0.00    -0.288 N 
HETATM   32  C16 UNL     1      12.335  64.901  -1.413  1.00  0.00     0.263 A 
ATOM     33  H4  UNL     1      11.698  64.724  -3.500  1.00  0.00     0.172 HD
HETATM   34  O4  UNL     1      13.475  65.439  -1.420  1.00  0.00    -0.267 OA
ENDBRANCH   9  26
TORSDOF 10
ENDMDL
MODEL 2
REMARK VINA RESULT: -8.161609547      1.544      2.105
REMARK  10 active torsions:
REMARK  status: ('A' for Active; 'I' for Inactive)
REMARK    1  A    between atoms: O1_2  and  C2_3 
REMARK    2  A    between atoms: C2_3  and  C3_4 
REMARK    3  A    between atoms: C3_4  and  O2_5 
REMARK    4  A    between atoms: C3_4  and  C4_7 
REMARK    5  A    between atoms: C4_7  and  C5_8 
REMARK    6  A    between atoms: C5_8  and  N1_9 
REMARK    7  A    between atoms: N1_9  and  C6_11 
REMARK    8  A    between atoms: C7_14  and  C8_15 
REMARK    9  A    between atoms: C8_15  and  C9_16 
REMARK   10  A    between atoms: C12_22  and  C13_23 
ROOT
HETATM    1  C6  UNL     1      12.335  66.510   4.266  1.00  0.00     0.131 A 
HETATM    2  N2  UNL     1      13.180  66.283   5.274  1.00  0.00    -0.341 N 
ATOM      3  H2  UNL     1      13.095  66.849   6.118  1.00  0.00     0.167 HD
HETATM    4  C7  UNL     1      14.152  65.324   5.226  1.00  0.00     0.036 A 
HETATM    5  C10 UNL     1      14.262  64.566   4.089  1.00  0.00     0.061 A 
HETATM    6  C11 UNL     1      13.417  64.751   3.009  1.00  0.00     0.066 A 
HETATM    7  N3  UNL     1      13.266  64.201   1.779  1.00  0.00    -0.340 N 
ATOM      8  H3  UNL     1      13.839  63.443   1.406  1.00  0.00     0.167 HD
HETATM    9  C12 UNL     1      12.269  64.788   1.127  1.00  0.00     0.123 A 
HETATM   10  N5  UNL     1      11.788  65.734   1.990  1.00  0.00    -0.337 N 
ATOM     11  H5  UNL     1      11.010  66.360   1.786  1.00  0.00     0.167 HD
HETATM   12  C17 UNL     1      12.468  65.726   3.125  1.00  0.00     0.105 A 
ENDROOT
BRANCH   1  13
HETATM   13  N1  UNL     1      11.459  67.401   4.275  1.00  0.00    -0.374 N 
ATOM     14  H1  UNL     1      11.822  68.344   4.147  1.00  0.00     0.161 HD
BRANCH  13  15
HETATM   15  C5  UNL     1      10.042  67.338   4.432  1.00  0.00     0.123 C 
BRANCH  15  16
HETATM   16  C4  UNL     1       9.512  68.718   4.113  1.00  0.00     0.053 C 
BRANCH  16  17
HETATM   17  C3  UNL     1       9.040  68.894   2.699  1.00  0.00     0.143 C 
BRANCH  17  18
HETATM   18  C2  UNL     1       8.980  70.286   2.205  1.00  0.00     0.198 C 
BRANCH  18  19
HETATM   19  O1  UNL     1       9.047  71.228   3.181  1.00  0.00    -0.393 OA
HETATM   20  C1  UNL     1       7.955  71.973   3.505  1.00  0.00     0.201 C 
ENDBRANCH  18  19
ENDBRANCH  17  18
BRANCH  17  21
HETATM   21  O2  UNL     1       9.723  68.035   1.843  1.00  0.00    -0.393 OA
ATOM     22  H2  UNL     1      10.203  67.354   2.300  1.00  0.00     0.210 HD
ENDBRANCH  17  21
ENDBRANCH  16  17
ENDBRANCH  15  16
ENDBRANCH  13  15
ENDBRANCH   1  13
BRANCH   4  23
HETATM   23  C8  UNL     1      15.018  65.158   6.396  1.00  0.00     0.037 C 
BRANCH  23  24
HETATM   24  C9  UNL     1      14.975  64.082   7.132  1.00  0.00     0.058 C 
HETATM   25 BR1  UNL     1      16.393  62.796   6.935  1.00  0.00    -0.064 Br
ENDBRANCH  23  24
ENDBRANCH   4  23
BRANCH   9  26
HETATM   26  C13 UNL     1      11.721  64.588  -0.207  1.00  0.00     0.099 A 
HETATM   27  C14 UNL     1      10.571  64.055  -0.537  1.00  0.00     0.098 A 
HETATM   28 BR2  UNL     1       9.286  63.387   0.697  1.00  0.00    -0.044 Br
HETATM   29  C15 UNL     1      10.390  64.035  -1.997  1.00  0.00     0.266 A 
HETATM   30  O3  UNL     1       9.386  63.583  -2.616  1.00  0.00    -0.267 OA
HETATM   31  N4  UNL     1      11.552  64.616  -2.560  1.00  0.00    -0.288 N 
HETATM   32  C16 UNL     1      12.392  64.967  -1.470  1.00  0.00     0.263 A 
ATOM     33  H4  UNL     1      11.747  64.755  -3.552  1.00  0.00     0.172 HD
HETATM   34  O4  UNL     1      13.529  65.510  -1.490  1.00  0.00    -0.267 OA
ENDBRANCH   9  26
TORSDOF 10
ENDMDL
MODEL 3
REMARK VINA RESULT: -7.720383311      3.387      5.872
REMARK  10 active torsions:
REMARK  status: ('A' for Active; 'I' for Inactive)
REMARK    1  A    between atoms: O1_2  and  C2_3 
REMARK    2  A    between atoms: C2_3  and  C3_4 
REMARK    3  A    between atoms: C3_4  and  O2_5 
REMARK    4  A    between atoms: C3_4  and  C4_7 
REMARK    5  A    between atoms: C4_7  and  C5_8 
REMARK    6  A    between atoms: C5_8  and  N1_9 
REMARK    7  A    between atoms: N1_9  and  C6_11 
REMARK    8  A    between atoms: C7_14  and  C8_15 
REMARK    9  A    between atoms: C8_15  and  C9_16 
REMARK   10  A    between atoms: C12_22  and  C13_23 
ROOT
HETATM    1  C6  UNL     1       7.190  63.694   3.450  1.00  0.00     0.131 A 
HETATM    2  N2  UNL     1       6.389  62.639   3.280  1.00  0.00    -0.341 N 
ATOM      3  H2  UNL     1       5.445  62.677   3.666  1.00  0.00     0.167 HD
HETATM    4  C7  UNL     1       6.777  61.513   2.613  1.00  0.00     0.036 A 
HETATM    5  C10 UNL     1       8.046  61.466   2.097  1.00  0.00     0.061 A 
HETATM    6  C11 UNL     1       8.925  62.526   2.238  1.00  0.00     0.066 A 
HETATM    7  N3  UNL     1      10.203  62.793   1.872  1.00  0.00    -0.340 N 
ATOM      8  H3  UNL     1      10.803  62.155   1.348  1.00  0.00     0.167 HD
HETATM    9  C12 UNL     1      10.563  64.000   2.289  1.00  0.00     0.123 A 
HETATM   10  N5  UNL     1       9.465  64.495   2.937  1.00  0.00    -0.337 N 
ATOM     11  H5  UNL     1       9.417  65.415   3.376  1.00  0.00     0.167 HD
HETATM   12  C17 UNL     1       8.472  63.621   2.916  1.00  0.00     0.105 A 
ENDROOT
BRANCH   1  13
HETATM   13  N1  UNL     1       6.868  64.722   4.083  1.00  0.00    -0.374 N 
ATOM     14  H1  UNL     1       7.177  64.727   5.054  1.00  0.00     0.161 HD
BRANCH  13  15
HETATM   15  C5  UNL     1       6.148  65.890   3.694  1.00  0.00     0.123 C 
BRANCH  15  16
HETATM   16  C4  UNL     1       6.666  67.022   4.553  1.00  0.00     0.053 C 
BRANCH  16  17
HETATM   17  C3  UNL     1       7.968  67.609   4.094  1.00  0.00     0.143 C 
BRANCH  17  18
HETATM   18  C2  UNL     1       8.142  69.059   4.325  1.00  0.00     0.198 C 
BRANCH  18  19
HETATM   19  O1  UNL     1       9.425  69.435   4.568  1.00  0.00    -0.393 OA
HETATM   20  C1  UNL     1      10.088  70.251   3.705  1.00  0.00     0.201 C 
ENDBRANCH  18  19
ENDBRANCH  17  18
BRANCH  17  21
HETATM   21  O2  UNL     1       9.038  66.847   4.552  1.00  0.00    -0.393 OA
ATOM     22  H2  UNL     1       8.770  66.040   4.975  1.00  0.00     0.210 HD
ENDBRANCH  17  21
ENDBRANCH  16  17
ENDBRANCH  15  16
ENDBRANCH  13  15
ENDBRANCH   1  13
BRANCH   4  23
HETATM   23  C8  UNL     1       5.810  60.420   2.482  1.00  0.00     0.037 C 
BRANCH  23  24
HETATM   24  C9  UNL     1       6.192  59.174   2.405  1.00  0.00     0.058 C 
HETATM   25 BR1  UNL     1       6.981  58.374   3.967  1.00  0.00    -0.064 Br
ENDBRANCH  23  24
ENDBRANCH   4  23
BRANCH   9  26
HETATM   26  C13 UNL     1      11.811  64.742   2.176  1.00  0.00     0.099 A 
HETATM   27  C14 UNL     1      12.450  65.087   1.085  1.00  0.00     0.098 A 
HETATM   28 BR2  UNL     1      11.879  64.686  -0.685  1.00  0.00    -0.044 Br
HETATM   29  C15 UNL     1      13.679  65.832   1.399  1.00  0.00     0.266 A 
HETATM   30  O3  UNL     1      14.504  66.294   0.560  1.00  0.00    -0.267 OA
HETATM   31  N4  UNL     1      13.751  65.925   2.810  1.00  0.00    -0.288 N 
HETATM   32  C16 UNL     1      12.604  65.257   3.314  1.00  0.00     0.263 A 
ATOM     33  H4  UNL     1      14.482  66.381   3.356  1.00  0.00     0.172 HD
HETATM   34  O4  UNL     1      12.249  65.087   4.511  1.00  0.00    -0.267 OA
ENDBRANCH   9  26
TORSDOF 10
ENDMDL
MODEL 4
REMARK VINA RESULT: -7.577090429      2.409      5.074
REMARK  10 active torsions:
REMARK  status: ('A' for Active; 'I' for Inactive)
REMARK    1  A    between atoms: O1_2  and  C2_3 
REMARK    2  A    between atoms: C2_3  and  C3_4 
REMARK    3  A    between atoms: C3_4  and  O2_5 
REMARK    4  A    between atoms: C3_4  and  C4_7 
REMARK    5  A    between atoms: C4_7  and  C5_8 
REMARK    6  A    between atoms: C5_8  and  N1_9 
REMARK    7  A    between atoms: N1_9  and  C6_11 
REMARK    8  A    between atoms: C7_14  and  C8_15 
REMARK    9  A    between atoms: C8_15  and  C9_16 
REMARK   10  A    between atoms: C12_22  and  C13_23 
ROOT
HETATM    1  C6  UNL     1      13.153  65.741   2.179  1.00  0.00     0.131 A 
HETATM    2  N2  UNL     1      14.047  65.032   2.872  1.00  0.00    -0.341 N 
ATOM      3  H2  UNL     1      14.707  64.446   2.360  1.00  0.00     0.167 HD
HETATM    4  C7  UNL     1      14.118  65.057   4.236  1.00  0.00     0.036 A 
HETATM    5  C10 UNL     1      13.229  65.845   4.919  1.00  0.00     0.061 A 
HETATM    6  C11 UNL     1      12.279  66.605   4.260  1.00  0.00     0.066 A 
HETATM    7  N3  UNL     1      11.282  67.452   4.619  1.00  0.00    -0.340 N 
ATOM      8  H3  UNL     1      11.050  67.704   5.581  1.00  0.00     0.167 HD
HETATM    9  C12 UNL     1      10.652  67.910   3.544  1.00  0.00     0.123 A 
HETATM   10  N5  UNL     1      11.285  67.322   2.483  1.00  0.00    -0.337 N 
ATOM     11  H5  UNL     1      11.036  67.471   1.506  1.00  0.00     0.167 HD
HETATM   12  C17 UNL     1      12.263  66.534   2.897  1.00  0.00     0.105 A 
ENDROOT
BRANCH   1  13
HETATM   13  N1  UNL     1      13.049  65.711   0.934  1.00  0.00    -0.374 N 
ATOM     14  H1  UNL     1      13.305  66.584   0.473  1.00  0.00     0.161 HD
BRANCH  13  15
HETATM   15  C5  UNL     1      12.639  64.679   0.040  1.00  0.00     0.123 C 
BRANCH  15  16
HETATM   16  C4  UNL     1      11.408  64.045   0.649  1.00  0.00     0.053 C 
BRANCH  16  17
HETATM   17  C3  UNL     1      10.107  64.548   0.095  1.00  0.00     0.143 C 
BRANCH  17  18
HETATM   18  C2  UNL     1       8.888  63.881   0.599  1.00  0.00     0.198 C 
BRANCH  18  19
HETATM   19  O1  UNL     1       9.067  62.580   0.948  1.00  0.00    -0.393 OA
HETATM   20  C1  UNL     1       8.155  61.935   1.726  1.00  0.00     0.201 C 
ENDBRANCH  18  19
ENDBRANCH  17  18
BRANCH  17  21
HETATM   21  O2  UNL     1      10.046  65.936   0.172  1.00  0.00    -0.393 OA
ATOM     22  H2  UNL     1      10.662  66.371  -0.406  1.00  0.00     0.210 HD
ENDBRANCH  17  21
ENDBRANCH  16  17
ENDBRANCH  15  16
ENDBRANCH  13  15
ENDBRANCH   1  13
BRANCH   4  23
HETATM   23  C8  UNL     1      15.146  64.243   4.889  1.00  0.00     0.037 C 
BRANCH  23  24
HETATM   24  C9  UNL     1      15.235  64.167   6.189  1.00  0.00     0.058 C 
HETATM   25 BR1  UNL     1      16.377  62.812   6.937  1.00  0.00    -0.064 Br
ENDBRANCH  23  24
ENDBRANCH   4  23
BRANCH   9  26
HETATM   26  C13 UNL     1       9.520  68.813   3.384  1.00  0.00     0.099 A 
HETATM   27  C14 UNL     1       8.263  68.504   3.182  1.00  0.00     0.098 A 
HETATM   28 BR2  UNL     1       7.584  66.732   3.045  1.00  0.00    -0.044 Br
HETATM   29  C15 UNL     1       7.428  69.711   3.074  1.00  0.00     0.266 A 
HETATM   30  O3  UNL     1       6.180  69.737   2.878  1.00  0.00    -0.267 OA
HETATM   31  N4  UNL     1       8.293  70.821   3.230  1.00  0.00    -0.288 N 
HETATM   32  C16 UNL     1       9.595  70.289   3.424  1.00  0.00     0.263 A 
ATOM     33  H4  UNL     1       8.032  71.807   3.208  1.00  0.00     0.172 HD
HETATM   34  O4  UNL     1      10.682  70.903   3.605  1.00  0.00    -0.267 OA
ENDBRANCH   9  26
TORSDOF 10
ENDMDL
MODEL 5
REMARK VINA RESULT: -7.513187398      2.207      5.843
REMARK  10 active torsions:
REMARK  status: ('A' for Active; 'I' for Inactive)
REMARK    1  A    between atoms: O1_2  and  C2_3 
REMARK    2  A    between atoms: C2_3  and  C3_4 
REMARK    3  A    between atoms: C3_4  and  O2_5 
REMARK    4  A    between atoms: C3_4  and  C4_7 
REMARK    5  A    between atoms: C4_7  and  C5_8 
REMARK    6  A    between atoms: C5_8  and  N1_9 
REMARK    7  A    between atoms: N1_9  and  C6_11 
REMARK    8  A    between atoms: C7_14  and  C8_15 
REMARK    9  A    between atoms: C8_15  and  C9_16 
REMARK   10  A    between atoms: C12_22  and  C13_23 
ROOT
HETATM    1  C6  UNL     1      13.092  65.718   2.255  1.00  0.00     0.131 A 
HETATM    2  N2  UNL     1      14.031  65.087   2.963  1.00  0.00    -0.341 N 
ATOM      3  H2  UNL     1      14.695  64.491   2.470  1.00  0.00     0.167 HD
HETATM    4  C7  UNL     1      14.142  65.204   4.320  1.00  0.00     0.036 A 
HETATM    5  C10 UNL     1      13.246  66.006   4.979  1.00  0.00     0.061 A 
HETATM    6  C11 UNL     1      12.250  66.687   4.303  1.00  0.00     0.066 A 
HETATM    7  N3  UNL     1      11.235  67.522   4.639  1.00  0.00    -0.340 N 
ATOM      8  H3  UNL     1      11.023  67.828   5.589  1.00  0.00     0.167 HD
HETATM    9  C12 UNL     1      10.556  67.886   3.557  1.00  0.00     0.123 A 
HETATM   10  N5  UNL     1      11.178  67.250   2.517  1.00  0.00    -0.337 N 
ATOM     11  H5  UNL     1      10.894  67.326   1.540  1.00  0.00     0.167 HD
HETATM   12  C17 UNL     1      12.196  66.525   2.949  1.00  0.00     0.105 A 
ENDROOT
BRANCH   1  13
HETATM   13  N1  UNL     1      12.952  65.602   1.019  1.00  0.00    -0.374 N 
ATOM     14  H1  UNL     1      13.102  66.466   0.500  1.00  0.00     0.161 HD
BRANCH  13  15
HETATM   15  C5  UNL     1      12.619  64.481   0.202  1.00  0.00     0.123 C 
BRANCH  15  16
HETATM   16  C4  UNL     1      11.334  64.835  -0.512  1.00  0.00     0.053 C 
BRANCH  16  17
HETATM   17  C3  UNL     1      11.433  64.840  -2.010  1.00  0.00     0.143 C 
BRANCH  17  18
HETATM   18  C2  UNL     1      10.267  64.296  -2.738  1.00  0.00     0.198 C 
BRANCH  18  19
HETATM   19  O1  UNL     1      10.415  63.009  -3.146  1.00  0.00    -0.393 OA
HETATM   20  C1  UNL     1      10.402  62.691  -4.469  1.00  0.00     0.201 C 
ENDBRANCH  18  19
ENDBRANCH  17  18
BRANCH  17  21
HETATM   21  O2  UNL     1      11.833  66.091  -2.470  1.00  0.00    -0.393 OA
ATOM     22  H2  UNL     1      11.900  66.741  -1.780  1.00  0.00     0.210 HD
ENDBRANCH  17  21
ENDBRANCH  16  17
ENDBRANCH  15  16
ENDBRANCH  13  15
ENDBRANCH   1  13
BRANCH   4  23
HETATM   23  C8  UNL     1      15.217  64.471   4.991  1.00  0.00     0.037 C 
BRANCH  23  24
HETATM   24  C9  UNL     1      15.202  64.261   6.279  1.00  0.00     0.058 C 
HETATM   25 BR1  UNL     1      16.333  62.871   6.980  1.00  0.00    -0.064 Br
ENDBRANCH  23  24
ENDBRANCH   4  23
BRANCH   9  26
HETATM   26  C13 UNL     1       9.389  68.737   3.375  1.00  0.00     0.099 A 
HETATM   27  C14 UNL     1       8.133  68.376   3.276  1.00  0.00     0.098 A 
HETATM   28 BR2  UNL     1       7.506  66.581   3.349  1.00  0.00    -0.044 Br
HETATM   29  C15 UNL     1       7.254  69.543   3.100  1.00  0.00     0.266 A 
HETATM   30  O3  UNL     1       5.997  69.515   2.973  1.00  0.00    -0.267 OA
HETATM   31  N4  UNL     1       8.089  70.686   3.099  1.00  0.00    -0.288 N 
HETATM   32  C16 UNL     1       9.417  70.212   3.268  1.00  0.00     0.263 A 
ATOM     33  H4  UNL     1       7.795  71.658   2.996  1.00  0.00     0.172 HD
HETATM   34  O4  UNL     1      10.491  70.870   3.327  1.00  0.00    -0.267 OA
ENDBRANCH   9  26
TORSDOF 10
ENDMDL
