MODEL 1
REMARK VINA RESULT: -9.267933882      0.000      0.000
REMARK  8 active torsions:
REMARK  status: ('A' for Active; 'I' for Inactive)
REMARK    1  A    between atoms: C2_2  and  N1_3 
REMARK    2  A    between atoms: C2_2  and  C19_30 
REMARK       I    between atoms: N1_3  and  C3_5 
REMARK    3  A    between atoms: C3_5  and  C4_7 
REMARK    4  A    between atoms: C4_7  and  C5_8 
REMARK    5  A    between atoms: C5_8  and  C6_9 
REMARK       I    between atoms: C6_9  and  N2_11 
REMARK    6  A    between atoms: N2_11  and  C7_13 
REMARK    7  A    between atoms: C7_13  and  C8_14 
REMARK    8  A    between atoms: C14_23  and  C15_24 
REMARK       I    between atoms: C19_30  and  N5_32 
ROOT
HETATM    1  C4  UNL     1       8.865  64.996   1.802  1.00  0.00     0.140 C 
HETATM    2  N3  UNL     1       8.022  65.136   2.947  1.00  0.00    -0.127 NA
HETATM    3  N4  UNL     1       8.157  66.469   3.325  1.00  0.00    -0.136 NA
HETATM    4  C14 UNL     1       8.216  67.239   2.096  1.00  0.00     0.173 C 
HETATM    5  C17 UNL     1       9.045  66.336   1.185  1.00  0.00     0.044 C 
HETATM    6  C18 UNL     1       8.638  66.554  -0.211  1.00  0.00     0.014 C 
ENDROOT
BRANCH   1   7
HETATM    7  C3  UNL     1      10.249  64.677   2.366  1.00  0.00     0.245 C 
HETATM    8  N1  UNL     1      11.340  65.565   2.230  1.00  0.00    -0.346 N 
ATOM      9  H1  UNL     1      11.204  66.447   1.738  1.00  0.00     0.163 HD
HETATM   10  O1  UNL     1      10.458  63.589   2.982  1.00  0.00    -0.271 OA
BRANCH   8  11
HETATM   11  C2  UNL     1      12.655  65.249   2.775  1.00  0.00     0.172 C 
HETATM   12  C1  UNL     1      13.702  65.950   1.958  1.00  0.00     0.042 C 
BRANCH  11  13
HETATM   13  C19 UNL     1      12.732  65.679   4.171  1.00  0.00     0.242 C 
HETATM   14  O4  UNL     1      11.786  66.406   4.628  1.00  0.00    -0.271 OA
HETATM   15  N5  UNL     1      13.778  65.349   5.067  1.00  0.00    -0.350 N 
HETATM   16  C20 UNL     1      13.748  65.835   6.412  1.00  0.00     0.126 C 
HETATM   17  C24 UNL     1      14.860  64.505   4.572  1.00  0.00     0.126 C 
HETATM   18  C21 UNL     1      14.368  64.886   7.420  1.00  0.00     0.020 C 
HETATM   19  C22 UNL     1      15.671  64.396   6.867  1.00  0.00     0.003 C 
HETATM   20  C23 UNL     1      15.335  63.532   5.649  1.00  0.00     0.020 C 
ENDBRANCH  11  13
ENDBRANCH   8  11
ENDBRANCH   1   7
BRANCH   1  21
HETATM   21  C5  UNL     1       8.547  63.854   0.928  1.00  0.00     0.141 C 
BRANCH  21  22
HETATM   22  C6  UNL     1       7.476  62.947   1.310  1.00  0.00     0.220 C 
HETATM   23  O2  UNL     1       6.540  62.717   0.515  1.00  0.00    -0.274 OA
HETATM   24  N2  UNL     1       7.431  62.294   2.565  1.00  0.00    -0.359 N 
ATOM     25  H2  UNL     1       8.203  62.483   3.203  1.00  0.00     0.162 HD
BRANCH  24  26
HETATM   26  C7  UNL     1       6.422  61.398   3.034  1.00  0.00     0.155 C 
BRANCH  26  27
HETATM   27  C8  UNL     1       6.700  59.997   2.595  1.00  0.00     0.156 C 
HETATM   28  C9  UNL     1       7.048  59.200   3.831  1.00  0.00     0.035 C 
HETATM   29  C10 UNL     1       7.413  57.804   3.780  1.00  0.00     0.004 C 
HETATM   30  C11 UNL     1       6.368  56.700   3.791  1.00  0.00     0.013 C 
HETATM   31  C12 UNL     1       5.390  56.855   2.579  1.00  0.00     0.112 C 
HETATM   32  C13 UNL     1       5.477  58.196   2.180  1.00  0.00    -0.027 C 
HETATM   33  O3  UNL     1       5.590  59.447   1.867  1.00  0.00    -0.308 OA
ENDBRANCH  26  27
ENDBRANCH  24  26
ENDBRANCH  21  22
ENDBRANCH   1  21
BRANCH   4  34
HETATM   34  C15 UNL     1       8.937  68.537   2.368  1.00  0.00     0.259 C 
HETATM   35  C16 UNL     1       8.349  69.226   3.581  1.00  0.00     0.092 C 
HETATM   36  F1  UNL     1      10.285  68.313   2.588  1.00  0.00    -0.205 F 
HETATM   37  F2  UNL     1       8.830  69.395   1.291  1.00  0.00    -0.205 F 
ENDBRANCH   4  34
TORSDOF 8
ENDMDL
MODEL 2
REMARK VINA RESULT: -8.923375341      2.425      8.142
REMARK  8 active torsions:
REMARK  status: ('A' for Active; 'I' for Inactive)
REMARK    1  A    between atoms: C2_2  and  N1_3 
REMARK    2  A    between atoms: C2_2  and  C19_30 
REMARK       I    between atoms: N1_3  and  C3_5 
REMARK    3  A    between atoms: C3_5  and  C4_7 
REMARK    4  A    between atoms: C4_7  and  C5_8 
REMARK    5  A    between atoms: C5_8  and  C6_9 
REMARK       I    between atoms: C6_9  and  N2_11 
REMARK    6  A    between atoms: N2_11  and  C7_13 
REMARK    7  A    between atoms: C7_13  and  C8_14 
REMARK    8  A    between atoms: C14_23  and  C15_24 
REMARK       I    between atoms: C19_30  and  N5_32 
ROOT
HETATM    1  C4  UNL     1       9.103  64.362   1.852  1.00  0.00     0.140 C 
HETATM    2  N3  UNL     1       9.799  63.656   0.823  1.00  0.00    -0.127 NA
HETATM    3  N4  UNL     1       8.809  63.280  -0.079  1.00  0.00    -0.136 NA
HETATM    4  C14 UNL     1       7.882  64.393  -0.159  1.00  0.00     0.173 C 
HETATM    5  C17 UNL     1       7.828  64.877   1.288  1.00  0.00     0.044 C 
HETATM    6  C18 UNL     1       7.557  66.322   1.306  1.00  0.00     0.014 C 
ENDROOT
BRANCH   1   7
HETATM    7  C3  UNL     1       8.646  63.281   2.832  1.00  0.00     0.245 C 
HETATM    8  N1  UNL     1       7.299  62.865   2.919  1.00  0.00    -0.346 N 
ATOM      9  H1  UNL     1       6.604  63.297   2.309  1.00  0.00     0.163 HD
HETATM   10  O1  UNL     1       9.478  62.721   3.607  1.00  0.00    -0.271 OA
BRANCH   8  11
HETATM   11  C2  UNL     1       6.876  61.832   3.856  1.00  0.00     0.172 C 
HETATM   12  C1  UNL     1       6.229  62.485   5.043  1.00  0.00     0.042 C 
BRANCH  11  13
HETATM   13  C19 UNL     1       5.935  60.922   3.204  1.00  0.00     0.242 C 
HETATM   14  O4  UNL     1       5.060  61.425   2.420  1.00  0.00    -0.271 OA
HETATM   15  N5  UNL     1       5.915  59.515   3.371  1.00  0.00    -0.350 N 
HETATM   16  C20 UNL     1       4.938  58.727   2.685  1.00  0.00     0.126 C 
HETATM   17  C24 UNL     1       6.915  58.918   4.249  1.00  0.00     0.126 C 
HETATM   18  C21 UNL     1       5.431  57.347   2.292  1.00  0.00     0.020 C 
HETATM   19  C22 UNL     1       6.135  56.745   3.469  1.00  0.00     0.003 C 
HETATM   20  C23 UNL     1       7.399  57.578   3.699  1.00  0.00     0.020 C 
ENDBRANCH  11  13
ENDBRANCH   8  11
ENDBRANCH   1   7
BRANCH   1  21
HETATM   21  C5  UNL     1       9.935  65.270   2.660  1.00  0.00     0.141 C 
BRANCH  21  22
HETATM   22  C6  UNL     1      11.363  65.345   2.396  1.00  0.00     0.220 C 
HETATM   23  O2  UNL     1      11.817  66.258   1.675  1.00  0.00    -0.274 OA
HETATM   24  N2  UNL     1      12.293  64.415   2.921  1.00  0.00    -0.359 N 
ATOM     25  H2  UNL     1      11.913  63.677   3.513  1.00  0.00     0.162 HD
BRANCH  24  26
HETATM   26  C7  UNL     1      13.706  64.398   2.712  1.00  0.00     0.155 C 
BRANCH  26  27
HETATM   27  C8  UNL     1      14.433  64.908   3.913  1.00  0.00     0.156 C 
HETATM   28  C9  UNL     1      13.395  65.426   4.881  1.00  0.00     0.035 C 
HETATM   29  C10 UNL     1      13.741  66.031   6.145  1.00  0.00     0.004 C 
HETATM   30  C11 UNL     1      13.980  65.199   7.395  1.00  0.00     0.013 C 
HETATM   31  C12 UNL     1      15.141  64.176   7.161  1.00  0.00     0.112 C 
HETATM   32  C13 UNL     1      15.241  64.013   5.773  1.00  0.00    -0.027 C 
HETATM   33  O3  UNL     1      15.276  63.893   4.485  1.00  0.00    -0.308 OA
ENDBRANCH  26  27
ENDBRANCH  24  26
ENDBRANCH  21  22
ENDBRANCH   1  21
BRANCH   4  34
HETATM   34  C15 UNL     1       6.535  63.877  -0.604  1.00  0.00     0.259 C 
HETATM   35  C16 UNL     1       6.046  64.644  -1.813  1.00  0.00     0.092 C 
HETATM   36  F1  UNL     1       6.606  62.532  -0.925  1.00  0.00    -0.205 F 
HETATM   37  F2  UNL     1       5.598  64.014   0.401  1.00  0.00    -0.205 F 
ENDBRANCH   4  34
TORSDOF 8
ENDMDL
MODEL 3
REMARK VINA RESULT: -8.773442916      1.422      2.141
REMARK  8 active torsions:
REMARK  status: ('A' for Active; 'I' for Inactive)
REMARK    1  A    between atoms: C2_2  and  N1_3 
REMARK    2  A    between atoms: C2_2  and  C19_30 
REMARK       I    between atoms: N1_3  and  C3_5 
REMARK    3  A    between atoms: C3_5  and  C4_7 
REMARK    4  A    between atoms: C4_7  and  C5_8 
REMARK    5  A    between atoms: C5_8  and  C6_9 
REMARK       I    between atoms: C6_9  and  N2_11 
REMARK    6  A    between atoms: N2_11  and  C7_13 
REMARK    7  A    between atoms: C7_13  and  C8_14 
REMARK    8  A    between atoms: C14_23  and  C15_24 
REMARK       I    between atoms: C19_30  and  N5_32 
ROOT
HETATM    1  C4  UNL     1       9.054  64.815   1.673  1.00  0.00     0.140 C 
HETATM    2  N3  UNL     1       8.155  64.707   2.778  1.00  0.00    -0.127 NA
HETATM    3  N4  UNL     1       8.097  65.991   3.314  1.00  0.00    -0.136 NA
HETATM    4  C14 UNL     1       8.104  66.906   2.187  1.00  0.00     0.173 C 
HETATM    5  C17 UNL     1       9.081  66.232   1.226  1.00  0.00     0.044 C 
HETATM    6  C18 UNL     1       8.706  66.565  -0.156  1.00  0.00     0.014 C 
ENDROOT
BRANCH   1   7
HETATM    7  C3  UNL     1      10.444  64.607   2.274  1.00  0.00     0.245 C 
HETATM    8  N1  UNL     1      11.505  65.511   2.047  1.00  0.00    -0.346 N 
ATOM      9  H1  UNL     1      11.343  66.331   1.463  1.00  0.00     0.163 HD
HETATM   10  O1  UNL     1      10.685  63.599   3.004  1.00  0.00    -0.271 OA
BRANCH   8  11
HETATM   11  C2  UNL     1      12.826  65.302   2.628  1.00  0.00     0.172 C 
HETATM   12  C1  UNL     1      13.841  66.055   1.816  1.00  0.00     0.042 C 
BRANCH  11  13
HETATM   13  C19 UNL     1      12.840  65.768   4.014  1.00  0.00     0.242 C 
HETATM   14  O4  UNL     1      11.896  66.539   4.398  1.00  0.00    -0.271 OA
HETATM   15  N5  UNL     1      13.823  65.429   4.976  1.00  0.00    -0.350 N 
HETATM   16  C20 UNL     1      13.736  65.954   6.304  1.00  0.00     0.126 C 
HETATM   17  C24 UNL     1      14.902  64.537   4.564  1.00  0.00     0.126 C 
HETATM   18  C21 UNL     1      14.267  65.014   7.370  1.00  0.00     0.020 C 
HETATM   19  C22 UNL     1      15.580  64.467   6.904  1.00  0.00     0.003 C 
HETATM   20  C23 UNL     1      15.283  63.580   5.691  1.00  0.00     0.020 C 
ENDBRANCH  11  13
ENDBRANCH   8  11
ENDBRANCH   1   7
BRANCH   1  21
HETATM   21  C5  UNL     1       8.925  63.757   0.657  1.00  0.00     0.141 C 
BRANCH  21  22
HETATM   22  C6  UNL     1       8.140  62.571   0.965  1.00  0.00     0.220 C 
HETATM   23  O2  UNL     1       7.145  62.284   0.267  1.00  0.00    -0.274 OA
HETATM   24  N2  UNL     1       8.447  61.703   2.040  1.00  0.00    -0.359 N 
ATOM     25  H2  UNL     1       9.266  61.943   2.598  1.00  0.00     0.162 HD
BRANCH  24  26
HETATM   26  C7  UNL     1       7.736  60.526   2.427  1.00  0.00     0.155 C 
BRANCH  26  27
HETATM   27  C8  UNL     1       6.696  60.839   3.452  1.00  0.00     0.156 C 
HETATM   28  C9  UNL     1       7.281  61.876   4.383  1.00  0.00     0.035 C 
HETATM   29  C10 UNL     1       6.563  62.391   5.525  1.00  0.00     0.004 C 
HETATM   30  C11 UNL     1       5.594  63.557   5.405  1.00  0.00     0.013 C 
HETATM   31  C12 UNL     1       4.452  63.221   4.390  1.00  0.00     0.112 C 
HETATM   32  C13 UNL     1       4.949  62.198   3.571  1.00  0.00    -0.027 C 
HETATM   33  O3  UNL     1       5.468  61.266   2.838  1.00  0.00    -0.308 OA
ENDBRANCH  26  27
ENDBRANCH  24  26
ENDBRANCH  21  22
ENDBRANCH   1  21
BRANCH   4  34
HETATM   34  C15 UNL     1       8.637  68.242   2.647  1.00  0.00     0.259 C 
HETATM   35  C16 UNL     1       8.290  68.478   4.101  1.00  0.00     0.092 C 
HETATM   36  F1  UNL     1      10.011  68.300   2.499  1.00  0.00    -0.205 F 
HETATM   37  F2  UNL     1       8.096  69.270   1.902  1.00  0.00    -0.205 F 
ENDBRANCH   4  34
TORSDOF 8
ENDMDL
MODEL 4
REMARK VINA RESULT: -8.724907256      2.895      5.887
REMARK  8 active torsions:
REMARK  status: ('A' for Active; 'I' for Inactive)
REMARK    1  A    between atoms: C2_2  and  N1_3 
REMARK    2  A    between atoms: C2_2  and  C19_30 
REMARK       I    between atoms: N1_3  and  C3_5 
REMARK    3  A    between atoms: C3_5  and  C4_7 
REMARK    4  A    between atoms: C4_7  and  C5_8 
REMARK    5  A    between atoms: C5_8  and  C6_9 
REMARK       I    between atoms: C6_9  and  N2_11 
REMARK    6  A    between atoms: N2_11  and  C7_13 
REMARK    7  A    between atoms: C7_13  and  C8_14 
REMARK    8  A    between atoms: C14_23  and  C15_24 
REMARK       I    between atoms: C19_30  and  N5_32 
ROOT
HETATM    1  C4  UNL     1       9.418  65.093   2.200  1.00  0.00     0.140 C 
HETATM    2  N3  UNL     1      10.002  63.824   2.499  1.00  0.00    -0.127 NA
HETATM    3  N4  UNL     1      11.312  64.115   2.867  1.00  0.00    -0.136 NA
HETATM    4  C14 UNL     1      11.256  65.336   3.649  1.00  0.00     0.173 C 
HETATM    5  C17 UNL     1      10.187  66.144   2.916  1.00  0.00     0.044 C 
HETATM    6  C18 UNL     1       9.500  67.019   3.877  1.00  0.00     0.014 C 
ENDROOT
BRANCH   1   7
HETATM    7  C3  UNL     1       9.756  65.347   0.731  1.00  0.00     0.245 C 
HETATM    8  N1  UNL     1      10.962  64.900   0.147  1.00  0.00    -0.346 N 
ATOM      9  H1  UNL     1      11.634  64.392   0.722  1.00  0.00     0.163 HD
HETATM   10  O1  UNL     1       8.947  65.977  -0.015  1.00  0.00    -0.271 OA
BRANCH   8  11
HETATM   11  C2  UNL     1      11.271  65.148  -1.256  1.00  0.00     0.172 C 
HETATM   12  C1  UNL     1      12.762  65.131  -1.437  1.00  0.00     0.042 C 
BRANCH  11  13
HETATM   13  C19 UNL     1      10.648  64.123  -2.092  1.00  0.00     0.242 C 
HETATM   14  O4  UNL     1      10.803  62.899  -1.757  1.00  0.00    -0.271 OA
HETATM   15  N5  UNL     1       9.876  64.378  -3.252  1.00  0.00    -0.350 N 
HETATM   16  C20 UNL     1       9.321  63.289  -3.996  1.00  0.00     0.126 C 
HETATM   17  C24 UNL     1       9.671  65.769  -3.643  1.00  0.00     0.126 C 
HETATM   18  C21 UNL     1       7.989  63.609  -4.648  1.00  0.00     0.020 C 
HETATM   19  C22 UNL     1       8.099  64.946  -5.313  1.00  0.00     0.003 C 
HETATM   20  C23 UNL     1       8.265  65.981  -4.198  1.00  0.00     0.020 C 
ENDBRANCH  11  13
ENDBRANCH   8  11
ENDBRANCH   1   7
BRANCH   1  21
HETATM   21  C5  UNL     1       7.947  65.134   2.256  1.00  0.00     0.141 C 
BRANCH  21  22
HETATM   22  C6  UNL     1       7.242  64.153   3.068  1.00  0.00     0.220 C 
HETATM   23  O2  UNL     1       6.695  64.503   4.134  1.00  0.00    -0.274 OA
HETATM   24  N2  UNL     1       7.141  62.787   2.709  1.00  0.00    -0.359 N 
ATOM     25  H2  UNL     1       7.586  62.513   1.834  1.00  0.00     0.162 HD
BRANCH  24  26
HETATM   26  C7  UNL     1       6.484  61.751   3.440  1.00  0.00     0.155 C 
BRANCH  26  27
HETATM   27  C8  UNL     1       6.728  60.415   2.817  1.00  0.00     0.156 C 
HETATM   28  C9  UNL     1       7.088  59.459   3.930  1.00  0.00     0.035 C 
HETATM   29  C10 UNL     1       7.427  58.076   3.690  1.00  0.00     0.004 C 
HETATM   30  C11 UNL     1       6.363  56.996   3.582  1.00  0.00     0.013 C 
HETATM   31  C12 UNL     1       5.363  57.321   2.424  1.00  0.00     0.112 C 
HETATM   32  C13 UNL     1       5.465  58.701   2.200  1.00  0.00    -0.027 C 
HETATM   33  O3  UNL     1       5.593  59.980   2.049  1.00  0.00    -0.308 OA
ENDBRANCH  26  27
ENDBRANCH  24  26
ENDBRANCH  21  22
ENDBRANCH   1  21
BRANCH   4  34
HETATM   34  C15 UNL     1      12.597  66.026   3.574  1.00  0.00     0.259 C 
HETATM   35  C16 UNL     1      13.717  65.032   3.797  1.00  0.00     0.092 C 
HETATM   36  F1  UNL     1      12.771  66.628   2.340  1.00  0.00    -0.205 F 
HETATM   37  F2  UNL     1      12.699  67.011   4.535  1.00  0.00    -0.205 F 
ENDBRANCH   4  34
TORSDOF 8
ENDMDL
MODEL 5
REMARK VINA RESULT: -8.707505953      3.325      7.518
REMARK  8 active torsions:
REMARK  status: ('A' for Active; 'I' for Inactive)
REMARK    1  A    between atoms: C2_2  and  N1_3 
REMARK    2  A    between atoms: C2_2  and  C19_30 
REMARK       I    between atoms: N1_3  and  C3_5 
REMARK    3  A    between atoms: C3_5  and  C4_7 
REMARK    4  A    between atoms: C4_7  and  C5_8 
REMARK    5  A    between atoms: C5_8  and  C6_9 
REMARK       I    between atoms: C6_9  and  N2_11 
REMARK    6  A    between atoms: N2_11  and  C7_13 
REMARK    7  A    between atoms: C7_13  and  C8_14 
REMARK    8  A    between atoms: C14_23  and  C15_24 
REMARK       I    between atoms: C19_30  and  N5_32 
ROOT
HETATM    1  C4  UNL     1       8.350  63.445   1.781  1.00  0.00     0.140 C 
HETATM    2  N3  UNL     1       9.346  63.199   2.775  1.00  0.00    -0.127 NA
HETATM    3  N4  UNL     1       8.673  62.531   3.794  1.00  0.00    -0.136 NA
HETATM    4  C14 UNL     1       7.743  61.625   3.145  1.00  0.00     0.173 C 
HETATM    5  C17 UNL     1       7.256  62.453   1.957  1.00  0.00     0.044 C 
HETATM    6  C18 UNL     1       6.909  61.551   0.849  1.00  0.00     0.014 C 
ENDROOT
BRANCH   1   7
HETATM    7  C3  UNL     1       7.698  64.765   2.193  1.00  0.00     0.245 C 
HETATM    8  N1  UNL     1       7.665  65.202   3.536  1.00  0.00    -0.346 N 
ATOM      9  H1  UNL     1       8.088  64.620   4.259  1.00  0.00     0.163 HD
HETATM   10  O1  UNL     1       7.161  65.516   1.324  1.00  0.00    -0.271 OA
BRANCH   8  11
HETATM   11  C2  UNL     1       7.042  66.465   3.915  1.00  0.00     0.172 C 
HETATM   12  C1  UNL     1       6.172  66.238   5.117  1.00  0.00     0.042 C 
BRANCH  11  13
HETATM   13  C19 UNL     1       8.073  67.458   4.217  1.00  0.00     0.242 C 
HETATM   14  O4  UNL     1       9.223  67.037   4.582  1.00  0.00    -0.271 OA
HETATM   15  N5  UNL     1       7.899  68.861   4.134  1.00  0.00    -0.350 N 
HETATM   16  C20 UNL     1       8.981  69.737   4.462  1.00  0.00     0.126 C 
HETATM   17  C24 UNL     1       6.598  69.364   3.703  1.00  0.00     0.126 C 
HETATM   18  C21 UNL     1       8.997  71.021   3.654  1.00  0.00     0.020 C 
HETATM   19  C22 UNL     1       7.608  71.580   3.631  1.00  0.00     0.003 C 
HETATM   20  C23 UNL     1       6.753  70.601   2.822  1.00  0.00     0.020 C 
ENDBRANCH  11  13
ENDBRANCH   8  11
ENDBRANCH   1   7
BRANCH   1  21
HETATM   21  C5  UNL     1       8.866  63.691   0.425  1.00  0.00     0.141 C 
BRANCH  21  22
HETATM   22  C6  UNL     1      10.305  63.696   0.206  1.00  0.00     0.220 C 
HETATM   23  O2  UNL     1      10.813  62.907  -0.618  1.00  0.00    -0.274 OA
HETATM   24  N2  UNL     1      11.185  64.567   0.892  1.00  0.00    -0.359 N 
ATOM     25  H2  UNL     1      10.759  65.212   1.558  1.00  0.00     0.162 HD
BRANCH  24  26
HETATM   26  C7  UNL     1      12.605  64.641   0.755  1.00  0.00     0.155 C 
BRANCH  26  27
HETATM   27  C8  UNL     1      13.205  65.494   1.824  1.00  0.00     0.156 C 
HETATM   28  C9  UNL     1      12.299  65.405   3.031  1.00  0.00     0.035 C 
HETATM   29  C10 UNL     1      12.551  66.138   4.249  1.00  0.00     0.004 C 
HETATM   30  C11 UNL     1      13.466  65.598   5.336  1.00  0.00     0.013 C 
HETATM   31  C12 UNL     1      14.903  65.346   4.771  1.00  0.00     0.112 C 
HETATM   32  C13 UNL     1      14.757  65.222   3.382  1.00  0.00    -0.027 C 
HETATM   33  O3  UNL     1      14.558  65.102   2.109  1.00  0.00    -0.308 OA
ENDBRANCH  26  27
ENDBRANCH  24  26
ENDBRANCH  21  22
ENDBRANCH   1  21
BRANCH   4  34
HETATM   34  C15 UNL     1       6.607  61.328   4.095  1.00  0.00     0.259 C 
HETATM   35  C16 UNL     1       6.683  62.230   5.308  1.00  0.00     0.092 C 
HETATM   36  F1  UNL     1       5.385  61.516   3.473  1.00  0.00    -0.205 F 
HETATM   37  F2  UNL     1       6.656  60.018   4.528  1.00  0.00    -0.205 F 
ENDBRANCH   4  34
TORSDOF 8
ENDMDL
