MODEL 1
REMARK VINA RESULT: -7.713474453      0.000      0.000
REMARK  9 active torsions:
REMARK  status: ('A' for Active; 'I' for Inactive)
REMARK    1  A    between atoms: S1_2  and  C2_4 
REMARK    2  A    between atoms: C2_4  and  C3_5 
REMARK    3  A    between atoms: C3_5  and  C4_6 
REMARK    4  A    between atoms: C10_16  and  O2_17 
REMARK    5  A    between atoms: C11_19  and  C12_20 
REMARK    6  A    between atoms: C12_20  and  C13_21 
REMARK    7  A    between atoms: C16_26  and  C17_27 
REMARK    8  A    between atoms: C17_27  and  C18_28 
REMARK    9  A    between atoms: C19_31  and  O5_32 
ROOT
HETATM    1  C4  UNL     1      11.196  66.471   3.859  1.00  0.00     0.049 C 
HETATM    2  C5  UNL     1      11.244  67.746   3.123  1.00  0.00     0.143 C 
HETATM    3  C6  UNL     1      10.008  68.658   3.428  1.00  0.00     0.249 C 
HETATM    4  F1  UNL     1      10.209  69.888   2.881  1.00  0.00    -0.206 F 
HETATM    5  F2  UNL     1       9.943  68.696   4.810  1.00  0.00    -0.206 F 
HETATM    6  C7  UNL     1       8.836  67.914   2.885  1.00  0.00     0.081 C 
HETATM    7  C8  UNL     1       7.504  68.568   2.988  1.00  0.00     0.025 C 
HETATM    8  C9  UNL     1       6.443  67.530   2.567  1.00  0.00     0.121 C 
HETATM    9  N1  UNL     1       7.015  66.210   2.533  1.00  0.00    -0.373 N 
ATOM     10  H1  UNL     1       7.856  66.128   1.963  1.00  0.00     0.161 HD
HETATM   11  C10 UNL     1       6.612  65.013   3.152  1.00  0.00     0.134 C 
HETATM   12  C11 UNL     1       5.482  64.132   2.883  1.00  0.00     0.156 C 
HETATM   13  N2  UNL     1       6.054  62.751   3.012  1.00  0.00    -0.377 N 
ATOM     14  H2  UNL     1       6.181  62.256   3.895  1.00  0.00     0.160 HD
HETATM   15  C16 UNL     1       6.397  62.226   1.734  1.00  0.00     0.067 C 
HETATM   16  C19 UNL     1       7.549  62.742   1.026  1.00  0.00     0.159 C 
HETATM   17  N3  UNL     1       8.920  62.478   1.095  1.00  0.00    -0.369 N 
ATOM     18  H3  UNL     1       9.284  61.936   0.311  1.00  0.00     0.161 HD
HETATM   19  C20 UNL     1       9.910  62.838   2.083  1.00  0.00     0.123 C 
HETATM   20  C21 UNL     1      11.019  63.714   1.554  1.00  0.00     0.046 C 
HETATM   21  C22 UNL     1      10.863  65.182   1.915  1.00  0.00     0.176 C 
HETATM   22  O6  UNL     1      10.557  65.415   3.206  1.00  0.00    -0.355 OA
ENDROOT
BRANCH   1  23
HETATM   23  C3  UNL     1      12.424  65.968   4.544  1.00  0.00     0.018 C 
BRANCH  23  24
HETATM   24  C2  UNL     1      13.668  65.777   3.872  1.00  0.00     0.138 C 
BRANCH  24  25
HETATM   25  S1  UNL     1      14.755  64.713   4.830  1.00  0.00     0.014 S 
HETATM   26  C1  UNL     1      15.192  64.581   5.977  1.00  0.00     0.127 C 
HETATM   27  O1  UNL     1      14.854  64.057   3.413  1.00  0.00    -0.258 OA
ENDBRANCH  24  25
ENDBRANCH  23  24
ENDBRANCH   1  23
BRANCH  16  28
HETATM   28  O5  UNL     1       7.276  63.650   0.121  1.00  0.00    -0.345 OA
ATOM     29  H5  UNL     1       6.639  63.383  -0.531  1.00  0.00     0.219 HD
ENDBRANCH  16  28
BRANCH  11  30
HETATM   30  O2  UNL     1       7.371  64.609   4.129  1.00  0.00    -0.348 OA
ATOM     31  H2  UNL     1       7.059  63.842   4.594  1.00  0.00     0.219 HD
ENDBRANCH  11  30
BRANCH  15  32
HETATM   32  C17 UNL     1       6.225  60.726   1.744  1.00  0.00     0.174 C 
BRANCH  32  33
HETATM   33  C18 UNL     1       6.834  59.996   2.833  1.00  0.00     0.178 C 
HETATM   34  O3  UNL     1       6.202  59.529   3.790  1.00  0.00    -0.648 OA
HETATM   35  O4  UNL     1       8.207  59.793   2.826  1.00  0.00    -0.648 OA
ENDBRANCH  32  33
ENDBRANCH  15  32
BRANCH  12  36
HETATM   36  C12 UNL     1       4.227  64.314   3.607  1.00  0.00     0.037 C 
BRANCH  36  37
HETATM   37  C13 UNL     1       3.811  63.446   4.717  1.00  0.00    -0.020 C 
HETATM   38  C14 UNL     1       2.254  63.550   4.899  1.00  0.00     0.009 C 
HETATM   39  C15 UNL     1       4.409  63.910   6.049  1.00  0.00     0.009 C 
ENDBRANCH  36  37
ENDBRANCH  12  36
TORSDOF 9
ENDMDL
MODEL 2
REMARK VINA RESULT: -7.438956308      0.935      1.007
REMARK  9 active torsions:
REMARK  status: ('A' for Active; 'I' for Inactive)
REMARK    1  A    between atoms: S1_2  and  C2_4 
REMARK    2  A    between atoms: C2_4  and  C3_5 
REMARK    3  A    between atoms: C3_5  and  C4_6 
REMARK    4  A    between atoms: C10_16  and  O2_17 
REMARK    5  A    between atoms: C11_19  and  C12_20 
REMARK    6  A    between atoms: C12_20  and  C13_21 
REMARK    7  A    between atoms: C16_26  and  C17_27 
REMARK    8  A    between atoms: C17_27  and  C18_28 
REMARK    9  A    between atoms: C19_31  and  O5_32 
ROOT
HETATM    1  C4  UNL     1      11.115  66.366   3.518  1.00  0.00     0.049 C 
HETATM    2  C5  UNL     1      11.016  67.681   2.863  1.00  0.00     0.143 C 
HETATM    3  C6  UNL     1       9.838  68.544   3.429  1.00  0.00     0.249 C 
HETATM    4  F1  UNL     1       9.923  69.807   2.931  1.00  0.00    -0.206 F 
HETATM    5  F2  UNL     1      10.013  68.502   4.802  1.00  0.00    -0.206 F 
HETATM    6  C7  UNL     1       8.601  67.802   3.052  1.00  0.00     0.081 C 
HETATM    7  C8  UNL     1       7.298  68.416   3.422  1.00  0.00     0.025 C 
HETATM    8  C9  UNL     1       6.195  67.378   3.127  1.00  0.00     0.121 C 
HETATM    9  N1  UNL     1       6.771  66.075   2.917  1.00  0.00    -0.373 N 
ATOM     10  H1  UNL     1       7.503  66.047   2.206  1.00  0.00     0.161 HD
HETATM   11  C10 UNL     1       6.500  64.836   3.522  1.00  0.00     0.134 C 
HETATM   12  C11 UNL     1       5.354  63.943   3.398  1.00  0.00     0.156 C 
HETATM   13  N2  UNL     1       5.960  62.572   3.344  1.00  0.00    -0.377 N 
ATOM     14  H2  UNL     1       6.244  62.032   4.161  1.00  0.00     0.160 HD
HETATM   15  C16 UNL     1       6.084  62.129   1.997  1.00  0.00     0.067 C 
HETATM   16  C19 UNL     1       7.089  62.714   1.134  1.00  0.00     0.159 C 
HETATM   17  N3  UNL     1       8.454  62.480   0.950  1.00  0.00    -0.369 N 
ATOM     18  H3  UNL     1       8.686  61.992   0.085  1.00  0.00     0.161 HD
HETATM   19  C20 UNL     1       9.596  62.809   1.773  1.00  0.00     0.123 C 
HETATM   20  C21 UNL     1      10.583  63.740   1.116  1.00  0.00     0.046 C 
HETATM   21  C22 UNL     1      10.470  65.181   1.586  1.00  0.00     0.176 C 
HETATM   22  O6  UNL     1      10.389  65.333   2.922  1.00  0.00    -0.355 OA
ENDROOT
BRANCH   1  23
HETATM   23  C3  UNL     1      12.450  65.856   3.950  1.00  0.00     0.018 C 
BRANCH  23  24
HETATM   24  C2  UNL     1      13.102  66.291   5.142  1.00  0.00     0.138 C 
BRANCH  24  25
HETATM   25  S1  UNL     1      14.358  65.110   5.651  1.00  0.00     0.014 S 
HETATM   26  C1  UNL     1      15.184  64.328   5.169  1.00  0.00     0.127 C 
HETATM   27  O1  UNL     1      13.825  65.606   7.035  1.00  0.00    -0.258 OA
ENDBRANCH  24  25
ENDBRANCH  23  24
ENDBRANCH   1  23
BRANCH  16  28
HETATM   28  O5  UNL     1       6.650  63.664   0.345  1.00  0.00    -0.345 OA
ATOM     29  H5  UNL     1       5.977  64.217   0.724  1.00  0.00     0.219 HD
ENDBRANCH  16  28
BRANCH  11  30
HETATM   30  O2  UNL     1       7.422  64.397   4.328  1.00  0.00    -0.348 OA
ATOM     31  H2  UNL     1       7.302  63.506   4.635  1.00  0.00     0.219 HD
ENDBRANCH  11  30
BRANCH  15  32
HETATM   32  C17 UNL     1       5.939  60.627   1.946  1.00  0.00     0.174 C 
BRANCH  32  33
HETATM   33  C18 UNL     1       6.694  59.855   2.906  1.00  0.00     0.178 C 
HETATM   34  O3  UNL     1       6.185  59.249   3.858  1.00  0.00    -0.648 OA
HETATM   35  O4  UNL     1       8.074  59.773   2.773  1.00  0.00    -0.648 OA
ENDBRANCH  32  33
ENDBRANCH  15  32
BRANCH  12  36
HETATM   36  C12 UNL     1       4.240  64.053   4.336  1.00  0.00     0.037 C 
BRANCH  36  37
HETATM   37  C13 UNL     1       4.426  64.182   5.788  1.00  0.00    -0.020 C 
HETATM   38  C14 UNL     1       3.150  63.637   6.524  1.00  0.00     0.009 C 
HETATM   39  C15 UNL     1       4.546  65.649   6.212  1.00  0.00     0.009 C 
ENDBRANCH  36  37
ENDBRANCH  12  36
TORSDOF 9
ENDMDL
MODEL 3
REMARK VINA RESULT: -7.417683974      1.315      1.587
REMARK  9 active torsions:
REMARK  status: ('A' for Active; 'I' for Inactive)
REMARK    1  A    between atoms: S1_2  and  C2_4 
REMARK    2  A    between atoms: C2_4  and  C3_5 
REMARK    3  A    between atoms: C3_5  and  C4_6 
REMARK    4  A    between atoms: C10_16  and  O2_17 
REMARK    5  A    between atoms: C11_19  and  C12_20 
REMARK    6  A    between atoms: C12_20  and  C13_21 
REMARK    7  A    between atoms: C16_26  and  C17_27 
REMARK    8  A    between atoms: C17_27  and  C18_28 
REMARK    9  A    between atoms: C19_31  and  O5_32 
ROOT
HETATM    1  C4  UNL     1      10.306  67.253   3.417  1.00  0.00     0.049 C 
HETATM    2  C5  UNL     1       9.825  68.347   2.557  1.00  0.00     0.143 C 
HETATM    3  C6  UNL     1       8.388  68.830   2.950  1.00  0.00     0.249 C 
HETATM    4  F1  UNL     1       8.086  69.962   2.257  1.00  0.00    -0.206 F 
HETATM    5  F2  UNL     1       8.462  69.048   4.315  1.00  0.00    -0.206 F 
HETATM    6  C7  UNL     1       7.500  67.666   2.669  1.00  0.00     0.081 C 
HETATM    7  C8  UNL     1       6.043  67.847   2.905  1.00  0.00     0.025 C 
HETATM    8  C9  UNL     1       5.373  66.465   2.756  1.00  0.00     0.121 C 
HETATM    9  N1  UNL     1       6.364  65.420   2.770  1.00  0.00    -0.373 N 
ATOM     10  H1  UNL     1       7.115  65.541   2.091  1.00  0.00     0.161 HD
HETATM   11  C10 UNL     1       6.475  64.263   3.561  1.00  0.00     0.134 C 
HETATM   12  C11 UNL     1       5.703  63.026   3.556  1.00  0.00     0.156 C 
HETATM   13  N2  UNL     1       6.732  61.950   3.737  1.00  0.00    -0.377 N 
ATOM     14  H2  UNL     1       7.117  61.661   4.636  1.00  0.00     0.160 HD
HETATM   15  C16 UNL     1       7.098  61.387   2.482  1.00  0.00     0.067 C 
HETATM   16  C19 UNL     1       7.915  62.148   1.559  1.00  0.00     0.159 C 
HETATM   17  N3  UNL     1       9.290  62.368   1.447  1.00  0.00    -0.369 N 
ATOM     18  H3  UNL     1       9.735  61.870   0.676  1.00  0.00     0.161 HD
HETATM   19  C20 UNL     1      10.191  63.180   2.232  1.00  0.00     0.123 C 
HETATM   20  C21 UNL     1      10.860  64.287   1.456  1.00  0.00     0.046 C 
HETATM   21  C22 UNL     1      10.239  65.656   1.685  1.00  0.00     0.176 C 
HETATM   22  O6  UNL     1      10.011  65.961   2.977  1.00  0.00    -0.355 OA
ENDROOT
BRANCH   1  23
HETATM   23  C3  UNL     1      11.697  67.295   3.955  1.00  0.00     0.018 C 
BRANCH  23  24
HETATM   24  C2  UNL     1      12.280  66.223   4.694  1.00  0.00     0.138 C 
BRANCH  24  25
HETATM   25  S1  UNL     1      13.640  65.482   3.782  1.00  0.00     0.014 S 
HETATM   26  C1  UNL     1      14.165  65.507   2.664  1.00  0.00     0.127 C 
HETATM   27  O1  UNL     1      13.787  64.782   5.173  1.00  0.00    -0.258 OA
ENDBRANCH  24  25
ENDBRANCH  23  24
ENDBRANCH   1  23
BRANCH  16  28
HETATM   28  O5  UNL     1       7.246  62.769   0.618  1.00  0.00    -0.345 OA
ATOM     29  H5  UNL     1       7.738  63.437   0.155  1.00  0.00     0.219 HD
ENDBRANCH  16  28
BRANCH  11  30
HETATM   30  O2  UNL     1       7.426  64.284   4.448  1.00  0.00    -0.348 OA
ATOM     31  H2  UNL     1       8.258  63.928   4.159  1.00  0.00     0.219 HD
ENDBRANCH  11  30
BRANCH  15  32
HETATM   32  C17 UNL     1       7.465  59.934   2.670  1.00  0.00     0.174 C 
BRANCH  32  33
HETATM   33  C18 UNL     1       6.549  59.112   3.426  1.00  0.00     0.178 C 
HETATM   34  O3  UNL     1       5.319  59.133   3.278  1.00  0.00    -0.648 OA
HETATM   35  O4  UNL     1       7.053  58.239   4.380  1.00  0.00    -0.648 OA
ENDBRANCH  32  33
ENDBRANCH  15  32
BRANCH  12  36
HETATM   36  C12 UNL     1       4.548  62.883   4.439  1.00  0.00     0.037 C 
BRANCH  36  37
HETATM   37  C13 UNL     1       3.850  64.031   5.034  1.00  0.00    -0.020 C 
HETATM   38  C14 UNL     1       4.052  64.007   6.592  1.00  0.00     0.009 C 
HETATM   39  C15 UNL     1       2.336  63.943   4.818  1.00  0.00     0.009 C 
ENDBRANCH  36  37
ENDBRANCH  12  36
TORSDOF 9
ENDMDL
MODEL 4
REMARK VINA RESULT: -7.381647720      1.084      1.216
REMARK  9 active torsions:
REMARK  status: ('A' for Active; 'I' for Inactive)
REMARK    1  A    between atoms: S1_2  and  C2_4 
REMARK    2  A    between atoms: C2_4  and  C3_5 
REMARK    3  A    between atoms: C3_5  and  C4_6 
REMARK    4  A    between atoms: C10_16  and  O2_17 
REMARK    5  A    between atoms: C11_19  and  C12_20 
REMARK    6  A    between atoms: C12_20  and  C13_21 
REMARK    7  A    between atoms: C16_26  and  C17_27 
REMARK    8  A    between atoms: C17_27  and  C18_28 
REMARK    9  A    between atoms: C19_31  and  O5_32 
ROOT
HETATM    1  C4  UNL     1      10.794  67.358   3.782  1.00  0.00     0.049 C 
HETATM    2  C5  UNL     1      10.590  68.646   3.097  1.00  0.00     0.143 C 
HETATM    3  C6  UNL     1       9.380  69.450   3.682  1.00  0.00     0.249 C 
HETATM    4  F1  UNL     1       9.369  70.702   3.149  1.00  0.00    -0.206 F 
HETATM    5  F2  UNL     1       9.602  69.456   5.048  1.00  0.00    -0.206 F 
HETATM    6  C7  UNL     1       8.180  68.623   3.366  1.00  0.00     0.081 C 
HETATM    7  C8  UNL     1       6.854  69.164   3.764  1.00  0.00     0.025 C 
HETATM    8  C9  UNL     1       5.809  68.052   3.534  1.00  0.00     0.121 C 
HETATM    9  N1  UNL     1       6.460  66.783   3.337  1.00  0.00    -0.373 N 
ATOM     10  H1  UNL     1       7.168  66.781   2.603  1.00  0.00     0.161 HD
HETATM   11  C10 UNL     1       6.286  65.546   3.983  1.00  0.00     0.134 C 
HETATM   12  C11 UNL     1       5.195  64.581   3.921  1.00  0.00     0.156 C 
HETATM   13  N2  UNL     1       5.884  63.250   3.881  1.00  0.00    -0.377 N 
ATOM     14  H2  UNL     1       6.229  62.750   4.701  1.00  0.00     0.160 HD
HETATM   15  C16 UNL     1       5.992  62.778   2.542  1.00  0.00     0.067 C 
HETATM   16  C19 UNL     1       6.929  63.400   1.630  1.00  0.00     0.159 C 
HETATM   17  N3  UNL     1       8.300  63.246   1.406  1.00  0.00    -0.369 N 
ATOM     18  H3  UNL     1       8.534  62.750   0.546  1.00  0.00     0.161 HD
HETATM   19  C20 UNL     1       9.445  63.667   2.181  1.00  0.00     0.123 C 
HETATM   20  C21 UNL     1      10.350  64.640   1.467  1.00  0.00     0.046 C 
HETATM   21  C22 UNL     1      10.161  66.084   1.903  1.00  0.00     0.176 C 
HETATM   22  O6  UNL     1      10.114  66.267   3.237  1.00  0.00    -0.355 OA
ENDROOT
BRANCH   1  23
HETATM   23  C3  UNL     1      12.171  66.944   4.180  1.00  0.00     0.018 C 
BRANCH  23  24
HETATM   24  C2  UNL     1      12.447  65.742   4.897  1.00  0.00     0.138 C 
BRANCH  24  25
HETATM   25  S1  UNL     1      14.132  65.191   4.598  1.00  0.00     0.014 S 
HETATM   26  C1  UNL     1      15.252  65.225   5.116  1.00  0.00     0.127 C 
HETATM   27  O1  UNL     1      13.403  64.658   3.321  1.00  0.00    -0.258 OA
ENDBRANCH  24  25
ENDBRANCH  23  24
ENDBRANCH   1  23
BRANCH  16  28
HETATM   28  O5  UNL     1       6.406  64.299   0.833  1.00  0.00    -0.345 OA
ATOM     29  H5  UNL     1       6.084  65.079   1.270  1.00  0.00     0.219 HD
ENDBRANCH  16  28
BRANCH  11  30
HETATM   30  O2  UNL     1       7.260  65.187   4.768  1.00  0.00    -0.348 OA
ATOM     31  H2  UNL     1       8.133  65.338   4.425  1.00  0.00     0.219 HD
ENDBRANCH  11  30
BRANCH  15  32
HETATM   32  C17 UNL     1       5.940  61.269   2.534  1.00  0.00     0.174 C 
BRANCH  32  33
HETATM   33  C18 UNL     1       6.957  60.567   3.282  1.00  0.00     0.178 C 
HETATM   34  O3  UNL     1       6.821  60.202   4.458  1.00  0.00    -0.648 OA
HETATM   35  O4  UNL     1       8.167  60.272   2.668  1.00  0.00    -0.648 OA
ENDBRANCH  32  33
ENDBRANCH  15  32
BRANCH  12  36
HETATM   36  C12 UNL     1       4.107  64.647   4.894  1.00  0.00     0.037 C 
BRANCH  36  37
HETATM   37  C13 UNL     1       4.301  64.396   6.328  1.00  0.00    -0.020 C 
HETATM   38  C14 UNL     1       3.053  63.626   6.891  1.00  0.00     0.009 C 
HETATM   39  C15 UNL     1       4.368  65.702   7.125  1.00  0.00     0.009 C 
ENDBRANCH  36  37
ENDBRANCH  12  36
TORSDOF 9
ENDMDL
MODEL 5
REMARK VINA RESULT: -7.364020008      3.302      5.812
REMARK  9 active torsions:
REMARK  status: ('A' for Active; 'I' for Inactive)
REMARK    1  A    between atoms: S1_2  and  C2_4 
REMARK    2  A    between atoms: C2_4  and  C3_5 
REMARK    3  A    between atoms: C3_5  and  C4_6 
REMARK    4  A    between atoms: C10_16  and  O2_17 
REMARK    5  A    between atoms: C11_19  and  C12_20 
REMARK    6  A    between atoms: C12_20  and  C13_21 
REMARK    7  A    between atoms: C16_26  and  C17_27 
REMARK    8  A    between atoms: C17_27  and  C18_28 
REMARK    9  A    between atoms: C19_31  and  O5_32 
ROOT
HETATM    1  C4  UNL     1       6.031  67.480   4.165  1.00  0.00     0.049 C 
HETATM    2  C5  UNL     1       4.636  67.585   3.704  1.00  0.00     0.143 C 
HETATM    3  C6  UNL     1       3.783  66.329   4.084  1.00  0.00     0.249 C 
HETATM    4  F1  UNL     1       2.473  66.572   3.811  1.00  0.00    -0.206 F 
HETATM    5  F2  UNL     1       4.020  66.152   5.437  1.00  0.00    -0.206 F 
HETATM    6  C7  UNL     1       4.387  65.205   3.313  1.00  0.00     0.081 C 
HETATM    7  C8  UNL     1       3.746  63.869   3.438  1.00  0.00     0.025 C 
HETATM    8  C9  UNL     1       4.662  62.846   2.735  1.00  0.00     0.121 C 
HETATM    9  N1  UNL     1       5.959  63.419   2.485  1.00  0.00    -0.373 N 
ATOM     10  H1  UNL     1       5.939  64.304   1.978  1.00  0.00     0.161 HD
HETATM   11  C10 UNL     1       7.249  62.969   2.819  1.00  0.00     0.134 C 
HETATM   12  C11 UNL     1       8.041  61.865   2.290  1.00  0.00     0.156 C 
HETATM   13  N2  UNL     1       9.429  62.426   2.187  1.00  0.00    -0.377 N 
ATOM     14  H2  UNL     1      10.091  62.481   2.961  1.00  0.00     0.160 HD
HETATM   15  C16 UNL     1       9.695  62.871   0.862  1.00  0.00     0.067 C 
HETATM   16  C19 UNL     1       9.066  64.077   0.364  1.00  0.00     0.159 C 
HETATM   17  N3  UNL     1       9.360  65.437   0.488  1.00  0.00    -0.369 N 
ATOM     18  H3  UNL     1       9.741  65.864  -0.356  1.00  0.00     0.161 HD
HETATM   19  C20 UNL     1       9.218  66.344   1.603  1.00  0.00     0.123 C 
HETATM   20  C21 UNL     1       8.272  67.492   1.350  1.00  0.00     0.046 C 
HETATM   21  C22 UNL     1       6.902  67.306   1.982  1.00  0.00     0.176 C 
HETATM   22  O6  UNL     1       6.926  66.896   3.265  1.00  0.00    -0.355 OA
ENDROOT
BRANCH   1  23
HETATM   23  C3  UNL     1       6.678  68.648   4.831  1.00  0.00     0.018 C 
BRANCH  23  24
HETATM   24  C2  UNL     1       6.600  69.978   4.321  1.00  0.00     0.138 C 
BRANCH  24  25
HETATM   25  S1  UNL     1       8.235  70.605   3.917  1.00  0.00     0.014 S 
HETATM   26  C1  UNL     1       9.377  70.204   3.669  1.00  0.00     0.127 C 
HETATM   27  O1  UNL     1       7.424  71.935   4.061  1.00  0.00    -0.258 OA
ENDBRANCH  24  25
ENDBRANCH  23  24
ENDBRANCH   1  23
BRANCH  16  28
HETATM   28  O5  UNL     1       7.992  63.877  -0.361  1.00  0.00    -0.345 OA
ATOM     29  H5  UNL     1       7.982  64.338  -1.191  1.00  0.00     0.219 HD
ENDBRANCH  16  28
BRANCH  11  30
HETATM   30  O2  UNL     1       7.850  63.646   3.753  1.00  0.00    -0.348 OA
ATOM     31  H2  UNL     1       8.609  63.223   4.136  1.00  0.00     0.219 HD
ENDBRANCH  11  30
BRANCH  15  32
HETATM   32  C17 UNL     1      11.164  62.700   0.559  1.00  0.00     0.174 C 
BRANCH  32  33
HETATM   33  C18 UNL     1      12.064  63.722   1.042  1.00  0.00     0.178 C 
HETATM   34  O3  UNL     1      12.012  64.205   2.182  1.00  0.00    -0.648 OA
HETATM   35  O4  UNL     1      13.053  64.207   0.198  1.00  0.00    -0.648 OA
ENDBRANCH  32  33
ENDBRANCH  15  32
BRANCH  12  36
HETATM   36  C12 UNL     1       7.987  60.555   2.934  1.00  0.00     0.037 C 
BRANCH  36  37
HETATM   37  C13 UNL     1       6.729  59.917   3.345  1.00  0.00    -0.020 C 
HETATM   38  C14 UNL     1       7.050  58.555   4.058  1.00  0.00     0.009 C 
HETATM   39  C15 UNL     1       5.861  59.552   2.138  1.00  0.00     0.009 C 
ENDBRANCH  36  37
ENDBRANCH  12  36
TORSDOF 9
ENDMDL
