MODEL 1
REMARK VINA RESULT: -8.897812885      0.000      0.000
REMARK  10 active torsions:
REMARK  status: ('A' for Active; 'I' for Inactive)
REMARK    1  A    between atoms: C2_3  and  C3_5 
REMARK    2  A    between atoms: C3_5  and  C4_8 
REMARK       I    between atoms: C4_8  and  N2_10 
REMARK    3  A    between atoms: N2_10  and  C5_12 
REMARK    4  A    between atoms: C5_12  and  C6_13 
REMARK    5  A    between atoms: C5_12  and  C22_36 
REMARK    6  A    between atoms: C6_13  and  O3_14 
REMARK    7  A    between atoms: C6_13  and  N3_16 
REMARK    8  A    between atoms: C15_25  and  C16_26 
REMARK       I    between atoms: C16_26  and  N4_28 
REMARK    9  A    between atoms: N4_28  and  C17_30 
REMARK   10  A    between atoms: C22_36  and  O5_38 
ROOT
HETATM    1  C1  UNL     1      15.261  63.698   7.771  1.00  0.00     0.233 C 
HETATM    2  N1  UNL     1      14.891  64.268   6.668  1.00  0.00    -0.390 NA
HETATM    3  C2  UNL     1      14.480  64.904   5.442  1.00  0.00     0.373 C 
HETATM    4  O1  UNL     1      13.709  65.880   5.407  1.00  0.00    -0.249 OA
ENDROOT
BRANCH   3   5
HETATM    5  C3  UNL     1      14.957  64.422   4.129  1.00  0.00     0.414 C 
HETATM    6  F1  UNL     1      16.080  65.120   3.708  1.00  0.00    -0.183 F 
HETATM    7  F2  UNL     1      15.250  63.103   4.177  1.00  0.00    -0.183 F 
BRANCH   5   8
HETATM    8  C4  UNL     1      13.872  64.591   3.055  1.00  0.00     0.306 C 
HETATM    9  O2  UNL     1      14.277  65.140   2.029  1.00  0.00    -0.266 OA
HETATM   10  N2  UNL     1      12.611  64.136   3.305  1.00  0.00    -0.319 N 
ATOM     11  H2  UNL     1      12.483  63.741   4.236  1.00  0.00     0.169 HD
BRANCH  10  12
HETATM   12  C5  UNL     1      11.434  64.115   2.488  1.00  0.00     0.091 C 
BRANCH  12  13
HETATM   13  C6  UNL     1      10.694  65.358   2.594  1.00  0.00     0.164 C 
BRANCH  13  14
HETATM   14  O3  UNL     1      11.539  66.374   2.289  1.00  0.00    -0.345 OA
ATOM     15  H3  UNL     1      11.078  67.192   2.437  1.00  0.00     0.219 HD
ENDBRANCH  13  14
BRANCH  13  16
HETATM   16  N3  UNL     1       9.443  65.839   2.890  1.00  0.00    -0.346 N 
HETATM   17  C7  UNL     1       9.292  66.667   4.093  1.00  0.00     0.131 C 
HETATM   18  C8  UNL     1       8.465  67.875   3.961  1.00  0.00     0.008 C 
HETATM   19  C9  UNL     1       9.413  69.091   3.943  1.00  0.00     0.006 C 
HETATM   20  C13 UNL     1       7.543  67.995   2.835  1.00  0.00    -0.006 C 
HETATM   21  C10 UNL     1       8.532  70.277   4.253  1.00  0.00     0.000 C 
HETATM   22  C11 UNL     1       7.623  70.510   3.067  1.00  0.00     0.000 C 
HETATM   23  C12 UNL     1       7.699  69.355   2.127  1.00  0.00     0.005 C 
HETATM   24  C14 UNL     1       7.602  66.983   1.769  1.00  0.00     0.040 C 
HETATM   25  C15 UNL     1       8.250  65.650   2.158  1.00  0.00     0.178 C 
BRANCH  25  26
HETATM   26  C16 UNL     1       7.250  64.793   2.852  1.00  0.00     0.242 C 
HETATM   27  O4  UNL     1       6.036  65.048   2.766  1.00  0.00    -0.271 OA
HETATM   28  N4  UNL     1       7.679  63.688   3.612  1.00  0.00    -0.337 N 
ATOM     29  H4  UNL     1       8.673  63.474   3.692  1.00  0.00     0.164 HD
BRANCH  28  30
HETATM   30  C17 UNL     1       6.700  62.858   4.277  1.00  0.00     0.122 C 
HETATM   31  C18 UNL     1       5.866  63.571   5.239  1.00  0.00     0.091 C 
HETATM   32  N5  UNL     1       5.192  64.118   5.984  1.00  0.00    -0.195 NA
HETATM   33  C19 UNL     1       5.985  61.953   3.314  1.00  0.00     0.047 C 
HETATM   34  C20 UNL     1       7.091  60.925   3.577  1.00  0.00     0.007 C 
HETATM   35  C21 UNL     1       7.333  61.601   4.892  1.00  0.00     0.047 C 
ENDBRANCH  28  30
ENDBRANCH  25  26
ENDBRANCH  13  16
ENDBRANCH  12  13
BRANCH  12  36
HETATM   36  C22 UNL     1      11.387  63.351   1.246  1.00  0.00     0.168 C 
HETATM   37  C23 UNL     1      10.224  62.375   1.171  1.00  0.00     0.046 C 
BRANCH  36  38
HETATM   38  O5  UNL     1      12.537  62.736   0.817  1.00  0.00    -0.390 OA
ATOM     39  H5  UNL     1      12.679  62.649  -0.118  1.00  0.00     0.210 HD
ENDBRANCH  36  38
ENDBRANCH  12  36
ENDBRANCH  10  12
ENDBRANCH   5   8
ENDBRANCH   3   5
TORSDOF 9
ENDMDL
MODEL 2
REMARK VINA RESULT: -8.852176867      2.571      5.021
REMARK  10 active torsions:
REMARK  status: ('A' for Active; 'I' for Inactive)
REMARK    1  A    between atoms: C2_3  and  C3_5 
REMARK    2  A    between atoms: C3_5  and  C4_8 
REMARK       I    between atoms: C4_8  and  N2_10 
REMARK    3  A    between atoms: N2_10  and  C5_12 
REMARK    4  A    between atoms: C5_12  and  C6_13 
REMARK    5  A    between atoms: C5_12  and  C22_36 
REMARK    6  A    between atoms: C6_13  and  O3_14 
REMARK    7  A    between atoms: C6_13  and  N3_16 
REMARK    8  A    between atoms: C15_25  and  C16_26 
REMARK       I    between atoms: C16_26  and  N4_28 
REMARK    9  A    between atoms: N4_28  and  C17_30 
REMARK   10  A    between atoms: C22_36  and  O5_38 
ROOT
HETATM    1  C1  UNL     1      16.173  63.163   7.351  1.00  0.00     0.233 C 
HETATM    2  N1  UNL     1      15.449  63.668   6.403  1.00  0.00    -0.390 NA
HETATM    3  C2  UNL     1      14.642  64.230   5.349  1.00  0.00     0.373 C 
HETATM    4  O1  UNL     1      13.536  64.763   5.550  1.00  0.00    -0.249 OA
ENDROOT
BRANCH   3   5
HETATM    5  C3  UNL     1      15.089  64.203   3.940  1.00  0.00     0.414 C 
HETATM    6  F1  UNL     1      16.127  65.096   3.719  1.00  0.00    -0.183 F 
HETATM    7  F2  UNL     1      15.493  62.961   3.588  1.00  0.00    -0.183 F 
BRANCH   5   8
HETATM    8  C4  UNL     1      13.940  64.576   2.993  1.00  0.00     0.306 C 
HETATM    9  O2  UNL     1      13.900  65.777   2.719  1.00  0.00    -0.266 OA
HETATM   10  N2  UNL     1      13.101  63.599   2.544  1.00  0.00    -0.319 N 
ATOM     11  H2  UNL     1      13.295  62.672   2.924  1.00  0.00     0.169 HD
BRANCH  10  12
HETATM   12  C5  UNL     1      11.996  63.645   1.633  1.00  0.00     0.091 C 
BRANCH  12  13
HETATM   13  C6  UNL     1      10.729  63.595   2.336  1.00  0.00     0.164 C 
BRANCH  13  14
HETATM   14  O3  UNL     1      10.952  63.954   3.624  1.00  0.00    -0.345 OA
ATOM     15  H3  UNL     1      11.465  63.268   4.035  1.00  0.00     0.219 HD
ENDBRANCH  13  14
BRANCH  13  16
HETATM   16  N3  UNL     1       9.401  63.315   2.133  1.00  0.00    -0.346 N 
HETATM   17  C7  UNL     1       9.060  62.064   1.443  1.00  0.00     0.131 C 
HETATM   18  C8  UNL     1       7.951  61.282   2.008  1.00  0.00     0.008 C 
HETATM   19  C9  UNL     1       8.559  60.053   2.714  1.00  0.00     0.006 C 
HETATM   20  C13 UNL     1       7.015  61.922   2.927  1.00  0.00    -0.006 C 
HETATM   21  C10 UNL     1       7.410  59.088   2.874  1.00  0.00     0.000 C 
HETATM   22  C11 UNL     1       6.456  59.658   3.901  1.00  0.00     0.000 C 
HETATM   23  C12 UNL     1       6.811  61.075   4.199  1.00  0.00     0.005 C 
HETATM   24  C14 UNL     1       7.315  63.283   3.400  1.00  0.00     0.040 C 
HETATM   25  C15 UNL     1       8.286  64.087   2.527  1.00  0.00     0.178 C 
BRANCH  25  26
HETATM   26  C16 UNL     1       7.545  64.695   1.388  1.00  0.00     0.242 C 
HETATM   27  O4  UNL     1       6.302  64.689   1.372  1.00  0.00    -0.271 OA
HETATM   28  N4  UNL     1       8.255  65.282   0.323  1.00  0.00    -0.337 N 
ATOM     29  H4  UNL     1       9.274  65.288   0.326  1.00  0.00     0.164 HD
BRANCH  28  30
HETATM   30  C17 UNL     1       7.527  65.877  -0.775  1.00  0.00     0.122 C 
HETATM   31  C18 UNL     1       6.682  67.003  -0.392  1.00  0.00     0.091 C 
HETATM   32  N5  UNL     1       6.028  67.899  -0.111  1.00  0.00    -0.195 NA
HETATM   33  C19 UNL     1       8.397  66.077  -1.983  1.00  0.00     0.047 C 
HETATM   34  C20 UNL     1       7.982  64.668  -2.421  1.00  0.00     0.007 C 
HETATM   35  C21 UNL     1       6.749  64.830  -1.585  1.00  0.00     0.047 C 
ENDBRANCH  28  30
ENDBRANCH  25  26
ENDBRANCH  13  16
ENDBRANCH  12  13
BRANCH  12  36
HETATM   36  C22 UNL     1      12.090  64.358   0.365  1.00  0.00     0.168 C 
HETATM   37  C23 UNL     1      11.357  63.674  -0.778  1.00  0.00     0.046 C 
BRANCH  36  38
HETATM   38  O5  UNL     1      13.329  64.771  -0.060  1.00  0.00    -0.390 OA
ATOM     39  H5  UNL     1      13.602  64.541  -0.940  1.00  0.00     0.210 HD
ENDBRANCH  36  38
ENDBRANCH  12  36
ENDBRANCH  10  12
ENDBRANCH   5   8
ENDBRANCH   3   5
TORSDOF 9
ENDMDL
MODEL 3
REMARK VINA RESULT: -8.704230453      2.583      4.807
REMARK  10 active torsions:
REMARK  status: ('A' for Active; 'I' for Inactive)
REMARK    1  A    between atoms: C2_3  and  C3_5 
REMARK    2  A    between atoms: C3_5  and  C4_8 
REMARK       I    between atoms: C4_8  and  N2_10 
REMARK    3  A    between atoms: N2_10  and  C5_12 
REMARK    4  A    between atoms: C5_12  and  C6_13 
REMARK    5  A    between atoms: C5_12  and  C22_36 
REMARK    6  A    between atoms: C6_13  and  O3_14 
REMARK    7  A    between atoms: C6_13  and  N3_16 
REMARK    8  A    between atoms: C15_25  and  C16_26 
REMARK       I    between atoms: C16_26  and  N4_28 
REMARK    9  A    between atoms: N4_28  and  C17_30 
REMARK   10  A    between atoms: C22_36  and  O5_38 
ROOT
HETATM    1  C1  UNL     1      16.202  63.170   7.351  1.00  0.00     0.233 C 
HETATM    2  N1  UNL     1      15.474  63.676   6.406  1.00  0.00    -0.390 NA
HETATM    3  C2  UNL     1      14.664  64.240   5.356  1.00  0.00     0.373 C 
HETATM    4  O1  UNL     1      13.566  64.787   5.564  1.00  0.00    -0.249 OA
ENDROOT
BRANCH   3   5
HETATM    5  C3  UNL     1      15.098  64.199   3.944  1.00  0.00     0.414 C 
HETATM    6  F1  UNL     1      16.145  65.079   3.708  1.00  0.00    -0.183 F 
HETATM    7  F2  UNL     1      15.484  62.951   3.596  1.00  0.00    -0.183 F 
BRANCH   5   8
HETATM    8  C4  UNL     1      13.945  64.581   3.005  1.00  0.00     0.306 C 
HETATM    9  O2  UNL     1      13.897  65.786   2.751  1.00  0.00    -0.266 OA
HETATM   10  N2  UNL     1      13.113  63.606   2.541  1.00  0.00    -0.319 N 
ATOM     11  H2  UNL     1      13.313  62.674   2.904  1.00  0.00     0.169 HD
BRANCH  10  12
HETATM   12  C5  UNL     1      12.006  63.660   1.632  1.00  0.00     0.091 C 
BRANCH  12  13
HETATM   13  C6  UNL     1      10.740  63.615   2.338  1.00  0.00     0.164 C 
BRANCH  13  14
HETATM   14  O3  UNL     1      10.961  64.002   3.618  1.00  0.00    -0.345 OA
ATOM     15  H3  UNL     1      11.622  64.684   3.608  1.00  0.00     0.219 HD
ENDBRANCH  13  14
BRANCH  13  16
HETATM   16  N3  UNL     1       9.414  63.320   2.142  1.00  0.00    -0.346 N 
HETATM   17  C7  UNL     1       9.082  62.062   1.460  1.00  0.00     0.131 C 
HETATM   18  C8  UNL     1       7.984  61.272   2.035  1.00  0.00     0.008 C 
HETATM   19  C9  UNL     1       8.608  60.053   2.744  1.00  0.00     0.006 C 
HETATM   20  C13 UNL     1       7.045  61.907   2.954  1.00  0.00    -0.006 C 
HETATM   21  C10 UNL     1       7.470  59.077   2.914  1.00  0.00     0.000 C 
HETATM   22  C11 UNL     1       6.514  59.643   3.942  1.00  0.00     0.000 C 
HETATM   23  C12 UNL     1       6.857  61.065   4.231  1.00  0.00     0.005 C 
HETATM   24  C14 UNL     1       7.335  63.273   3.419  1.00  0.00     0.040 C 
HETATM   25  C15 UNL     1       8.293  64.082   2.538  1.00  0.00     0.178 C 
BRANCH  25  26
HETATM   26  C16 UNL     1       7.540  64.678   1.399  1.00  0.00     0.242 C 
HETATM   27  O4  UNL     1       8.146  65.109   0.403  1.00  0.00    -0.271 OA
HETATM   28  N4  UNL     1       6.135  64.754   1.450  1.00  0.00    -0.337 N 
ATOM     29  H4  UNL     1       5.631  64.407   2.265  1.00  0.00     0.164 HD
BRANCH  28  30
HETATM   30  C17 UNL     1       5.413  65.327   0.336  1.00  0.00     0.122 C 
HETATM   31  C18 UNL     1       5.646  66.755   0.145  1.00  0.00     0.091 C 
HETATM   32  N5  UNL     1       5.831  67.870  -0.031  1.00  0.00    -0.195 NA
HETATM   33  C19 UNL     1       5.498  64.466  -0.891  1.00  0.00     0.047 C 
HETATM   34  C20 UNL     1       4.236  63.756  -0.388  1.00  0.00     0.007 C 
HETATM   35  C21 UNL     1       3.915  64.996   0.390  1.00  0.00     0.047 C 
ENDBRANCH  28  30
ENDBRANCH  25  26
ENDBRANCH  13  16
ENDBRANCH  12  13
BRANCH  12  36
HETATM   36  C22 UNL     1      12.101  64.376   0.365  1.00  0.00     0.168 C 
HETATM   37  C23 UNL     1      11.382  63.685  -0.783  1.00  0.00     0.046 C 
BRANCH  36  38
HETATM   38  O5  UNL     1      13.338  64.801  -0.051  1.00  0.00    -0.390 OA
ATOM     39  H5  UNL     1      13.679  64.460  -0.869  1.00  0.00     0.210 HD
ENDBRANCH  36  38
ENDBRANCH  12  36
ENDBRANCH  10  12
ENDBRANCH   5   8
ENDBRANCH   3   5
TORSDOF 9
ENDMDL
MODEL 4
REMARK VINA RESULT: -8.639355980      2.799      6.434
REMARK  10 active torsions:
REMARK  status: ('A' for Active; 'I' for Inactive)
REMARK    1  A    between atoms: C2_3  and  C3_5 
REMARK    2  A    between atoms: C3_5  and  C4_8 
REMARK       I    between atoms: C4_8  and  N2_10 
REMARK    3  A    between atoms: N2_10  and  C5_12 
REMARK    4  A    between atoms: C5_12  and  C6_13 
REMARK    5  A    between atoms: C5_12  and  C22_36 
REMARK    6  A    between atoms: C6_13  and  O3_14 
REMARK    7  A    between atoms: C6_13  and  N3_16 
REMARK    8  A    between atoms: C15_25  and  C16_26 
REMARK       I    between atoms: C16_26  and  N4_28 
REMARK    9  A    between atoms: N4_28  and  C17_30 
REMARK   10  A    between atoms: C22_36  and  O5_38 
ROOT
HETATM    1  C1  UNL     1      14.004  65.170   5.883  1.00  0.00     0.233 C 
HETATM    2  N1  UNL     1      13.074  65.141   4.981  1.00  0.00    -0.390 NA
HETATM    3  C2  UNL     1      12.039  65.108   3.979  1.00  0.00     0.373 C 
HETATM    4  O1  UNL     1      11.532  64.052   3.561  1.00  0.00    -0.249 OA
ENDROOT
BRANCH   3   5
HETATM    5  C3  UNL     1      11.513  66.350   3.376  1.00  0.00     0.414 C 
HETATM    6  F1  UNL     1      11.525  67.400   4.282  1.00  0.00    -0.183 F 
HETATM    7  F2  UNL     1      12.233  66.699   2.286  1.00  0.00    -0.183 F 
BRANCH   5   8
HETATM    8  C4  UNL     1      10.064  66.158   2.902  1.00  0.00     0.306 C 
HETATM    9  O2  UNL     1       9.923  66.297   1.686  1.00  0.00    -0.266 OA
HETATM   10  N2  UNL     1       9.098  65.856   3.816  1.00  0.00    -0.319 N 
ATOM     11  H2  UNL     1       9.428  65.820   4.780  1.00  0.00     0.169 HD
BRANCH  10  12
HETATM   12  C5  UNL     1       7.701  65.580   3.659  1.00  0.00     0.091 C 
BRANCH  12  13
HETATM   13  C6  UNL     1       7.453  64.155   3.550  1.00  0.00     0.164 C 
BRANCH  13  14
HETATM   14  O3  UNL     1       7.143  63.689   4.784  1.00  0.00    -0.345 OA
ATOM     15  H3  UNL     1       7.941  63.364   5.184  1.00  0.00     0.219 HD
ENDBRANCH  13  14
BRANCH  13  16
HETATM   16  N3  UNL     1       7.424  63.140   2.626  1.00  0.00    -0.346 N 
HETATM   17  C7  UNL     1       8.247  61.952   2.884  1.00  0.00     0.131 C 
HETATM   18  C8  UNL     1       7.618  60.648   2.629  1.00  0.00     0.008 C 
HETATM   19  C9  UNL     1       7.293  60.011   3.996  1.00  0.00     0.006 C 
HETATM   20  C13 UNL     1       6.423  60.577   1.794  1.00  0.00    -0.006 C 
HETATM   21  C10 UNL     1       7.079  58.546   3.702  1.00  0.00     0.000 C 
HETATM   22  C11 UNL     1       5.789  58.407   2.923  1.00  0.00     0.000 C 
HETATM   23  C12 UNL     1       5.316  59.747   2.472  1.00  0.00     0.005 C 
HETATM   24  C14 UNL     1       5.780  61.835   1.382  1.00  0.00     0.040 C 
HETATM   25  C15 UNL     1       6.671  63.081   1.433  1.00  0.00     0.178 C 
BRANCH  25  26
HETATM   26  C16 UNL     1       7.499  63.152   0.197  1.00  0.00     0.242 C 
HETATM   27  O4  UNL     1       7.511  62.205  -0.608  1.00  0.00    -0.271 OA
HETATM   28  N4  UNL     1       8.274  64.299  -0.063  1.00  0.00    -0.337 N 
ATOM     29  H4  UNL     1       8.275  65.079   0.594  1.00  0.00     0.164 HD
BRANCH  28  30
HETATM   30  C17 UNL     1       9.069  64.362  -1.269  1.00  0.00     0.122 C 
HETATM   31  C18 UNL     1      10.340  63.649  -1.185  1.00  0.00     0.091 C 
HETATM   32  N5  UNL     1      11.332  63.081  -1.142  1.00  0.00    -0.195 NA
HETATM   33  C19 UNL     1       8.244  64.112  -2.499  1.00  0.00     0.047 C 
HETATM   34  C20 UNL     1       7.990  65.623  -2.542  1.00  0.00     0.007 C 
HETATM   35  C21 UNL     1       9.256  65.804  -1.761  1.00  0.00     0.047 C 
ENDBRANCH  28  30
ENDBRANCH  25  26
ENDBRANCH  13  16
ENDBRANCH  12  13
BRANCH  12  36
HETATM   36  C22 UNL     1       6.687  66.445   4.250  1.00  0.00     0.168 C 
HETATM   37  C23 UNL     1       6.942  67.927   4.028  1.00  0.00     0.046 C 
BRANCH  36  38
HETATM   38  O5  UNL     1       6.327  66.228   5.558  1.00  0.00    -0.390 OA
ATOM     39  H5  UNL     1       6.913  65.721   6.107  1.00  0.00     0.210 HD
ENDBRANCH  36  38
ENDBRANCH  12  36
ENDBRANCH  10  12
ENDBRANCH   5   8
ENDBRANCH   3   5
TORSDOF 9
ENDMDL
MODEL 5
REMARK VINA RESULT: -8.595038010      2.877      5.181
REMARK  10 active torsions:
REMARK  status: ('A' for Active; 'I' for Inactive)
REMARK    1  A    between atoms: C2_3  and  C3_5 
REMARK    2  A    between atoms: C3_5  and  C4_8 
REMARK       I    between atoms: C4_8  and  N2_10 
REMARK    3  A    between atoms: N2_10  and  C5_12 
REMARK    4  A    between atoms: C5_12  and  C6_13 
REMARK    5  A    between atoms: C5_12  and  C22_36 
REMARK    6  A    between atoms: C6_13  and  O3_14 
REMARK    7  A    between atoms: C6_13  and  N3_16 
REMARK    8  A    between atoms: C15_25  and  C16_26 
REMARK       I    between atoms: C16_26  and  N4_28 
REMARK    9  A    between atoms: N4_28  and  C17_30 
REMARK   10  A    between atoms: C22_36  and  O5_38 
ROOT
HETATM    1  C1  UNL     1      15.427  64.013   5.783  1.00  0.00     0.233 C 
HETATM    2  N1  UNL     1      14.648  64.268   4.779  1.00  0.00    -0.390 NA
HETATM    3  C2  UNL     1      13.781  64.551   3.663  1.00  0.00     0.373 C 
HETATM    4  O1  UNL     1      13.965  64.084   2.525  1.00  0.00    -0.249 OA
ENDROOT
BRANCH   3   5
HETATM    5  C3  UNL     1      12.604  65.432   3.808  1.00  0.00     0.414 C 
HETATM    6  F1  UNL     1      12.031  65.314   5.066  1.00  0.00    -0.183 F 
HETATM    7  F2  UNL     1      12.940  66.725   3.597  1.00  0.00    -0.183 F 
BRANCH   5   8
HETATM    8  C4  UNL     1      11.527  65.083   2.770  1.00  0.00     0.306 C 
HETATM    9  O2  UNL     1      11.259  66.014   2.008  1.00  0.00    -0.266 OA
HETATM   10  N2  UNL     1      10.984  63.832   2.767  1.00  0.00    -0.319 N 
ATOM     11  H2  UNL     1      11.327  63.223   3.510  1.00  0.00     0.169 HD
BRANCH  10  12
HETATM   12  C5  UNL     1      10.017  63.223   1.903  1.00  0.00     0.091 C 
BRANCH  12  13
HETATM   13  C6  UNL     1       8.665  63.566   2.298  1.00  0.00     0.164 C 
BRANCH  13  14
HETATM   14  O3  UNL     1       8.426  64.841   1.907  1.00  0.00    -0.345 OA
ATOM     15  H3  UNL     1       7.495  64.926   1.734  1.00  0.00     0.219 HD
ENDBRANCH  13  14
BRANCH  13  16
HETATM   16  N3  UNL     1       7.563  63.035   2.922  1.00  0.00    -0.346 N 
HETATM   17  C7  UNL     1       6.499  62.474   2.079  1.00  0.00     0.131 C 
HETATM   18  C8  UNL     1       5.930  61.188   2.507  1.00  0.00     0.008 C 
HETATM   19  C9  UNL     1       6.466  60.100   1.555  1.00  0.00     0.006 C 
HETATM   20  C13 UNL     1       6.129  60.736   3.880  1.00  0.00    -0.006 C 
HETATM   21  C10 UNL     1       5.537  58.926   1.743  1.00  0.00     0.000 C 
HETATM   22  C11 UNL     1       5.779  58.351   3.122  1.00  0.00     0.000 C 
HETATM   23  C12 UNL     1       6.629  59.278   3.922  1.00  0.00     0.005 C 
HETATM   24  C14 UNL     1       7.047  61.495   4.743  1.00  0.00     0.040 C 
HETATM   25  C15 UNL     1       7.319  62.940   4.309  1.00  0.00     0.178 C 
BRANCH  25  26
HETATM   26  C16 UNL     1       6.217  63.820   4.786  1.00  0.00     0.242 C 
HETATM   27  O4  UNL     1       6.098  64.975   4.343  1.00  0.00    -0.271 OA
HETATM   28  N4  UNL     1       5.302  63.342   5.745  1.00  0.00    -0.337 N 
ATOM     29  H4  UNL     1       5.395  62.398   6.118  1.00  0.00     0.164 HD
BRANCH  28  30
HETATM   30  C17 UNL     1       4.231  64.201   6.197  1.00  0.00     0.122 C 
HETATM   31  C18 UNL     1       4.682  65.425   6.851  1.00  0.00     0.091 C 
HETATM   32  N5  UNL     1       5.018  66.398   7.351  1.00  0.00    -0.195 NA
HETATM   33  C19 UNL     1       3.159  64.357   5.155  1.00  0.00     0.047 C 
HETATM   34  C20 UNL     1       2.486  63.127   5.774  1.00  0.00     0.007 C 
HETATM   35  C21 UNL     1       3.205  63.442   7.051  1.00  0.00     0.047 C 
ENDBRANCH  28  30
ENDBRANCH  25  26
ENDBRANCH  13  16
ENDBRANCH  12  13
BRANCH  12  36
HETATM   36  C22 UNL     1      10.314  62.960   0.500  1.00  0.00     0.168 C 
HETATM   37  C23 UNL     1      11.757  62.553   0.245  1.00  0.00     0.046 C 
BRANCH  36  38
HETATM   38  O5  UNL     1       9.923  63.889  -0.433  1.00  0.00    -0.390 OA
ATOM     39  H5  UNL     1      10.059  63.689  -1.352  1.00  0.00     0.210 HD
ENDBRANCH  36  38
ENDBRANCH  12  36
ENDBRANCH  10  12
ENDBRANCH   5   8
ENDBRANCH   3   5
TORSDOF 9
ENDMDL
