MODEL 1
REMARK VINA RESULT: -8.278488916      0.000      0.000
REMARK  10 active torsions:
REMARK  status: ('A' for Active; 'I' for Inactive)
REMARK    1  A    between atoms: C2_2  and  O1_3 
REMARK    2  A    between atoms: C2_2  and  C9_25 
REMARK    3  A    between atoms: O1_3  and  C3_4 
REMARK    4  A    between atoms: C3_4  and  C4_5 
REMARK    5  A    between atoms: C4_5  and  N1_6 
REMARK    6  A    between atoms: N1_6  and  C5_8 
REMARK    7  A    between atoms: C7_15  and  N4_16 
REMARK    8  A    between atoms: N6_21  and  O2_23 
REMARK    9  A    between atoms: C10_26  and  C11_27 
REMARK   10  A    between atoms: C11_27  and  N7_28 
ROOT
HETATM    1  O1  UNL     1       7.838  65.180   3.569  1.00  0.00    -0.327 OA
ENDROOT
BRANCH   1   2
HETATM    2  C2  UNL     1       7.397  64.543   2.411  1.00  0.00     0.158 C 
HETATM    3  C1  UNL     1       6.078  65.217   2.010  1.00  0.00     0.045 C 
BRANCH   2   4
HETATM    4  C9  UNL     1       7.184  63.082   2.634  1.00  0.00    -0.020 C 
HETATM    5  C10 UNL     1       6.659  62.676   3.785  1.00  0.00    -0.052 C 
HETATM    6  C17 UNL     1       6.437  61.202   4.053  1.00  0.00     0.066 C 
HETATM    7  C18 UNL     1       6.648  60.309   2.910  1.00  0.00     0.023 C 
HETATM    8  C19 UNL     1       5.393  59.428   2.743  1.00  0.00     0.038 C 
HETATM    9  C20 UNL     1       7.758  59.325   3.266  1.00  0.00     0.038 C 
HETATM   10  N8  UNL     1       6.926  60.863   1.659  1.00  0.00    -0.401 N 
HETATM   11  C21 UNL     1       7.586  62.123   1.616  1.00  0.00     0.045 C 
ATOM     12  H8  UNL     1       6.664  60.378   0.801  1.00  0.00     0.155 HD
HETATM   13  C22 UNL     1       9.077  61.878   1.700  1.00  0.00     0.043 C 
HETATM   14  C23 UNL     1       7.337  62.612   0.176  1.00  0.00     0.043 C 
BRANCH   5  15
HETATM   15  C11 UNL     1       6.255  63.535   4.909  1.00  0.00     0.162 C 
BRANCH  15  16
HETATM   16  N7  UNL     1       4.855  63.453   5.217  1.00  0.00    -0.363 N 
HETATM   17  C12 UNL     1       3.943  63.311   4.245  1.00  0.00     0.090 A 
HETATM   18  C13 UNL     1       2.575  63.275   4.516  1.00  0.00     0.017 A 
HETATM   19  C14 UNL     1       2.164  63.388   5.821  1.00  0.00     0.003 A 
HETATM   20  C15 UNL     1       3.089  63.532   6.814  1.00  0.00     0.017 A 
HETATM   21  C16 UNL     1       4.429  63.561   6.476  1.00  0.00     0.090 A 
ENDBRANCH  15  16
ENDBRANCH   5  15
ENDBRANCH   2   4
ENDBRANCH   1   2
BRANCH   1  22
HETATM   22  C3  UNL     1       8.501  66.366   3.709  1.00  0.00     0.158 C 
HETATM   23  N6  UNL     1       7.842  67.355   4.165  1.00  0.00    -0.245 N 
HETATM   24  C8  UNL     1       8.519  68.635   4.330  1.00  0.00     0.187 C 
BRANCH  22  25
HETATM   25  C4  UNL     1       9.938  66.534   3.353  1.00  0.00     0.224 C 
BRANCH  25  26
HETATM   26  N1  UNL     1      10.826  65.943   4.341  1.00  0.00    -0.218 N 
ATOM     27  H1  UNL     1      10.660  66.051   5.341  1.00  0.00     0.178 HD
BRANCH  26  28
HETATM   28  C5  UNL     1      11.830  65.277   3.891  1.00  0.00     0.695 A 
HETATM   29  N2  UNL     1      13.060  65.325   4.452  1.00  0.00    -0.165 N 
HETATM   30  C6  UNL     1      14.098  64.626   3.976  1.00  0.00     0.208 A 
ATOM     31  H2  UNL     1      13.202  65.917   5.271  1.00  0.00     0.186 HD
HETATM   32 CL1  UNL     1      15.643  64.753   4.772  1.00  0.00    -0.044 Cl
HETATM   33  N3  UNL     1      13.965  63.839   2.908  1.00  0.00    -0.165 N 
HETATM   34  C7  UNL     1      12.755  63.769   2.326  1.00  0.00     0.692 A 
ATOM     35  H3  UNL     1      14.756  63.307   2.545  1.00  0.00     0.186 HD
HETATM   36  N5  UNL     1      11.702  64.478   2.810  1.00  0.00    -0.023 N 
ATOM     37  H5  UNL     1      10.796  64.405   2.348  1.00  0.00     0.203 HD
BRANCH  34  38
HETATM   38  N4  UNL     1      12.612  63.003   1.285  1.00  0.00    -0.234 N 
ATOM     39  H42 UNL     1      12.642  63.396   0.345  1.00  0.00     0.174 HD
ATOM     40  H41 UNL     1      12.467  62.005   1.434  1.00  0.00     0.174 HD
ENDBRANCH  34  38
ENDBRANCH  26  28
ENDBRANCH  25  26
ENDBRANCH  22  25
BRANCH  23  41
HETATM   41  O2  UNL     1       6.507  67.364   4.511  1.00  0.00    -0.286 OA
ATOM     42  H2  UNL     1       5.938  68.124   4.552  1.00  0.00     0.244 HD
ENDBRANCH  23  41
ENDBRANCH   1  22
TORSDOF 10
ENDMDL
MODEL 2
REMARK VINA RESULT: -7.990980394      1.199      1.270
REMARK  10 active torsions:
REMARK  status: ('A' for Active; 'I' for Inactive)
REMARK    1  A    between atoms: C2_2  and  O1_3 
REMARK    2  A    between atoms: C2_2  and  C9_25 
REMARK    3  A    between atoms: O1_3  and  C3_4 
REMARK    4  A    between atoms: C3_4  and  C4_5 
REMARK    5  A    between atoms: C4_5  and  N1_6 
REMARK    6  A    between atoms: N1_6  and  C5_8 
REMARK    7  A    between atoms: C7_15  and  N4_16 
REMARK    8  A    between atoms: N6_21  and  O2_23 
REMARK    9  A    between atoms: C10_26  and  C11_27 
REMARK   10  A    between atoms: C11_27  and  N7_28 
ROOT
HETATM    1  O1  UNL     1       8.266  65.529   3.443  1.00  0.00    -0.327 OA
ENDROOT
BRANCH   1   2
HETATM    2  C2  UNL     1       7.721  64.967   2.291  1.00  0.00     0.158 C 
HETATM    3  C1  UNL     1       6.390  65.686   2.035  1.00  0.00     0.045 C 
BRANCH   2   4
HETATM    4  C9  UNL     1       7.493  63.500   2.449  1.00  0.00    -0.020 C 
HETATM    5  C10 UNL     1       6.906  63.054   3.555  1.00  0.00    -0.052 C 
HETATM    6  C17 UNL     1       6.668  61.572   3.756  1.00  0.00     0.066 C 
HETATM    7  C18 UNL     1       6.940  60.720   2.595  1.00  0.00     0.023 C 
HETATM    8  C19 UNL     1       5.694  59.850   2.328  1.00  0.00     0.038 C 
HETATM    9  C20 UNL     1       8.027  59.721   2.976  1.00  0.00     0.038 C 
HETATM   10  N8  UNL     1       7.286  61.317   1.383  1.00  0.00    -0.401 N 
HETATM   11  C21 UNL     1       7.949  62.576   1.421  1.00  0.00     0.045 C 
ATOM     12  H8  UNL     1       7.071  60.864   0.494  1.00  0.00     0.155 HD
HETATM   13  C22 UNL     1       9.434  62.323   1.577  1.00  0.00     0.043 C 
HETATM   14  C23 UNL     1       7.780  63.118  -0.012  1.00  0.00     0.043 C 
BRANCH   5  15
HETATM   15  C11 UNL     1       6.443  63.873   4.684  1.00  0.00     0.162 C 
BRANCH  15  16
HETATM   16  N7  UNL     1       5.052  63.692   4.990  1.00  0.00    -0.363 N 
HETATM   17  C12 UNL     1       4.131  63.658   4.016  1.00  0.00     0.090 A 
HETATM   18  C13 UNL     1       2.770  63.529   4.292  1.00  0.00     0.017 A 
HETATM   19  C14 UNL     1       2.374  63.434   5.603  1.00  0.00     0.003 A 
HETATM   20  C15 UNL     1       3.307  63.468   6.598  1.00  0.00     0.017 A 
HETATM   21  C16 UNL     1       4.640  63.598   6.255  1.00  0.00     0.090 A 
ENDBRANCH  15  16
ENDBRANCH   5  15
ENDBRANCH   2   4
ENDBRANCH   1   2
BRANCH   1  22
HETATM   22  C3  UNL     1       9.261  66.456   3.570  1.00  0.00     0.158 C 
HETATM   23  N6  UNL     1       8.915  67.655   3.824  1.00  0.00    -0.245 N 
HETATM   24  C8  UNL     1       9.951  68.670   3.969  1.00  0.00     0.187 C 
BRANCH  22  25
HETATM   25  C4  UNL     1      10.705  66.117   3.422  1.00  0.00     0.224 C 
BRANCH  25  26
HETATM   26  N1  UNL     1      11.356  65.904   4.704  1.00  0.00    -0.218 N 
ATOM     27  H1  UNL     1      10.858  66.029   5.585  1.00  0.00     0.178 HD
BRANCH  26  28
HETATM   28  C5  UNL     1      12.592  65.548   4.672  1.00  0.00     0.695 A 
HETATM   29  N2  UNL     1      13.269  65.130   5.766  1.00  0.00    -0.165 N 
HETATM   30  C6  UNL     1      14.555  64.761   5.721  1.00  0.00     0.208 A 
ATOM     31  H2  UNL     1      12.781  65.095   6.660  1.00  0.00     0.186 HD
HETATM   32 CL1  UNL     1      15.340  64.235   7.185  1.00  0.00    -0.044 Cl
HETATM   33  N3  UNL     1      15.239  64.790   4.577  1.00  0.00    -0.165 N 
HETATM   34  C7  UNL     1      14.595  65.201   3.470  1.00  0.00     0.692 A 
ATOM     35  H3  UNL     1      16.220  64.509   4.542  1.00  0.00     0.186 HD
HETATM   36  N5  UNL     1      13.290  65.575   3.517  1.00  0.00    -0.023 N 
ATOM     37  H5  UNL     1      12.827  65.882   2.661  1.00  0.00     0.203 HD
BRANCH  34  38
HETATM   38  N4  UNL     1      15.250  65.231   2.347  1.00  0.00    -0.234 N 
ATOM     39  H42 UNL     1      15.362  66.107   1.836  1.00  0.00     0.174 HD
ATOM     40  H41 UNL     1      15.645  64.361   1.992  1.00  0.00     0.174 HD
ENDBRANCH  34  38
ENDBRANCH  26  28
ENDBRANCH  25  26
ENDBRANCH  22  25
BRANCH  23  41
HETATM   41  O2  UNL     1       7.627  68.127   3.960  1.00  0.00    -0.286 OA
ATOM     42  H2  UNL     1       7.163  68.278   4.775  1.00  0.00     0.244 HD
ENDBRANCH  23  41
ENDBRANCH   1  22
TORSDOF 10
ENDMDL
MODEL 3
REMARK VINA RESULT: -7.950332108      2.925      4.829
REMARK  10 active torsions:
REMARK  status: ('A' for Active; 'I' for Inactive)
REMARK    1  A    between atoms: C2_2  and  O1_3 
REMARK    2  A    between atoms: C2_2  and  C9_25 
REMARK    3  A    between atoms: O1_3  and  C3_4 
REMARK    4  A    between atoms: C3_4  and  C4_5 
REMARK    5  A    between atoms: C4_5  and  N1_6 
REMARK    6  A    between atoms: N1_6  and  C5_8 
REMARK    7  A    between atoms: C7_15  and  N4_16 
REMARK    8  A    between atoms: N6_21  and  O2_23 
REMARK    9  A    between atoms: C10_26  and  C11_27 
REMARK   10  A    between atoms: C11_27  and  N7_28 
ROOT
HETATM    1  O1  UNL     1      11.050  64.704   2.166  1.00  0.00    -0.327 OA
ENDROOT
BRANCH   1   2
HETATM    2  C2  UNL     1       9.885  65.454   2.022  1.00  0.00     0.158 C 
HETATM    3  C1  UNL     1       9.306  65.646   3.430  1.00  0.00     0.045 C 
BRANCH   2   4
HETATM    4  C9  UNL     1       8.892  64.767   1.144  1.00  0.00    -0.020 C 
HETATM    5  C10 UNL     1       8.694  63.461   1.295  1.00  0.00    -0.052 C 
HETATM    6  C17 UNL     1       7.703  62.727   0.417  1.00  0.00     0.066 C 
HETATM    7  C18 UNL     1       6.865  63.570  -0.441  1.00  0.00     0.023 C 
HETATM    8  C19 UNL     1       5.389  63.191  -0.203  1.00  0.00     0.038 C 
HETATM    9  C20 UNL     1       7.127  63.188  -1.894  1.00  0.00     0.038 C 
HETATM   10  N8  UNL     1       6.953  64.958  -0.321  1.00  0.00    -0.401 N 
HETATM   11  C21 UNL     1       8.188  65.516   0.114  1.00  0.00     0.045 C 
ATOM     12  H8  UNL     1       6.155  65.555  -0.539  1.00  0.00     0.155 HD
HETATM   13  C22 UNL     1       9.080  65.689  -1.096  1.00  0.00     0.043 C 
HETATM   14  C23 UNL     1       7.807  66.946   0.544  1.00  0.00     0.043 C 
BRANCH   5  15
HETATM   15  C11 UNL     1       9.371  62.584   2.262  1.00  0.00     0.162 C 
BRANCH  15  16
HETATM   16  N7  UNL     1       8.496  61.629   2.879  1.00  0.00    -0.363 N 
HETATM   17  C12 UNL     1       8.491  60.346   2.487  1.00  0.00     0.090 A 
HETATM   18  C13 UNL     1       7.618  59.409   3.040  1.00  0.00     0.017 A 
HETATM   19  C14 UNL     1       6.743  59.825   4.013  1.00  0.00     0.003 A 
HETATM   20  C15 UNL     1       6.744  61.128   4.414  1.00  0.00     0.017 A 
HETATM   21  C16 UNL     1       7.635  62.005   3.825  1.00  0.00     0.090 A 
ENDBRANCH  15  16
ENDBRANCH   5  15
ENDBRANCH   2   4
ENDBRANCH   1   2
BRANCH   1  22
HETATM   22  C3  UNL     1      12.352  65.114   2.170  1.00  0.00     0.158 C 
HETATM   23  N6  UNL     1      12.933  65.232   1.043  1.00  0.00    -0.245 N 
HETATM   24  C8  UNL     1      14.322  65.671   1.009  1.00  0.00     0.187 C 
BRANCH  22  25
HETATM   25  C4  UNL     1      13.098  65.422   3.423  1.00  0.00     0.224 C 
BRANCH  25  26
HETATM   26  N1  UNL     1      14.148  64.454   3.693  1.00  0.00    -0.218 N 
ATOM     27  H1  UNL     1      14.599  63.930   2.943  1.00  0.00     0.178 HD
BRANCH  26  28
HETATM   28  C5  UNL     1      14.481  64.290   4.925  1.00  0.00     0.695 A 
HETATM   29  N2  UNL     1      15.388  63.372   5.330  1.00  0.00    -0.165 N 
HETATM   30  C6  UNL     1      15.728  63.212   6.615  1.00  0.00     0.208 A 
ATOM     31  H2  UNL     1      15.830  62.778   4.628  1.00  0.00     0.186 HD
HETATM   32 CL1  UNL     1      16.909  62.002   7.036  1.00  0.00    -0.044 Cl
HETATM   33  N3  UNL     1      15.179  63.962   7.570  1.00  0.00    -0.165 N 
HETATM   34  C7  UNL     1      14.272  64.885   7.201  1.00  0.00     0.692 A 
ATOM     35  H3  UNL     1      15.437  63.840   8.550  1.00  0.00     0.186 HD
HETATM   36  N5  UNL     1      13.929  65.047   5.897  1.00  0.00    -0.023 N 
ATOM     37  H5  UNL     1      13.238  65.755   5.646  1.00  0.00     0.203 HD
BRANCH  34  38
HETATM   38  N4  UNL     1      13.731  65.625   8.123  1.00  0.00    -0.234 N 
ATOM     39  H42 UNL     1      14.285  66.324   8.617  1.00  0.00     0.174 HD
ATOM     40  H41 UNL     1      12.744  65.486   8.339  1.00  0.00     0.174 HD
ENDBRANCH  34  38
ENDBRANCH  26  28
ENDBRANCH  25  26
ENDBRANCH  22  25
BRANCH  23  41
HETATM   41  O2  UNL     1      12.388  64.959  -0.194  1.00  0.00    -0.286 OA
ATOM     42  H2  UNL     1      11.935  65.572  -0.760  1.00  0.00     0.244 HD
ENDBRANCH  23  41
ENDBRANCH   1  22
TORSDOF 10
ENDMDL
MODEL 4
REMARK VINA RESULT: -7.934924889      2.887      4.728
REMARK  10 active torsions:
REMARK  status: ('A' for Active; 'I' for Inactive)
REMARK    1  A    between atoms: C2_2  and  O1_3 
REMARK    2  A    between atoms: C2_2  and  C9_25 
REMARK    3  A    between atoms: O1_3  and  C3_4 
REMARK    4  A    between atoms: C3_4  and  C4_5 
REMARK    5  A    between atoms: C4_5  and  N1_6 
REMARK    6  A    between atoms: N1_6  and  C5_8 
REMARK    7  A    between atoms: C7_15  and  N4_16 
REMARK    8  A    between atoms: N6_21  and  O2_23 
REMARK    9  A    between atoms: C10_26  and  C11_27 
REMARK   10  A    between atoms: C11_27  and  N7_28 
ROOT
HETATM    1  O1  UNL     1      11.990  64.812   1.311  1.00  0.00    -0.327 OA
ENDROOT
BRANCH   1   2
HETATM    2  C2  UNL     1      11.222  63.653   1.405  1.00  0.00     0.158 C 
HETATM    3  C1  UNL     1      11.938  62.579   0.575  1.00  0.00     0.045 C 
BRANCH   2   4
HETATM    4  C9  UNL     1       9.837  63.868   0.888  1.00  0.00    -0.020 C 
HETATM    5  C10 UNL     1       8.805  63.603   1.682  1.00  0.00    -0.052 C 
HETATM    6  C17 UNL     1       7.386  63.798   1.191  1.00  0.00     0.066 C 
HETATM    7  C18 UNL     1       7.248  64.467  -0.106  1.00  0.00     0.023 C 
HETATM    8  C19 UNL     1       6.273  65.652   0.059  1.00  0.00     0.038 C 
HETATM    9  C20 UNL     1       6.534  63.519  -1.063  1.00  0.00     0.038 C 
HETATM   10  N8  UNL     1       8.389  64.964  -0.737  1.00  0.00    -0.401 N 
HETATM   11  C21 UNL     1       9.632  64.320  -0.479  1.00  0.00     0.045 C 
ATOM     12  H8  UNL     1       8.334  65.766  -1.365  1.00  0.00     0.155 HD
HETATM   13  C22 UNL     1       9.765  63.153  -1.433  1.00  0.00     0.043 C 
HETATM   14  C23 UNL     1      10.677  65.349  -0.951  1.00  0.00     0.043 C 
BRANCH   5  15
HETATM   15  C11 UNL     1       8.875  63.100   3.062  1.00  0.00     0.162 C 
BRANCH  15  16
HETATM   16  N7  UNL     1       8.222  61.834   3.244  1.00  0.00    -0.363 N 
HETATM   17  C12 UNL     1       7.273  61.677   4.177  1.00  0.00     0.090 A 
HETATM   18  C13 UNL     1       6.656  60.446   4.403  1.00  0.00     0.017 A 
HETATM   19  C14 UNL     1       7.042  59.373   3.640  1.00  0.00     0.003 A 
HETATM   20  C15 UNL     1       8.007  59.527   2.689  1.00  0.00     0.017 A 
HETATM   21  C16 UNL     1       8.578  60.774   2.517  1.00  0.00     0.090 A 
ENDBRANCH  15  16
ENDBRANCH   5  15
ENDBRANCH   2   4
ENDBRANCH   1   2
BRANCH   1  22
HETATM   22  C3  UNL     1      12.449  65.631   2.303  1.00  0.00     0.158 C 
HETATM   23  N6  UNL     1      11.640  66.495   2.771  1.00  0.00    -0.245 N 
HETATM   24  C8  UNL     1      12.095  67.384   3.832  1.00  0.00     0.187 C 
BRANCH  22  25
HETATM   25  C4  UNL     1      13.837  65.549   2.841  1.00  0.00     0.224 C 
BRANCH  25  26
HETATM   26  N1  UNL     1      14.157  64.222   3.341  1.00  0.00    -0.218 N 
ATOM     27  H1  UNL     1      14.112  63.399   2.741  1.00  0.00     0.178 HD
BRANCH  26  28
HETATM   28  C5  UNL     1      14.502  64.138   4.577  1.00  0.00     0.695 A 
HETATM   29  N2  UNL     1      15.390  63.227   5.037  1.00  0.00    -0.165 N 
HETATM   30  C6  UNL     1      15.742  63.149   6.326  1.00  0.00     0.208 A 
ATOM     31  H2  UNL     1      15.807  62.573   4.375  1.00  0.00     0.186 HD
HETATM   32 CL1  UNL     1      16.897  61.941   6.820  1.00  0.00    -0.044 Cl
HETATM   33  N3  UNL     1      15.225  63.981   7.232  1.00  0.00    -0.165 N 
HETATM   34  C7  UNL     1      14.339  64.899   6.808  1.00  0.00     0.692 A 
ATOM     35  H3  UNL     1      15.493  63.922   8.214  1.00  0.00     0.186 HD
HETATM   36  N5  UNL     1      13.982  64.977   5.499  1.00  0.00    -0.023 N 
ATOM     37  H5  UNL     1      13.308  65.684   5.206  1.00  0.00     0.203 HD
BRANCH  34  38
HETATM   38  N4  UNL     1      13.829  65.717   7.680  1.00  0.00    -0.234 N 
ATOM     39  H42 UNL     1      13.177  65.379   8.388  1.00  0.00     0.174 HD
ATOM     40  H41 UNL     1      14.096  66.700   7.637  1.00  0.00     0.174 HD
ENDBRANCH  34  38
ENDBRANCH  26  28
ENDBRANCH  25  26
ENDBRANCH  22  25
BRANCH  23  41
HETATM   41  O2  UNL     1      10.342  66.712   2.359  1.00  0.00    -0.286 OA
ATOM     42  H2  UNL     1      10.059  67.285   1.656  1.00  0.00     0.244 HD
ENDBRANCH  23  41
ENDBRANCH   1  22
TORSDOF 10
ENDMDL
MODEL 5
REMARK VINA RESULT: -7.869553417      1.044      1.453
REMARK  10 active torsions:
REMARK  status: ('A' for Active; 'I' for Inactive)
REMARK    1  A    between atoms: C2_2  and  O1_3 
REMARK    2  A    between atoms: C2_2  and  C9_25 
REMARK    3  A    between atoms: O1_3  and  C3_4 
REMARK    4  A    between atoms: C3_4  and  C4_5 
REMARK    5  A    between atoms: C4_5  and  N1_6 
REMARK    6  A    between atoms: N1_6  and  C5_8 
REMARK    7  A    between atoms: C7_15  and  N4_16 
REMARK    8  A    between atoms: N6_21  and  O2_23 
REMARK    9  A    between atoms: C10_26  and  C11_27 
REMARK   10  A    between atoms: C11_27  and  N7_28 
ROOT
HETATM    1  O1  UNL     1       7.787  65.142   3.602  1.00  0.00    -0.327 OA
ENDROOT
BRANCH   1   2
HETATM    2  C2  UNL     1       7.383  64.496   2.436  1.00  0.00     0.158 C 
HETATM    3  C1  UNL     1       6.081  65.172   1.984  1.00  0.00     0.045 C 
BRANCH   2   4
HETATM    4  C9  UNL     1       7.156  63.038   2.665  1.00  0.00    -0.020 C 
HETATM    5  C10 UNL     1       6.618  62.642   3.814  1.00  0.00    -0.052 C 
HETATM    6  C17 UNL     1       6.382  61.172   4.087  1.00  0.00     0.066 C 
HETATM    7  C18 UNL     1       6.595  60.271   2.951  1.00  0.00     0.023 C 
HETATM    8  C19 UNL     1       5.334  59.399   2.777  1.00  0.00     0.038 C 
HETATM    9  C20 UNL     1       7.694  59.280   3.322  1.00  0.00     0.038 C 
HETATM   10  N8  UNL     1       6.889  60.816   1.700  1.00  0.00    -0.401 N 
HETATM   11  C21 UNL     1       7.559  62.070   1.656  1.00  0.00     0.045 C 
ATOM     12  H8  UNL     1       6.630  60.328   0.841  1.00  0.00     0.155 HD
HETATM   13  C22 UNL     1       9.047  61.814   1.753  1.00  0.00     0.043 C 
HETATM   14  C23 UNL     1       7.326  62.554   0.211  1.00  0.00     0.043 C 
BRANCH   5  15
HETATM   15  C11 UNL     1       6.211  63.510   4.929  1.00  0.00     0.162 C 
BRANCH  15  16
HETATM   16  N7  UNL     1       4.810  63.434   5.232  1.00  0.00    -0.363 N 
HETATM   17  C12 UNL     1       3.900  63.310   4.255  1.00  0.00     0.090 A 
HETATM   18  C13 UNL     1       2.531  63.280   4.521  1.00  0.00     0.017 A 
HETATM   19  C14 UNL     1       2.117  63.381   5.825  1.00  0.00     0.003 A 
HETATM   20  C15 UNL     1       3.038  63.509   6.823  1.00  0.00     0.017 A 
HETATM   21  C16 UNL     1       4.379  63.532   6.490  1.00  0.00     0.090 A 
ENDBRANCH  15  16
ENDBRANCH   5  15
ENDBRANCH   2   4
ENDBRANCH   1   2
BRANCH   1  22
HETATM   22  C3  UNL     1       8.381  66.361   3.758  1.00  0.00     0.158 C 
HETATM   23  N6  UNL     1       7.669  67.304   4.231  1.00  0.00    -0.245 N 
HETATM   24  C8  UNL     1       8.272  68.619   4.414  1.00  0.00     0.187 C 
BRANCH  22  25
HETATM   25  C4  UNL     1       9.805  66.618   3.398  1.00  0.00     0.224 C 
BRANCH  25  26
HETATM   26  N1  UNL     1      10.731  65.964   4.308  1.00  0.00    -0.218 N 
ATOM     27  H1  UNL     1      10.643  66.056   5.319  1.00  0.00     0.178 HD
BRANCH  26  28
HETATM   28  C5  UNL     1      11.667  65.262   3.773  1.00  0.00     0.695 A 
HETATM   29  N2  UNL     1      11.495  64.536   2.645  1.00  0.00    -0.165 N 
HETATM   30  C6  UNL     1      12.477  63.810   2.096  1.00  0.00     0.208 A 
ATOM     31  H2  UNL     1      10.580  64.542   2.194  1.00  0.00     0.186 HD
HETATM   32 CL1  UNL     1      12.156  62.910   0.639  1.00  0.00    -0.044 Cl
HETATM   33  N3  UNL     1      13.691  63.768   2.647  1.00  0.00    -0.165 N 
HETATM   34  C7  UNL     1      13.896  64.478   3.771  1.00  0.00     0.692 A 
ATOM     35  H3  UNL     1      14.439  63.214   2.230  1.00  0.00     0.186 HD
HETATM   36  N5  UNL     1      12.898  65.215   4.326  1.00  0.00    -0.023 N 
ATOM     37  H5  UNL     1      13.083  65.744   5.178  1.00  0.00     0.203 HD
BRANCH  34  38
HETATM   38  N4  UNL     1      15.075  64.447   4.316  1.00  0.00    -0.234 N 
ATOM     39  H42 UNL     1      15.682  63.636   4.194  1.00  0.00     0.174 HD
ATOM     40  H41 UNL     1      15.376  65.250   4.869  1.00  0.00     0.174 HD
ENDBRANCH  34  38
ENDBRANCH  26  28
ENDBRANCH  25  26
ENDBRANCH  22  25
BRANCH  23  41
HETATM   41  O2  UNL     1       6.338  67.231   4.583  1.00  0.00    -0.286 OA
ATOM     42  H2  UNL     1       5.816  67.923   4.973  1.00  0.00     0.244 HD
ENDBRANCH  23  41
ENDBRANCH   1  22
TORSDOF 10
ENDMDL
