MODEL 1
REMARK VINA RESULT: -7.629276165      0.000      0.000
REMARK  9 active torsions:
REMARK  status: ('A' for Active; 'I' for Inactive)
REMARK    1  A    between atoms: C2_2  and  N1_3 
REMARK    2  A    between atoms: N1_3  and  C3_5 
REMARK    3  A    between atoms: N5_18  and  C8_19 
REMARK    4  A    between atoms: C9_21  and  C10_22 
REMARK    5  A    between atoms: C10_22  and  C11_23 
REMARK    6  A    between atoms: C11_23  and  C12_24 
REMARK    7  A    between atoms: C12_24  and  C14_26 
REMARK    8  A    between atoms: C15_28  and  O3_29 
REMARK    9  A    between atoms: C16_31  and  O4_32 
ROOT
HETATM    1  C3  UNL     1      11.882  63.816   1.024  1.00  0.00     0.687 A 
HETATM    2  N2  UNL     1      12.972  64.203   0.326  1.00  0.00    -0.154 N 
ATOM      3  H2  UNL     1      13.853  64.377   0.808  1.00  0.00     0.187 HD
HETATM    4  C4  UNL     1      12.891  64.359  -1.006  1.00  0.00     0.290 A 
HETATM    5  O1  UNL     1      13.914  64.724  -1.667  1.00  0.00    -0.265 OA
HETATM    6  C5  UNL     1      11.705  64.123  -1.640  1.00  0.00     0.149 A 
HETATM    7  N3  UNL     1      11.326  64.194  -2.937  1.00  0.00    -0.329 N 
ATOM      8  H3  UNL     1      11.923  64.460  -3.721  1.00  0.00     0.168 HD
HETATM    9  C6  UNL     1      10.029  63.853  -3.016  1.00  0.00     0.155 A 
HETATM   10 BR1  UNL     1       9.015  63.798  -4.648  1.00  0.00    -0.010 Br
HETATM   11  N4  UNL     1       9.617  63.577  -1.779  1.00  0.00    -0.320 N 
ATOM     12  H4  UNL     1       8.669  63.288  -1.536  1.00  0.00     0.169 HD
HETATM   13  C7  UNL     1      10.626  63.732  -0.887  1.00  0.00     0.161 A 
HETATM   14  N5  UNL     1      10.680  63.564   0.474  1.00  0.00    -0.136 N 
ENDROOT
BRANCH  14  15
HETATM   15  C8  UNL     1       9.502  63.161   1.110  1.00  0.00     0.279 C 
HETATM   16  O2  UNL     1       9.558  61.993   1.885  1.00  0.00    -0.355 OA
HETATM   17  C9  UNL     1       8.203  61.792   2.139  1.00  0.00     0.155 C 
HETATM   18  C15 UNL     1       7.549  63.154   2.278  1.00  0.00     0.180 C 
HETATM   19  C16 UNL     1       8.781  64.062   2.033  1.00  0.00     0.199 C 
BRANCH  17  20
HETATM   20  C10 UNL     1       7.975  60.929   3.355  1.00  0.00     0.035 C 
BRANCH  20  21
HETATM   21  C11 UNL     1       7.956  59.466   3.020  1.00  0.00     0.007 C 
BRANCH  21  22
HETATM   22  C12 UNL     1       6.870  58.718   3.742  1.00  0.00    -0.009 C 
HETATM   23  C13 UNL     1       5.579  58.762   2.936  1.00  0.00     0.011 C 
BRANCH  22  24
HETATM   24  C14 UNL     1       7.239  57.267   3.962  1.00  0.00     0.089 C 
HETATM   25 BR2  UNL     1       5.886  56.089   3.221  1.00  0.00    -0.096 Br
ENDBRANCH  22  24
ENDBRANCH  21  22
ENDBRANCH  20  21
ENDBRANCH  17  20
BRANCH  18  26
HETATM   26  O3  UNL     1       6.658  63.391   1.229  1.00  0.00    -0.390 OA
ATOM     27  H3  UNL     1       7.114  63.431   0.397  1.00  0.00     0.210 HD
ENDBRANCH  18  26
BRANCH  19  28
HETATM   28  O4  UNL     1       8.400  65.275   1.518  1.00  0.00    -0.388 OA
ATOM     29  H4  UNL     1       9.040  65.974   1.578  1.00  0.00     0.210 HD
ENDBRANCH  19  28
ENDBRANCH  14  15
BRANCH   1  30
HETATM   30  N1  UNL     1      11.962  63.666   2.303  1.00  0.00    -0.226 N 
ATOM     31  H1  UNL     1      11.698  62.758   2.688  1.00  0.00     0.177 HD
BRANCH  30  32
HETATM   32  C2  UNL     1      12.391  64.668   3.222  1.00  0.00     0.133 C 
HETATM   33  C1  UNL     1      13.780  64.422   3.765  1.00  0.00     0.027 C 
ENDBRANCH  30  32
ENDBRANCH   1  30
TORSDOF 9
ENDMDL
MODEL 2
REMARK VINA RESULT: -7.620354552      2.914      4.403
REMARK  9 active torsions:
REMARK  status: ('A' for Active; 'I' for Inactive)
REMARK    1  A    between atoms: C2_2  and  N1_3 
REMARK    2  A    between atoms: N1_3  and  C3_5 
REMARK    3  A    between atoms: N5_18  and  C8_19 
REMARK    4  A    between atoms: C9_21  and  C10_22 
REMARK    5  A    between atoms: C10_22  and  C11_23 
REMARK    6  A    between atoms: C11_23  and  C12_24 
REMARK    7  A    between atoms: C12_24  and  C14_26 
REMARK    8  A    between atoms: C15_28  and  O3_29 
REMARK    9  A    between atoms: C16_31  and  O4_32 
ROOT
HETATM    1  C3  UNL     1      12.331  64.802   0.516  1.00  0.00     0.687 A 
HETATM    2  N2  UNL     1      13.594  65.227   0.291  1.00  0.00    -0.154 N 
ATOM      3  H2  UNL     1      13.923  65.369  -0.664  1.00  0.00     0.187 HD
HETATM    4  C4  UNL     1      14.414  65.462   1.328  1.00  0.00     0.290 A 
HETATM    5  O1  UNL     1      15.603  65.862   1.121  1.00  0.00    -0.265 OA
HETATM    6  C5  UNL     1      13.961  65.268   2.601  1.00  0.00     0.149 A 
HETATM    7  N3  UNL     1      14.540  65.417   3.816  1.00  0.00    -0.329 N 
ATOM      8  H3  UNL     1      15.496  65.726   3.988  1.00  0.00     0.168 HD
HETATM    9  C6  UNL     1      13.638  65.087   4.755  1.00  0.00     0.155 A 
HETATM   10 BR1  UNL     1      13.971  65.130   6.647  1.00  0.00    -0.010 Br
HETATM   11  N4  UNL     1      12.517  64.738   4.122  1.00  0.00    -0.320 N 
ATOM     12  H4  UNL     1      11.659  64.439   4.587  1.00  0.00     0.169 HD
HETATM   13  C7  UNL     1      12.670  64.835   2.778  1.00  0.00     0.161 A 
HETATM   14  N5  UNL     1      11.811  64.588   1.738  1.00  0.00    -0.136 N 
ENDROOT
BRANCH  14  15
HETATM   15  C8  UNL     1      10.525  64.151   2.070  1.00  0.00     0.279 C 
HETATM   16  O2  UNL     1      10.420  62.947   2.783  1.00  0.00    -0.355 OA
HETATM   17  C9  UNL     1       9.045  62.730   2.712  1.00  0.00     0.155 C 
HETATM   18  C15 UNL     1       8.358  64.082   2.761  1.00  0.00     0.180 C 
HETATM   19  C16 UNL     1       9.600  65.004   2.845  1.00  0.00     0.199 C 
BRANCH  17  20
HETATM   20  C10 UNL     1       8.558  61.809   3.803  1.00  0.00     0.035 C 
BRANCH  20  21
HETATM   21  C11 UNL     1       7.974  60.538   3.258  1.00  0.00     0.007 C 
BRANCH  21  22
HETATM   22  C12 UNL     1       6.649  60.194   3.879  1.00  0.00    -0.009 C 
HETATM   23  C13 UNL     1       5.638  61.298   3.602  1.00  0.00     0.011 C 
BRANCH  22  24
HETATM   24  C14 UNL     1       6.093  58.898   3.332  1.00  0.00     0.089 C 
HETATM   25 BR2  UNL     1       7.202  57.394   3.857  1.00  0.00    -0.096 Br
ENDBRANCH  22  24
ENDBRANCH  21  22
ENDBRANCH  20  21
ENDBRANCH  17  20
BRANCH  18  26
HETATM   26  O3  UNL     1       7.725  64.366   1.549  1.00  0.00    -0.390 OA
ATOM     27  H3  UNL     1       7.818  63.643   0.938  1.00  0.00     0.210 HD
ENDBRANCH  18  26
BRANCH  19  28
HETATM   28  O4  UNL     1       9.329  66.239   2.314  1.00  0.00    -0.388 OA
ATOM     29  H4  UNL     1       8.641  66.736   2.740  1.00  0.00     0.210 HD
ENDBRANCH  19  28
ENDBRANCH  14  15
BRANCH   1  30
HETATM   30  N1  UNL     1      11.545  64.578  -0.482  1.00  0.00    -0.226 N 
ATOM     31  H1  UNL     1      10.547  64.492  -0.284  1.00  0.00     0.177 HD
BRANCH  30  32
HETATM   32  C2  UNL     1      11.959  64.440  -1.839  1.00  0.00     0.133 C 
HETATM   33  C1  UNL     1      10.861  63.938  -2.749  1.00  0.00     0.027 C 
ENDBRANCH  30  32
ENDBRANCH   1  30
TORSDOF 9
ENDMDL
MODEL 3
REMARK VINA RESULT: -7.502517239      3.373      4.585
REMARK  9 active torsions:
REMARK  status: ('A' for Active; 'I' for Inactive)
REMARK    1  A    between atoms: C2_2  and  N1_3 
REMARK    2  A    between atoms: N1_3  and  C3_5 
REMARK    3  A    between atoms: N5_18  and  C8_19 
REMARK    4  A    between atoms: C9_21  and  C10_22 
REMARK    5  A    between atoms: C10_22  and  C11_23 
REMARK    6  A    between atoms: C11_23  and  C12_24 
REMARK    7  A    between atoms: C12_24  and  C14_26 
REMARK    8  A    between atoms: C15_28  and  O3_29 
REMARK    9  A    between atoms: C16_31  and  O4_32 
ROOT
HETATM    1  C3  UNL     1      10.853  66.351   4.040  1.00  0.00     0.687 A 
HETATM    2  N2  UNL     1      10.711  67.596   4.544  1.00  0.00    -0.154 N 
ATOM      3  H2  UNL     1      11.301  67.906   5.316  1.00  0.00     0.187 HD
HETATM    4  C4  UNL     1       9.792  68.425   4.024  1.00  0.00     0.290 A 
HETATM    5  O1  UNL     1       9.655  69.599   4.495  1.00  0.00    -0.265 OA
HETATM    6  C5  UNL     1       9.009  68.000   2.990  1.00  0.00     0.149 A 
HETATM    7  N3  UNL     1       8.022  68.593   2.279  1.00  0.00    -0.329 N 
ATOM      8  H3  UNL     1       7.675  69.542   2.415  1.00  0.00     0.168 HD
HETATM    9  C6  UNL     1       7.579  67.717   1.361  1.00  0.00     0.155 A 
HETATM   10 BR1  UNL     1       6.177  68.078   0.099  1.00  0.00    -0.010 Br
HETATM   11  N4  UNL     1       8.286  66.597   1.510  1.00  0.00    -0.320 N 
ATOM     12  H4  UNL     1       8.165  65.756   0.945  1.00  0.00     0.169 HD
HETATM   13  C7  UNL     1       9.190  66.725   2.514  1.00  0.00     0.161 A 
HETATM   14  N5  UNL     1      10.121  65.857   3.024  1.00  0.00    -0.136 N 
ENDROOT
BRANCH  14  15
HETATM   15  C8  UNL     1      10.193  64.589   2.439  1.00  0.00     0.279 C 
HETATM   16  O2  UNL     1       9.074  63.754   2.577  1.00  0.00    -0.355 OA
HETATM   17  C9  UNL     1       9.596  62.552   2.100  1.00  0.00     0.155 C 
HETATM   18  C15 UNL     1      10.574  62.878   0.988  1.00  0.00     0.180 C 
HETATM   19  C16 UNL     1      10.476  64.424   0.997  1.00  0.00     0.199 C 
BRANCH  17  20
HETATM   20  C10 UNL     1       8.514  61.605   1.643  1.00  0.00     0.035 C 
BRANCH  20  21
HETATM   21  C11 UNL     1       8.433  60.376   2.500  1.00  0.00     0.007 C 
BRANCH  21  22
HETATM   22  C12 UNL     1       7.017  59.949   2.771  1.00  0.00    -0.009 C 
HETATM   23  C13 UNL     1       6.997  58.796   3.764  1.00  0.00     0.011 C 
BRANCH  22  24
HETATM   24  C14 UNL     1       6.191  61.079   3.345  1.00  0.00     0.089 C 
HETATM   25 BR2  UNL     1       6.936  61.696   5.027  1.00  0.00    -0.096 Br
ENDBRANCH  22  24
ENDBRANCH  21  22
ENDBRANCH  20  21
ENDBRANCH  17  20
BRANCH  18  26
HETATM   26  O3  UNL     1      11.881  62.553   1.359  1.00  0.00    -0.390 OA
ATOM     27  H3  UNL     1      12.479  63.265   1.159  1.00  0.00     0.210 HD
ENDBRANCH  18  26
BRANCH  19  28
HETATM   28  O4  UNL     1      11.639  64.991   0.541  1.00  0.00    -0.388 OA
ATOM     29  H4  UNL     1      11.821  64.885  -0.384  1.00  0.00     0.210 HD
ENDBRANCH  19  28
ENDBRANCH  14  15
BRANCH   1  30
HETATM   30  N1  UNL     1      11.737  65.555   4.540  1.00  0.00    -0.226 N 
ATOM     31  H1  UNL     1      11.400  64.758   5.081  1.00  0.00     0.177 HD
BRANCH  30  32
HETATM   32  C2  UNL     1      13.148  65.702   4.396  1.00  0.00     0.133 C 
HETATM   33  C1  UNL     1      13.787  64.574   3.620  1.00  0.00     0.027 C 
ENDBRANCH  30  32
ENDBRANCH   1  30
TORSDOF 9
ENDMDL
MODEL 4
REMARK VINA RESULT: -7.483004922      3.253      4.599
REMARK  9 active torsions:
REMARK  status: ('A' for Active; 'I' for Inactive)
REMARK    1  A    between atoms: C2_2  and  N1_3 
REMARK    2  A    between atoms: N1_3  and  C3_5 
REMARK    3  A    between atoms: N5_18  and  C8_19 
REMARK    4  A    between atoms: C9_21  and  C10_22 
REMARK    5  A    between atoms: C10_22  and  C11_23 
REMARK    6  A    between atoms: C11_23  and  C12_24 
REMARK    7  A    between atoms: C12_24  and  C14_26 
REMARK    8  A    between atoms: C15_28  and  O3_29 
REMARK    9  A    between atoms: C16_31  and  O4_32 
ROOT
HETATM    1  C3  UNL     1      11.738  66.801   3.366  1.00  0.00     0.687 A 
HETATM    2  N2  UNL     1      11.576  68.050   3.853  1.00  0.00    -0.154 N 
ATOM      3  H2  UNL     1      12.335  68.503   4.361  1.00  0.00     0.187 HD
HETATM    4  C4  UNL     1      10.413  68.694   3.666  1.00  0.00     0.290 A 
HETATM    5  O1  UNL     1      10.256  69.870   4.123  1.00  0.00    -0.265 OA
HETATM    6  C5  UNL     1       9.404  68.077   2.984  1.00  0.00     0.149 A 
HETATM    7  N3  UNL     1       8.151  68.463   2.647  1.00  0.00    -0.329 N 
ATOM      8  H3  UNL     1       7.722  69.361   2.870  1.00  0.00     0.168 HD
HETATM    9  C6  UNL     1       7.570  67.460   1.967  1.00  0.00     0.155 A 
HETATM   10 BR1  UNL     1       5.782  67.513   1.266  1.00  0.00    -0.010 Br
HETATM   11  N4  UNL     1       8.458  66.469   1.889  1.00  0.00    -0.320 N 
ATOM     12  H4  UNL     1       8.289  65.576   1.425  1.00  0.00     0.169 HD
HETATM   13  C7  UNL     1       9.616  66.807   2.509  1.00  0.00     0.161 A 
HETATM   14  N5  UNL     1      10.794  66.125   2.684  1.00  0.00    -0.136 N 
ENDROOT
BRANCH  14  15
HETATM   15  C8  UNL     1      10.867  64.837   2.145  1.00  0.00     0.279 C 
HETATM   16  O2  UNL     1       9.743  64.012   2.302  1.00  0.00    -0.355 OA
HETATM   17  C9  UNL     1      10.264  62.792   1.874  1.00  0.00     0.155 C 
HETATM   18  C15 UNL     1      11.254  63.074   0.759  1.00  0.00     0.180 C 
HETATM   19  C16 UNL     1      11.162  64.621   0.713  1.00  0.00     0.199 C 
BRANCH  17  20
HETATM   20  C10 UNL     1       9.183  61.833   1.440  1.00  0.00     0.035 C 
BRANCH  20  21
HETATM   21  C11 UNL     1       7.985  61.878   2.343  1.00  0.00     0.007 C 
BRANCH  21  22
HETATM   22  C12 UNL     1       8.035  60.837   3.427  1.00  0.00    -0.009 C 
HETATM   23  C13 UNL     1       6.794  60.933   4.303  1.00  0.00     0.011 C 
BRANCH  22  24
HETATM   24  C14 UNL     1       8.102  59.437   2.856  1.00  0.00     0.089 C 
HETATM   25 BR2  UNL     1       6.931  58.236   3.831  1.00  0.00    -0.096 Br
ENDBRANCH  22  24
ENDBRANCH  21  22
ENDBRANCH  20  21
ENDBRANCH  17  20
BRANCH  18  26
HETATM   26  O3  UNL     1      12.556  62.759   1.154  1.00  0.00    -0.390 OA
ATOM     27  H3  UNL     1      13.011  63.529   1.476  1.00  0.00     0.210 HD
ENDBRANCH  18  26
BRANCH  19  28
HETATM   28  O4  UNL     1      12.331  65.167   0.248  1.00  0.00    -0.388 OA
ATOM     29  H4  UNL     1      12.422  65.219  -0.696  1.00  0.00     0.210 HD
ENDBRANCH  19  28
ENDBRANCH  14  15
BRANCH   1  30
HETATM   30  N1  UNL     1      12.857  66.183   3.546  1.00  0.00    -0.226 N 
ATOM     31  H1  UNL     1      13.423  65.987   2.720  1.00  0.00     0.177 HD
BRANCH  30  32
HETATM   32  C2  UNL     1      13.364  65.755   4.807  1.00  0.00     0.133 C 
HETATM   33  C1  UNL     1      14.663  64.990   4.697  1.00  0.00     0.027 C 
ENDBRANCH  30  32
ENDBRANCH   1  30
TORSDOF 9
ENDMDL
MODEL 5
REMARK VINA RESULT: -7.351967422      3.360      4.700
REMARK  9 active torsions:
REMARK  status: ('A' for Active; 'I' for Inactive)
REMARK    1  A    between atoms: C2_2  and  N1_3 
REMARK    2  A    between atoms: N1_3  and  C3_5 
REMARK    3  A    between atoms: N5_18  and  C8_19 
REMARK    4  A    between atoms: C9_21  and  C10_22 
REMARK    5  A    between atoms: C10_22  and  C11_23 
REMARK    6  A    between atoms: C11_23  and  C12_24 
REMARK    7  A    between atoms: C12_24  and  C14_26 
REMARK    8  A    between atoms: C15_28  and  O3_29 
REMARK    9  A    between atoms: C16_31  and  O4_32 
ROOT
HETATM    1  C3  UNL     1      11.260  66.344   3.243  1.00  0.00     0.687 A 
HETATM    2  N2  UNL     1      11.221  67.576   3.796  1.00  0.00    -0.154 N 
ATOM      3  H2  UNL     1      12.087  68.084   3.975  1.00  0.00     0.187 HD
HETATM    4  C4  UNL     1      10.039  68.130   4.109  1.00  0.00     0.290 A 
HETATM    5  O1  UNL     1       9.997  69.289   4.630  1.00  0.00    -0.265 OA
HETATM    6  C5  UNL     1       8.887  67.440   3.865  1.00  0.00     0.149 A 
HETATM    7  N3  UNL     1       7.580  67.730   4.067  1.00  0.00    -0.329 N 
ATOM      8  H3  UNL     1       7.215  68.591   4.473  1.00  0.00     0.168 HD
HETATM    9  C6  UNL     1       6.846  66.687   3.642  1.00  0.00     0.155 A 
HETATM   10 BR1  UNL     1       4.928  66.606   3.712  1.00  0.00    -0.010 Br
HETATM   11  N4  UNL     1       7.695  65.768   3.183  1.00  0.00    -0.320 N 
ATOM     12  H4  UNL     1       7.417  64.866   2.795  1.00  0.00     0.169 HD
HETATM   13  C7  UNL     1       8.978  66.191   3.302  1.00  0.00     0.161 A 
HETATM   14  N5  UNL     1      10.172  65.601   2.971  1.00  0.00    -0.136 N 
ENDROOT
BRANCH  14  15
HETATM   15  C8  UNL     1      10.112  64.324   2.404  1.00  0.00     0.279 C 
HETATM   16  O2  UNL     1       9.003  63.529   2.731  1.00  0.00    -0.355 OA
HETATM   17  C9  UNL     1       9.405  62.304   2.200  1.00  0.00     0.155 C 
HETATM   18  C15 UNL     1      10.206  62.583   0.942  1.00  0.00     0.180 C 
HETATM   19  C16 UNL     1      10.158  64.132   0.939  1.00  0.00     0.199 C 
BRANCH  17  20
HETATM   20  C10 UNL     1       8.236  61.388   1.935  1.00  0.00     0.035 C 
BRANCH  20  21
HETATM   21  C11 UNL     1       8.295  60.136   2.761  1.00  0.00     0.007 C 
BRANCH  21  22
HETATM   22  C12 UNL     1       7.119  59.995   3.686  1.00  0.00    -0.009 C 
HETATM   23  C13 UNL     1       6.213  61.212   3.572  1.00  0.00     0.011 C 
BRANCH  22  24
HETATM   24  C14 UNL     1       6.299  58.764   3.367  1.00  0.00     0.089 C 
HETATM   25 BR2  UNL     1       7.241  57.150   3.889  1.00  0.00    -0.096 Br
ENDBRANCH  22  24
ENDBRANCH  21  22
ENDBRANCH  20  21
ENDBRANCH  17  20
BRANCH  18  26
HETATM   26  O3  UNL     1      11.544  62.220   1.109  1.00  0.00    -0.390 OA
ATOM     27  H3  UNL     1      12.104  62.699   0.509  1.00  0.00     0.210 HD
ENDBRANCH  18  26
BRANCH  19  28
HETATM   28  O4  UNL     1      11.252  64.654   0.296  1.00  0.00    -0.388 OA
ATOM     29  H4  UNL     1      11.783  64.037  -0.192  1.00  0.00     0.210 HD
ENDBRANCH  19  28
ENDBRANCH  14  15
BRANCH   1  30
HETATM   30  N1  UNL     1      12.398  65.814   2.941  1.00  0.00    -0.226 N 
ATOM     31  H1  UNL     1      12.574  65.607   1.958  1.00  0.00     0.177 HD
BRANCH  30  32
HETATM   32  C2  UNL     1      13.428  65.496   3.874  1.00  0.00     0.133 C 
HETATM   33  C1  UNL     1      14.122  64.188   3.572  1.00  0.00     0.027 C 
ENDBRANCH  30  32
ENDBRANCH   1  30
TORSDOF 9
ENDMDL
