MODEL 1
REMARK VINA RESULT: -9.242114359      0.000      0.000
REMARK  10 active torsions:
REMARK  status: ('A' for Active; 'I' for Inactive)
REMARK    1  A    between atoms: C1_2  and  C2_3 
REMARK    2  A    between atoms: C1_2  and  C12_23 
REMARK    3  A    between atoms: C2_3  and  N1_4 
REMARK       I    between atoms: N1_4  and  C3_6 
REMARK    4  A    between atoms: C3_6  and  C4_8 
REMARK    5  A    between atoms: C4_8  and  O3_9 
REMARK       I    between atoms: N2_13  and  C7_14 
REMARK    6  A    between atoms: C7_14  and  C8_16 
REMARK    7  A    between atoms: C8_16  and  C9_17 
REMARK    8  A    between atoms: C12_23  and  O5_25 
REMARK    9  A    between atoms: O5_25  and  C13_26 
REMARK   10  A    between atoms: C13_26  and  C14_28 
ROOT
HETATM    1  N1  UNL     1       8.387  64.946   2.228  1.00  0.00    -0.351 N 
ATOM      2  H1  UNL     1       8.395  64.206   2.929  1.00  0.00     0.163 HD
HETATM    3  C3  UNL     1       9.160  64.797   1.050  1.00  0.00     0.252 C 
HETATM    4  O2  UNL     1       9.138  65.712   0.204  1.00  0.00    -0.270 OA
ENDROOT
BRANCH   1   5
HETATM    5  C2  UNL     1       7.582  66.137   2.455  1.00  0.00     0.206 C 
BRANCH   5   6
HETATM    6  C1  UNL     1       7.122  66.218   3.864  1.00  0.00     0.204 C 
HETATM    7  O1  UNL     1       7.578  67.089   4.576  1.00  0.00    -0.290 OA
BRANCH   6   8
HETATM    8  C12 UNL     1       6.141  65.274   4.396  1.00  0.00     0.387 C 
HETATM    9  F4  UNL     1       5.755  65.713   5.671  1.00  0.00    -0.211 F 
BRANCH   8  10
HETATM   10  O5  UNL     1       6.606  63.969   4.548  1.00  0.00    -0.277 OA
BRANCH  10  11
HETATM   11  C13 UNL     1       5.768  62.859   4.679  1.00  0.00     0.270 C 
HETATM   12  O6  UNL     1       4.836  62.985   5.522  1.00  0.00    -0.264 OA
BRANCH  11  13
HETATM   13  C14 UNL     1       5.944  61.613   3.890  1.00  0.00     0.049 C 
HETATM   14  C15 UNL     1       6.844  61.910   2.706  1.00  0.00     0.024 C 
HETATM   15  C16 UNL     1       7.101  60.640   1.958  1.00  0.00    -0.013 C 
HETATM   16  C17 UNL     1       7.843  59.682   2.862  1.00  0.00     0.009 C 
HETATM   17  C21 UNL     1       5.801  60.038   1.480  1.00  0.00     0.009 C 
HETATM   18  C18 UNL     1       6.968  59.345   4.039  1.00  0.00    -0.013 C 
HETATM   19  C19 UNL     1       5.681  58.727   3.537  1.00  0.00     0.009 C 
HETATM   20  C23 UNL     1       6.610  60.590   4.794  1.00  0.00     0.024 C 
HETATM   21  C20 UNL     1       4.958  59.742   2.685  1.00  0.00    -0.013 C 
HETATM   22  C22 UNL     1       4.656  61.019   3.415  1.00  0.00     0.024 C 
ENDBRANCH  11  13
ENDBRANCH  10  11
ENDBRANCH   8  10
ENDBRANCH   6   8
ENDBRANCH   5   6
ENDBRANCH   1   5
BRANCH   3  23
HETATM   23  C4  UNL     1       9.959  63.583   0.852  1.00  0.00     0.141 C 
HETATM   24  C5  UNL     1      11.245  63.821   0.079  1.00  0.00     0.068 C 
HETATM   25  C6  UNL     1      12.176  64.752   0.769  1.00  0.00     0.129 C 
HETATM   26  N2  UNL     1      12.247  64.517   2.199  1.00  0.00    -0.352 N 
HETATM   27  C7  UNL     1      13.392  65.013   2.876  1.00  0.00     0.228 C 
HETATM   28  C10 UNL     1      11.241  63.830   2.939  1.00  0.00     0.129 C 
HETATM   29  O4  UNL     1      14.303  65.635   2.252  1.00  0.00    -0.273 OA
HETATM   30  C11 UNL     1      10.330  62.952   2.167  1.00  0.00     0.068 C 
BRANCH  23  31
HETATM   31  O3  UNL     1       9.192  62.657   0.102  1.00  0.00    -0.380 OA
ATOM     32  H3  UNL     1       9.703  62.385  -0.652  1.00  0.00     0.211 HD
ENDBRANCH  23  31
BRANCH  27  33
HETATM   33  C8  UNL     1      13.519  64.798   4.343  1.00  0.00     0.220 C 
BRANCH  33  34
HETATM   34  C9  UNL     1      14.826  64.066   4.604  1.00  0.00     0.396 C 
HETATM   35  F1  UNL     1      14.744  63.501   5.850  1.00  0.00    -0.171 F 
HETATM   36  F2  UNL     1      15.888  64.954   4.631  1.00  0.00    -0.171 F 
HETATM   37  F3  UNL     1      14.989  63.116   3.627  1.00  0.00    -0.171 F 
ENDBRANCH  33  34
ENDBRANCH  27  33
ENDBRANCH   3  23
TORSDOF 10
ENDMDL
MODEL 2
REMARK VINA RESULT: -9.204001675      0.179      1.427
REMARK  10 active torsions:
REMARK  status: ('A' for Active; 'I' for Inactive)
REMARK    1  A    between atoms: C1_2  and  C2_3 
REMARK    2  A    between atoms: C1_2  and  C12_23 
REMARK    3  A    between atoms: C2_3  and  N1_4 
REMARK       I    between atoms: N1_4  and  C3_6 
REMARK    4  A    between atoms: C3_6  and  C4_8 
REMARK    5  A    between atoms: C4_8  and  O3_9 
REMARK       I    between atoms: N2_13  and  C7_14 
REMARK    6  A    between atoms: C7_14  and  C8_16 
REMARK    7  A    between atoms: C8_16  and  C9_17 
REMARK    8  A    between atoms: C12_23  and  O5_25 
REMARK    9  A    between atoms: O5_25  and  C13_26 
REMARK   10  A    between atoms: C13_26  and  C14_28 
ROOT
HETATM    1  N1  UNL     1       8.356  64.965   2.288  1.00  0.00    -0.351 N 
ATOM      2  H1  UNL     1       8.351  64.220   2.984  1.00  0.00     0.163 HD
HETATM    3  C3  UNL     1       9.137  64.816   1.116  1.00  0.00     0.252 C 
HETATM    4  O2  UNL     1       9.131  65.736   0.275  1.00  0.00    -0.270 OA
ENDROOT
BRANCH   1   5
HETATM    5  C2  UNL     1       7.558  66.161   2.515  1.00  0.00     0.206 C 
BRANCH   5   6
HETATM    6  C1  UNL     1       7.077  66.232   3.917  1.00  0.00     0.204 C 
HETATM    7  O1  UNL     1       7.559  67.064   4.657  1.00  0.00    -0.290 OA
BRANCH   6   8
HETATM    8  C12 UNL     1       6.043  65.322   4.411  1.00  0.00     0.387 C 
HETATM    9  F4  UNL     1       5.704  65.710   5.715  1.00  0.00    -0.211 F 
BRANCH   8  10
HETATM   10  O5  UNL     1       6.425  63.983   4.479  1.00  0.00    -0.277 OA
BRANCH  10  11
HETATM   11  C13 UNL     1       5.526  62.918   4.396  1.00  0.00     0.270 C 
HETATM   12  O6  UNL     1       4.367  63.155   4.838  1.00  0.00    -0.264 OA
BRANCH  11  13
HETATM   13  C14 UNL     1       5.890  61.594   3.830  1.00  0.00     0.049 C 
HETATM   14  C15 UNL     1       4.626  60.907   3.347  1.00  0.00     0.024 C 
HETATM   15  C16 UNL     1       4.994  59.612   2.692  1.00  0.00    -0.013 C 
HETATM   16  C17 UNL     1       5.845  59.904   1.478  1.00  0.00     0.009 C 
HETATM   17  C21 UNL     1       5.726  58.720   3.666  1.00  0.00     0.009 C 
HETATM   18  C18 UNL     1       7.122  60.565   1.922  1.00  0.00    -0.013 C 
HETATM   19  C19 UNL     1       7.846  59.645   2.882  1.00  0.00     0.009 C 
HETATM   20  C23 UNL     1       6.820  61.838   2.654  1.00  0.00     0.024 C 
HETATM   21  C20 UNL     1       6.975  59.431   4.096  1.00  0.00    -0.013 C 
HETATM   22  C22 UNL     1       6.612  60.709   4.796  1.00  0.00     0.024 C 
ENDBRANCH  11  13
ENDBRANCH  10  11
ENDBRANCH   8  10
ENDBRANCH   6   8
ENDBRANCH   5   6
ENDBRANCH   1   5
BRANCH   3  23
HETATM   23  C4  UNL     1       9.930  63.598   0.919  1.00  0.00     0.141 C 
HETATM   24  C5  UNL     1      11.210  63.824   0.132  1.00  0.00     0.068 C 
HETATM   25  C6  UNL     1      12.151  64.754   0.808  1.00  0.00     0.129 C 
HETATM   26  N2  UNL     1      12.233  64.527   2.239  1.00  0.00    -0.352 N 
HETATM   27  C7  UNL     1      13.387  65.022   2.903  1.00  0.00     0.228 C 
HETATM   28  C10 UNL     1      11.231  63.850   2.992  1.00  0.00     0.129 C 
HETATM   29  O4  UNL     1      14.295  65.636   2.268  1.00  0.00    -0.273 OA
HETATM   30  C11 UNL     1      10.309  62.972   2.234  1.00  0.00     0.068 C 
BRANCH  23  31
HETATM   31  O3  UNL     1       9.151  62.671   0.180  1.00  0.00    -0.380 OA
ATOM     32  H3  UNL     1       9.425  62.705  -0.729  1.00  0.00     0.211 HD
ENDBRANCH  23  31
BRANCH  27  33
HETATM   33  C8  UNL     1      13.526  64.815   4.371  1.00  0.00     0.220 C 
BRANCH  33  34
HETATM   34  C9  UNL     1      14.830  64.073   4.623  1.00  0.00     0.396 C 
HETATM   35  F1  UNL     1      14.964  63.125   3.643  1.00  0.00    -0.171 F 
HETATM   36  F2  UNL     1      14.785  63.402   5.833  1.00  0.00    -0.171 F 
HETATM   37  F3  UNL     1      15.856  64.985   4.591  1.00  0.00    -0.171 F 
ENDBRANCH  33  34
ENDBRANCH  27  33
ENDBRANCH   3  23
TORSDOF 10
ENDMDL
MODEL 3
REMARK VINA RESULT: -8.522686508      3.793      7.847
REMARK  10 active torsions:
REMARK  status: ('A' for Active; 'I' for Inactive)
REMARK    1  A    between atoms: C1_2  and  C2_3 
REMARK    2  A    between atoms: C1_2  and  C12_23 
REMARK    3  A    between atoms: C2_3  and  N1_4 
REMARK       I    between atoms: N1_4  and  C3_6 
REMARK    4  A    between atoms: C3_6  and  C4_8 
REMARK    5  A    between atoms: C4_8  and  O3_9 
REMARK       I    between atoms: N2_13  and  C7_14 
REMARK    6  A    between atoms: C7_14  and  C8_16 
REMARK    7  A    between atoms: C8_16  and  C9_17 
REMARK    8  A    between atoms: C12_23  and  O5_25 
REMARK    9  A    between atoms: O5_25  and  C13_26 
REMARK   10  A    between atoms: C13_26  and  C14_28 
ROOT
HETATM    1  N1  UNL     1       9.180  63.687   3.040  1.00  0.00    -0.351 N 
ATOM      2  H1  UNL     1       8.851  64.088   3.918  1.00  0.00     0.163 HD
HETATM    3  C3  UNL     1       8.243  63.370   2.026  1.00  0.00     0.252 C 
HETATM    4  O2  UNL     1       8.663  62.882   0.959  1.00  0.00    -0.270 OA
ENDROOT
BRANCH   1   5
HETATM    5  C2  UNL     1      10.604  63.451   2.851  1.00  0.00     0.206 C 
BRANCH   5   6
HETATM    6  C1  UNL     1      11.414  64.576   3.381  1.00  0.00     0.204 C 
HETATM    7  O1  UNL     1      12.415  64.323   4.019  1.00  0.00    -0.290 OA
BRANCH   6   8
HETATM    8  C12 UNL     1      11.024  65.966   3.149  1.00  0.00     0.387 C 
HETATM    9  F4  UNL     1      12.190  66.725   2.970  1.00  0.00    -0.211 F 
BRANCH   8  10
HETATM   10  O5  UNL     1      10.319  66.559   4.194  1.00  0.00    -0.277 OA
BRANCH  10  11
HETATM   11  C13 UNL     1       9.013  67.042   4.070  1.00  0.00     0.270 C 
HETATM   12  O6  UNL     1       8.110  66.263   4.482  1.00  0.00    -0.264 OA
BRANCH  11  13
HETATM   13  C14 UNL     1       8.694  68.375   3.498  1.00  0.00     0.049 C 
HETATM   14  C15 UNL     1       8.182  68.187   2.083  1.00  0.00     0.024 C 
HETATM   15  C16 UNL     1       7.773  69.517   1.532  1.00  0.00    -0.013 C 
HETATM   16  C17 UNL     1       6.629  70.057   2.359  1.00  0.00     0.009 C 
HETATM   17  C21 UNL     1       8.943  70.472   1.535  1.00  0.00     0.009 C 
HETATM   18  C18 UNL     1       7.108  70.280   3.769  1.00  0.00    -0.013 C 
HETATM   19  C19 UNL     1       8.268  71.252   3.748  1.00  0.00     0.009 C 
HETATM   20  C23 UNL     1       7.605  68.994   4.358  1.00  0.00     0.024 C 
HETATM   21  C20 UNL     1       9.398  70.642   2.954  1.00  0.00    -0.013 C 
HETATM   22  C22 UNL     1       9.855  69.319   3.499  1.00  0.00     0.024 C 
ENDBRANCH  11  13
ENDBRANCH  10  11
ENDBRANCH   8  10
ENDBRANCH   6   8
ENDBRANCH   5   6
ENDBRANCH   1   5
BRANCH   3  23
HETATM   23  C4  UNL     1       6.816  63.621   2.250  1.00  0.00     0.141 C 
HETATM   24  C5  UNL     1       5.920  63.050   1.163  1.00  0.00     0.068 C 
HETATM   25  C6  UNL     1       6.008  61.571   1.055  1.00  0.00     0.129 C 
HETATM   26  N2  UNL     1       6.054  60.915   2.348  1.00  0.00    -0.352 N 
HETATM   27  C7  UNL     1       5.693  59.541   2.386  1.00  0.00     0.228 C 
HETATM   28  C10 UNL     1       6.440  61.568   3.554  1.00  0.00     0.129 C 
HETATM   29  O4  UNL     1       5.352  58.925   1.332  1.00  0.00    -0.273 OA
HETATM   30  C11 UNL     1       6.358  63.048   3.564  1.00  0.00     0.068 C 
BRANCH  23  31
HETATM   31  O3  UNL     1       6.603  65.023   2.264  1.00  0.00    -0.380 OA
ATOM     32  H3  UNL     1       6.772  65.344   3.142  1.00  0.00     0.211 HD
ENDBRANCH  23  31
BRANCH  27  33
HETATM   33  C8  UNL     1       5.719  58.818   3.686  1.00  0.00     0.220 C 
BRANCH  33  34
HETATM   34  C9  UNL     1       6.900  57.860   3.673  1.00  0.00     0.396 C 
HETATM   35  F1  UNL     1       7.132  57.471   4.967  1.00  0.00    -0.171 F 
HETATM   36  F2  UNL     1       8.045  58.500   3.231  1.00  0.00    -0.171 F 
HETATM   37  F3  UNL     1       6.579  56.792   2.873  1.00  0.00    -0.171 F 
ENDBRANCH  33  34
ENDBRANCH  27  33
ENDBRANCH   3  23
TORSDOF 10
ENDMDL
MODEL 4
REMARK VINA RESULT: -8.466133072      3.796      7.823
REMARK  10 active torsions:
REMARK  status: ('A' for Active; 'I' for Inactive)
REMARK    1  A    between atoms: C1_2  and  C2_3 
REMARK    2  A    between atoms: C1_2  and  C12_23 
REMARK    3  A    between atoms: C2_3  and  N1_4 
REMARK       I    between atoms: N1_4  and  C3_6 
REMARK    4  A    between atoms: C3_6  and  C4_8 
REMARK    5  A    between atoms: C4_8  and  O3_9 
REMARK       I    between atoms: N2_13  and  C7_14 
REMARK    6  A    between atoms: C7_14  and  C8_16 
REMARK    7  A    between atoms: C8_16  and  C9_17 
REMARK    8  A    between atoms: C12_23  and  O5_25 
REMARK    9  A    between atoms: O5_25  and  C13_26 
REMARK   10  A    between atoms: C13_26  and  C14_28 
ROOT
HETATM    1  N1  UNL     1       9.163  63.624   2.943  1.00  0.00    -0.351 N 
ATOM      2  H1  UNL     1       8.802  64.049   3.797  1.00  0.00     0.163 HD
HETATM    3  C3  UNL     1       8.262  63.263   1.912  1.00  0.00     0.252 C 
HETATM    4  O2  UNL     1       8.721  62.745   0.875  1.00  0.00    -0.270 OA
ENDROOT
BRANCH   1   5
HETATM    5  C2  UNL     1      10.594  63.402   2.806  1.00  0.00     0.206 C 
BRANCH   5   6
HETATM    6  C1  UNL     1      11.374  64.549   3.334  1.00  0.00     0.204 C 
HETATM    7  O1  UNL     1      12.400  64.325   3.942  1.00  0.00    -0.290 OA
BRANCH   6   8
HETATM    8  C12 UNL     1      10.925  65.926   3.135  1.00  0.00     0.387 C 
HETATM    9  F4  UNL     1      12.056  66.735   2.952  1.00  0.00    -0.211 F 
BRANCH   8  10
HETATM   10  O5  UNL     1      10.214  66.471   4.202  1.00  0.00    -0.277 OA
BRANCH  10  11
HETATM   11  C13 UNL     1       8.897  66.927   4.102  1.00  0.00     0.270 C 
HETATM   12  O6  UNL     1       8.012  66.099   4.456  1.00  0.00    -0.264 OA
BRANCH  11  13
HETATM   13  C14 UNL     1       8.545  68.286   3.617  1.00  0.00     0.049 C 
HETATM   14  C15 UNL     1       9.742  69.198   3.813  1.00  0.00     0.024 C 
HETATM   15  C16 UNL     1       9.428  70.545   3.243  1.00  0.00    -0.013 C 
HETATM   16  C17 UNL     1       9.203  70.405   1.755  1.00  0.00     0.009 C 
HETATM   17  C21 UNL     1       8.213  71.134   3.922  1.00  0.00     0.009 C 
HETATM   18  C18 UNL     1       8.005  69.525   1.521  1.00  0.00    -0.013 C 
HETATM   19  C19 UNL     1       6.799  70.144   2.195  1.00  0.00     0.009 C 
HETATM   20  C23 UNL     1       8.225  68.175   2.136  1.00  0.00     0.024 C 
HETATM   21  C20 UNL     1       7.056  70.211   3.681  1.00  0.00    -0.013 C 
HETATM   22  C22 UNL     1       7.344  68.870   4.292  1.00  0.00     0.024 C 
ENDBRANCH  11  13
ENDBRANCH  10  11
ENDBRANCH   8  10
ENDBRANCH   6   8
ENDBRANCH   5   6
ENDBRANCH   1   5
BRANCH   3  23
HETATM   23  C4  UNL     1       6.825  63.501   2.083  1.00  0.00     0.141 C 
HETATM   24  C5  UNL     1       5.970  62.877   0.993  1.00  0.00     0.068 C 
HETATM   25  C6  UNL     1       6.081  61.396   0.943  1.00  0.00     0.129 C 
HETATM   26  N2  UNL     1       6.096  60.790   2.262  1.00  0.00    -0.352 N 
HETATM   27  C7  UNL     1       5.752  59.414   2.341  1.00  0.00     0.228 C 
HETATM   28  C10 UNL     1       6.436  61.494   3.453  1.00  0.00     0.129 C 
HETATM   29  O4  UNL     1       5.451  58.754   1.302  1.00  0.00    -0.273 OA
HETATM   30  C11 UNL     1       6.335  62.971   3.404  1.00  0.00     0.068 C 
BRANCH  23  31
HETATM   31  O3  UNL     1       6.593  64.900   2.038  1.00  0.00    -0.380 OA
ATOM     32  H3  UNL     1       5.690  65.047   1.782  1.00  0.00     0.211 HD
ENDBRANCH  23  31
BRANCH  27  33
HETATM   33  C8  UNL     1       5.748  58.741   3.668  1.00  0.00     0.220 C 
BRANCH  33  34
HETATM   34  C9  UNL     1       6.937  57.795   3.724  1.00  0.00     0.396 C 
HETATM   35  F1  UNL     1       8.028  58.473   3.247  1.00  0.00    -0.171 F 
HETATM   36  F2  UNL     1       6.739  56.708   2.890  1.00  0.00    -0.171 F 
HETATM   37  F3  UNL     1       7.114  57.403   5.028  1.00  0.00    -0.171 F 
ENDBRANCH  33  34
ENDBRANCH  27  33
ENDBRANCH   3  23
TORSDOF 10
ENDMDL
MODEL 5
REMARK VINA RESULT: -8.315640946      2.559      6.084
REMARK  10 active torsions:
REMARK  status: ('A' for Active; 'I' for Inactive)
REMARK    1  A    between atoms: C1_2  and  C2_3 
REMARK    2  A    between atoms: C1_2  and  C12_23 
REMARK    3  A    between atoms: C2_3  and  N1_4 
REMARK       I    between atoms: N1_4  and  C3_6 
REMARK    4  A    between atoms: C3_6  and  C4_8 
REMARK    5  A    between atoms: C4_8  and  O3_9 
REMARK       I    between atoms: N2_13  and  C7_14 
REMARK    6  A    between atoms: C7_14  and  C8_16 
REMARK    7  A    between atoms: C8_16  and  C9_17 
REMARK    8  A    between atoms: C12_23  and  O5_25 
REMARK    9  A    between atoms: O5_25  and  C13_26 
REMARK   10  A    between atoms: C13_26  and  C14_28 
ROOT
HETATM    1  N1  UNL     1      10.184  65.693   2.594  1.00  0.00    -0.351 N 
ATOM      2  H1  UNL     1      10.034  65.675   1.585  1.00  0.00     0.163 HD
HETATM    3  C3  UNL     1       9.444  66.599   3.391  1.00  0.00     0.252 C 
HETATM    4  O2  UNL     1       9.640  66.606   4.622  1.00  0.00    -0.270 OA
ENDROOT
BRANCH   1   5
HETATM    5  C2  UNL     1      11.154  64.784   3.187  1.00  0.00     0.206 C 
BRANCH   5   6
HETATM    6  C1  UNL     1      11.541  63.710   2.239  1.00  0.00     0.204 C 
HETATM    7  O1  UNL     1      12.657  63.729   1.762  1.00  0.00    -0.290 OA
BRANCH   6   8
HETATM    8  C12 UNL     1      10.606  62.646   1.877  1.00  0.00     0.387 C 
HETATM    9  F4  UNL     1      10.881  62.248   0.561  1.00  0.00    -0.211 F 
BRANCH   8  10
HETATM   10  O5  UNL     1       9.261  63.011   1.911  1.00  0.00    -0.277 OA
BRANCH  10  11
HETATM   11  C13 UNL     1       8.236  62.238   1.360  1.00  0.00     0.270 C 
HETATM   12  O6  UNL     1       8.046  62.399   0.122  1.00  0.00    -0.264 OA
BRANCH  11  13
HETATM   13  C14 UNL     1       7.420  61.288   2.158  1.00  0.00     0.049 C 
HETATM   14  C15 UNL     1       6.912  62.003   3.395  1.00  0.00     0.024 C 
HETATM   15  C16 UNL     1       6.013  61.081   4.158  1.00  0.00    -0.013 C 
HETATM   16  C17 UNL     1       4.814  60.749   3.301  1.00  0.00     0.009 C 
HETATM   17  C21 UNL     1       6.759  59.829   4.556  1.00  0.00     0.009 C 
HETATM   18  C18 UNL     1       5.278  60.014   2.072  1.00  0.00    -0.013 C 
HETATM   19  C19 UNL     1       6.006  58.756   2.495  1.00  0.00     0.009 C 
HETATM   20  C23 UNL     1       6.245  60.858   1.296  1.00  0.00     0.024 C 
HETATM   21  C20 UNL     1       7.221  59.148   3.301  1.00  0.00    -0.013 C 
HETATM   22  C22 UNL     1       8.161  60.050   2.554  1.00  0.00     0.024 C 
ENDBRANCH  11  13
ENDBRANCH  10  11
ENDBRANCH   8  10
ENDBRANCH   6   8
ENDBRANCH   5   6
ENDBRANCH   1   5
BRANCH   3  23
HETATM   23  C4  UNL     1       8.474  67.500   2.760  1.00  0.00     0.141 C 
HETATM   24  C5  UNL     1       7.650  66.840   1.668  1.00  0.00     0.068 C 
HETATM   25  C6  UNL     1       6.817  65.715   2.167  1.00  0.00     0.129 C 
HETATM   26  N2  UNL     1       6.193  66.003   3.445  1.00  0.00    -0.352 N 
HETATM   27  C7  UNL     1       5.058  65.225   3.796  1.00  0.00     0.228 C 
HETATM   28  C10 UNL     1       6.659  67.004   4.346  1.00  0.00     0.129 C 
HETATM   29  O4  UNL     1       4.620  64.321   3.023  1.00  0.00    -0.273 OA
HETATM   30  C11 UNL     1       7.516  68.068   3.773  1.00  0.00     0.068 C 
BRANCH  23  31
HETATM   31  O3  UNL     1       9.182  68.569   2.153  1.00  0.00    -0.380 OA
ATOM     32  H3  UNL     1       8.906  68.635   1.246  1.00  0.00     0.211 HD
ENDBRANCH  23  31
BRANCH  27  33
HETATM   33  C8  UNL     1       4.375  65.478   5.094  1.00  0.00     0.220 C 
BRANCH  33  34
HETATM   34  C9  UNL     1       4.726  64.344   6.044  1.00  0.00     0.396 C 
HETATM   35  F1  UNL     1       6.034  64.004   5.818  1.00  0.00    -0.171 F 
HETATM   36  F2  UNL     1       3.963  63.223   5.771  1.00  0.00    -0.171 F 
HETATM   37  F3  UNL     1       4.532  64.785   7.330  1.00  0.00    -0.171 F 
ENDBRANCH  33  34
ENDBRANCH  27  33
ENDBRANCH   3  23
TORSDOF 10
ENDMDL
