MODEL 1
REMARK VINA RESULT: -5.478371193      0.000      0.000
REMARK  4 active torsions:
REMARK  status: ('A' for Active; 'I' for Inactive)
REMARK    1  A    between atoms: N5_14  and  C5_15 
REMARK    2  A    between atoms: C5_15  and  C6_16 
REMARK    3  A    between atoms: C6_16  and  N6_17 
REMARK    4  A    between atoms: C6_16  and  N7_21 
ROOT
HETATM    1  N1  UNL     1      29.109  -0.350   4.275  1.00  0.00    -0.382 N 
ATOM      2  H11 UNL     1      29.998  -0.850   4.267  1.00  0.00     0.157 HD
ATOM      3  H12 UNL     1      29.106   0.267   3.463  1.00  0.00     0.157 HD
HETATM    4  C1  UNL     1      28.174  -0.463   5.131  1.00  0.00     0.144 A 
HETATM    5  N2  UNL     1      26.988   0.203   5.142  1.00  0.00    -0.282 N 
ATOM      6  H2  UNL     1      26.695   0.893   4.451  1.00  0.00     0.188 HD
HETATM    7  N3  UNL     1      26.277  -0.178   6.183  1.00  0.00    -0.282 N 
ATOM      8  H3  UNL     1      25.350   0.168   6.427  1.00  0.00     0.188 HD
HETATM    9  C2  UNL     1      26.972  -1.091   6.867  1.00  0.00     0.154 A 
HETATM   10  C3  UNL     1      28.178  -1.294   6.226  1.00  0.00     0.124 A 
HETATM   11  N4  UNL     1      28.825  -2.220   6.963  1.00  0.00    -0.346 N 
ATOM     12  H4  UNL     1      29.752  -2.591   6.755  1.00  0.00     0.167 HD
HETATM   13  C4  UNL     1      28.058  -2.586   8.024  1.00  0.00     0.185 A 
HETATM   14  N5  UNL     1      26.916  -1.881   7.952  1.00  0.00    -0.323 N 
ENDROOT
BRANCH  14  15
HETATM   15  C5  UNL     1      25.794  -1.933   8.866  1.00  0.00     0.193 C 
BRANCH  15  16
HETATM   16  C6  UNL     1      26.239  -2.327  10.246  1.00  0.00     0.396 C 
BRANCH  16  17
HETATM   17  N6  UNL     1      25.589  -1.446  11.201  1.00  0.00    -0.049 N 
ATOM     18  H63 UNL     1      25.055  -0.704  10.750  1.00  0.00     0.276 HD
ATOM     19  H62 UNL     1      24.814  -1.898  11.687  1.00  0.00     0.276 HD
ATOM     20  H61 UNL     1      26.300  -1.088  11.839  1.00  0.00     0.276 HD
ENDBRANCH  16  17
BRANCH  16  21
HETATM   21  N7  UNL     1      25.767  -3.683  10.528  1.00  0.00    -0.049 N 
ATOM     22  H73 UNL     1      25.202  -3.730  11.376  1.00  0.00     0.276 HD
ATOM     23  H72 UNL     1      25.056  -3.993   9.866  1.00  0.00     0.276 HD
ATOM     24  H71 UNL     1      26.569  -4.313  10.561  1.00  0.00     0.276 HD
ENDBRANCH  16  21
ENDBRANCH  15  16
ENDBRANCH  14  15
TORSDOF 4
ENDMDL
MODEL 2
REMARK VINA RESULT: -5.142021031      0.987      2.069
REMARK  4 active torsions:
REMARK  status: ('A' for Active; 'I' for Inactive)
REMARK    1  A    between atoms: N5_14  and  C5_15 
REMARK    2  A    between atoms: C5_15  and  C6_16 
REMARK    3  A    between atoms: C6_16  and  N6_17 
REMARK    4  A    between atoms: C6_16  and  N7_21 
ROOT
HETATM    1  N1  UNL     1      27.846   0.565   3.845  1.00  0.00    -0.382 N 
ATOM      2  H11 UNL     1      27.059   1.191   3.677  1.00  0.00     0.157 HD
ATOM      3  H12 UNL     1      28.518   0.723   3.094  1.00  0.00     0.157 HD
HETATM    4  C1  UNL     1      27.979  -0.261   4.804  1.00  0.00     0.144 A 
HETATM    5  N2  UNL     1      29.029  -1.095   5.029  1.00  0.00    -0.282 N 
ATOM      6  H2  UNL     1      29.860  -1.164   4.442  1.00  0.00     0.188 HD
HETATM    7  N3  UNL     1      28.808  -1.800   6.118  1.00  0.00    -0.282 N 
ATOM      8  H3  UNL     1      29.437  -2.500   6.511  1.00  0.00     0.188 HD
HETATM    9  C2  UNL     1      27.624  -1.448   6.626  1.00  0.00     0.154 A 
HETATM   10  C3  UNL     1      27.073  -0.474   5.816  1.00  0.00     0.124 A 
HETATM   11  N4  UNL     1      25.888  -0.165   6.381  1.00  0.00    -0.346 N 
ATOM     12  H4  UNL     1      25.230   0.526   6.022  1.00  0.00     0.167 HD
HETATM   13  C4  UNL     1      25.700  -0.913   7.500  1.00  0.00     0.185 A 
HETATM   14  N5  UNL     1      26.780  -1.701   7.640  1.00  0.00    -0.323 N 
ENDROOT
BRANCH  14  15
HETATM   15  C5  UNL     1      27.030  -2.668   8.688  1.00  0.00     0.193 C 
BRANCH  15  16
HETATM   16  C6  UNL     1      26.030  -2.532   9.800  1.00  0.00     0.396 C 
BRANCH  16  17
HETATM   17  N6  UNL     1      25.582  -3.862  10.173  1.00  0.00    -0.049 N 
ATOM     18  H63 UNL     1      25.238  -4.399   9.377  1.00  0.00     0.276 HD
ATOM     19  H62 UNL     1      26.353  -4.478  10.432  1.00  0.00     0.276 HD
ATOM     20  H61 UNL     1      24.887  -3.768  10.914  1.00  0.00     0.276 HD
ENDBRANCH  16  17
BRANCH  16  21
HETATM   21  N7  UNL     1      26.697  -1.963  10.972  1.00  0.00    -0.049 N 
ATOM     22  H73 UNL     1      26.036  -1.623  11.670  1.00  0.00     0.276 HD
ATOM     23  H72 UNL     1      27.152  -2.675  11.543  1.00  0.00     0.276 HD
ATOM     24  H71 UNL     1      27.345  -1.237  10.665  1.00  0.00     0.276 HD
ENDBRANCH  16  21
ENDBRANCH  15  16
ENDBRANCH  14  15
TORSDOF 4
ENDMDL
MODEL 3
REMARK VINA RESULT: -5.063097312      1.290      4.958
REMARK  4 active torsions:
REMARK  status: ('A' for Active; 'I' for Inactive)
REMARK    1  A    between atoms: N5_14  and  C5_15 
REMARK    2  A    between atoms: C5_15  and  C6_16 
REMARK    3  A    between atoms: C6_16  and  N6_17 
REMARK    4  A    between atoms: C6_16  and  N7_21 
ROOT
HETATM    1  N1  UNL     1      26.221  -3.369  11.115  1.00  0.00    -0.382 N 
ATOM      2  H11 UNL     1      27.035  -3.852  11.495  1.00  0.00     0.157 HD
ATOM      3  H12 UNL     1      25.461  -3.495  11.784  1.00  0.00     0.157 HD
HETATM    4  C1  UNL     1      26.152  -2.728  10.018  1.00  0.00     0.144 A 
HETATM    5  N2  UNL     1      25.067  -2.083   9.512  1.00  0.00    -0.282 N 
ATOM      6  H2  UNL     1      24.152  -2.033   9.959  1.00  0.00     0.188 HD
HETATM    7  N3  UNL     1      25.378  -1.535   8.356  1.00  0.00    -0.282 N 
ATOM      8  H3  UNL     1      24.746  -0.995   7.766  1.00  0.00     0.188 HD
HETATM    9  C2  UNL     1      26.658  -1.804   8.083  1.00  0.00     0.154 A 
HETATM   10  C3  UNL     1      27.177  -2.559   9.117  1.00  0.00     0.124 A 
HETATM   11  N4  UNL     1      28.462  -2.793   8.781  1.00  0.00    -0.346 N 
ATOM     12  H4  UNL     1      29.125  -3.329   9.340  1.00  0.00     0.167 HD
HETATM   13  C4  UNL     1      28.741  -2.211   7.584  1.00  0.00     0.185 A 
HETATM   14  N5  UNL     1      27.617  -1.603   7.165  1.00  0.00    -0.323 N 
ENDROOT
BRANCH  14  15
HETATM   15  C5  UNL     1      27.432  -0.852   5.941  1.00  0.00     0.193 C 
BRANCH  15  16
HETATM   16  C6  UNL     1      28.650  -0.935   5.066  1.00  0.00     0.396 C 
BRANCH  16  17
HETATM   17  N6  UNL     1      28.596  -2.186   4.331  1.00  0.00    -0.049 N 
ATOM     18  H63 UNL     1      29.179  -2.912   4.746  1.00  0.00     0.276 HD
ATOM     19  H62 UNL     1      27.697  -2.659   4.426  1.00  0.00     0.276 HD
ATOM     20  H61 UNL     1      28.838  -1.994   3.358  1.00  0.00     0.276 HD
ENDBRANCH  16  17
BRANCH  16  21
HETATM   21  N7  UNL     1      28.598   0.143   4.077  1.00  0.00    -0.049 N 
ATOM     22  H73 UNL     1      28.563  -0.209   3.120  1.00  0.00     0.276 HD
ATOM     23  H72 UNL     1      27.703   0.632   4.081  1.00  0.00     0.276 HD
ATOM     24  H71 UNL     1      29.386   0.772   4.231  1.00  0.00     0.276 HD
ENDBRANCH  16  21
ENDBRANCH  15  16
ENDBRANCH  14  15
TORSDOF 4
ENDMDL
MODEL 4
REMARK VINA RESULT: -4.875344027      1.466      5.230
REMARK  4 active torsions:
REMARK  status: ('A' for Active; 'I' for Inactive)
REMARK    1  A    between atoms: N5_14  and  C5_15 
REMARK    2  A    between atoms: C5_15  and  C6_16 
REMARK    3  A    between atoms: C6_16  and  N6_17 
REMARK    4  A    between atoms: C6_16  and  N7_21 
ROOT
HETATM    1  N1  UNL     1      25.106  -1.972   9.702  1.00  0.00    -0.382 N 
ATOM      2  H11 UNL     1      24.333  -1.331   9.525  1.00  0.00     0.157 HD
ATOM      3  H12 UNL     1      24.893  -2.463  10.570  1.00  0.00     0.157 HD
HETATM    4  C1  UNL     1      26.145  -2.137   8.985  1.00  0.00     0.144 A 
HETATM    5  N2  UNL     1      27.177  -2.991   9.221  1.00  0.00    -0.282 N 
ATOM      6  H2  UNL     1      27.247  -3.620  10.021  1.00  0.00     0.188 HD
HETATM    7  N3  UNL     1      28.070  -2.881   8.261  1.00  0.00    -0.282 N 
ATOM      8  H3  UNL     1      28.940  -3.408   8.196  1.00  0.00     0.188 HD
HETATM    9  C2  UNL     1      27.649  -1.965   7.384  1.00  0.00     0.154 A 
HETATM   10  C3  UNL     1      26.432  -1.474   7.816  1.00  0.00     0.124 A 
HETATM   11  N4  UNL     1      26.066  -0.560   6.893  1.00  0.00    -0.346 N 
ATOM     12  H4  UNL     1      25.207  -0.012   6.921  1.00  0.00     0.167 HD
HETATM   13  C4  UNL     1      27.013  -0.479   5.922  1.00  0.00     0.185 A 
HETATM   14  N5  UNL     1      27.985  -1.352   6.237  1.00  0.00    -0.323 N 
ENDROOT
BRANCH  14  15
HETATM   15  C5  UNL     1      29.201  -1.617   5.497  1.00  0.00     0.193 C 
BRANCH  15  16
HETATM   16  C6  UNL     1      28.953  -1.568   4.016  1.00  0.00     0.396 C 
BRANCH  16  17
HETATM   17  N6  UNL     1      29.922  -0.664   3.423  1.00  0.00    -0.049 N 
ATOM     18  H63 UNL     1      30.557  -0.262   4.112  1.00  0.00     0.276 HD
ATOM     19  H62 UNL     1      30.619  -1.150   2.859  1.00  0.00     0.276 HD
ATOM     20  H61 UNL     1      29.414   0.046   2.895  1.00  0.00     0.276 HD
ENDBRANCH  16  17
BRANCH  16  21
HETATM   21  N7  UNL     1      29.205  -2.893   3.448  1.00  0.00    -0.049 N 
ATOM     22  H73 UNL     1      30.011  -3.351   3.873  1.00  0.00     0.276 HD
ATOM     23  H72 UNL     1      28.496  -3.574   3.720  1.00  0.00     0.276 HD
ATOM     24  H71 UNL     1      29.295  -2.808   2.436  1.00  0.00     0.276 HD
ENDBRANCH  16  21
ENDBRANCH  15  16
ENDBRANCH  14  15
TORSDOF 4
ENDMDL
MODEL 5
REMARK VINA RESULT: -4.625295656      1.952      5.710
REMARK  4 active torsions:
REMARK  status: ('A' for Active; 'I' for Inactive)
REMARK    1  A    between atoms: N5_14  and  C5_15 
REMARK    2  A    between atoms: C5_15  and  C6_16 
REMARK    3  A    between atoms: C6_16  and  N6_17 
REMARK    4  A    between atoms: C6_16  and  N7_21 
ROOT
HETATM    1  N1  UNL     1      27.287  -2.376   7.987  1.00  0.00    -0.382 N 
ATOM      2  H11 UNL     1      27.996  -3.087   8.164  1.00  0.00     0.157 HD
ATOM      3  H12 UNL     1      26.583  -2.469   8.719  1.00  0.00     0.157 HD
HETATM    4  C1  UNL     1      27.270  -1.529   7.037  1.00  0.00     0.144 A 
HETATM    5  N2  UNL     1      26.324  -0.581   6.801  1.00  0.00    -0.282 N 
ATOM      6  H2  UNL     1      25.491  -0.428   7.369  1.00  0.00     0.188 HD
HETATM    7  N3  UNL     1      26.647   0.109   5.728  1.00  0.00    -0.282 N 
ATOM      8  H3  UNL     1      26.108   0.878   5.331  1.00  0.00     0.188 HD
HETATM    9  C2  UNL     1      27.798  -0.365   5.242  1.00  0.00     0.154 A 
HETATM   10  C3  UNL     1      28.219  -1.404   6.051  1.00  0.00     0.124 A 
HETATM   11  N4  UNL     1      29.377  -1.834   5.509  1.00  0.00    -0.346 N 
ATOM     12  H4  UNL     1      29.945  -2.599   5.873  1.00  0.00     0.167 HD
HETATM   13  C4  UNL     1      29.674  -1.097   4.406  1.00  0.00     0.185 A 
HETATM   14  N5  UNL     1      28.690  -0.193   4.253  1.00  0.00    -0.323 N 
ENDROOT
BRANCH  14  15
HETATM   15  C5  UNL     1      28.575   0.810   3.216  1.00  0.00     0.193 C 
BRANCH  15  16
HETATM   16  C6  UNL     1      28.507   0.175   1.856  1.00  0.00     0.396 C 
BRANCH  16  17
HETATM   17  N6  UNL     1      27.202  -0.444   1.708  1.00  0.00    -0.049 N 
ATOM     18  H63 UNL     1      26.809  -0.748   2.598  1.00  0.00     0.276 HD
ATOM     19  H62 UNL     1      26.475   0.226   1.458  1.00  0.00     0.276 HD
ATOM     20  H61 UNL     1      27.285  -1.205   1.034  1.00  0.00     0.276 HD
ENDBRANCH  16  17
BRANCH  16  21
HETATM   21  N7  UNL     1      28.598   1.223   0.838  1.00  0.00    -0.049 N 
ATOM     22  H73 UNL     1      27.800   1.857   0.860  1.00  0.00     0.276 HD
ATOM     23  H72 UNL     1      29.327   1.905   1.046  1.00  0.00     0.276 HD
ATOM     24  H71 UNL     1      28.723   0.787  -0.076  1.00  0.00     0.276 HD
ENDBRANCH  16  21
ENDBRANCH  15  16
ENDBRANCH  14  15
TORSDOF 4
ENDMDL
