MODEL 1
REMARK VINA RESULT: -5.127733986      0.000      0.000
REMARK  4 active torsions:
REMARK  status: ('A' for Active; 'I' for Inactive)
REMARK    1  A    between atoms: C2_3  and  N2_4 
REMARK    2  A    between atoms: N2_4  and  N3_5 
REMARK    3  A    between atoms: N2_4  and  C3_8 
REMARK    4  A    between atoms: C5_15  and  N7_16 
ROOT
HETATM    1  N1  UNL     1      32.433  -1.357   6.327  1.00  0.00    -0.195 NA
HETATM    2  C1  UNL     1      31.589  -1.690   7.046  1.00  0.00     0.081 C 
HETATM    3  C2  UNL     1      30.492  -2.110   7.951  1.00  0.00     0.290 C 
ENDROOT
BRANCH   3   4
HETATM    4  N2  UNL     1      29.248  -2.018   7.261  1.00  0.00    -0.116 N 
BRANCH   4   5
HETATM    5  N3  UNL     1      29.307  -1.908   5.858  1.00  0.00    -0.328 N 
ATOM      6  H32 UNL     1      29.966  -1.250   5.442  1.00  0.00     0.177 HD
ATOM      7  H31 UNL     1      28.675  -2.504   5.324  1.00  0.00     0.177 HD
ENDBRANCH   4   5
BRANCH   4   8
HETATM    8  C3  UNL     1      27.977  -2.030   7.895  1.00  0.00     0.716 A 
HETATM    9  N4  UNL     1      26.914  -1.431   7.297  1.00  0.00    -0.161 N 
HETATM   10  C4  UNL     1      25.690  -1.396   7.823  1.00  0.00     0.221 A 
ATOM     11  H4  UNL     1      27.061  -0.981   6.393  1.00  0.00     0.187 HD
HETATM   12  N5  UNL     1      24.577  -0.788   7.232  1.00  0.00    -0.062 NA
HETATM   13  N6  UNL     1      25.489  -1.998   9.032  1.00  0.00    -0.163 N 
HETATM   14  C5  UNL     1      26.506  -2.604   9.665  1.00  0.00     0.692 A 
ATOM     15  H6  UNL     1      24.562  -1.987   9.457  1.00  0.00     0.187 HD
HETATM   16  N8  UNL     1      27.733  -2.604   9.074  1.00  0.00    -0.021 N 
ATOM     17  H8  UNL     1      28.504  -3.066   9.557  1.00  0.00     0.203 HD
BRANCH  14  18
HETATM   18  N7  UNL     1      26.331  -3.176  10.809  1.00  0.00    -0.234 N 
ATOM     19  H72 UNL     1      25.394  -3.273  11.200  1.00  0.00     0.174 HD
ATOM     20  H71 UNL     1      27.122  -3.539  11.341  1.00  0.00     0.174 HD
ENDBRANCH  14  18
ENDBRANCH   4   8
ENDBRANCH   3   4
TORSDOF 4
ENDMDL
MODEL 2
REMARK VINA RESULT: -5.101401837      2.642      5.336
REMARK  4 active torsions:
REMARK  status: ('A' for Active; 'I' for Inactive)
REMARK    1  A    between atoms: C2_3  and  N2_4 
REMARK    2  A    between atoms: N2_4  and  N3_5 
REMARK    3  A    between atoms: N2_4  and  C3_8 
REMARK    4  A    between atoms: C5_15  and  N7_16 
ROOT
HETATM    1  N1  UNL     1      27.110  -2.802  10.267  1.00  0.00    -0.195 NA
HETATM    2  C1  UNL     1      26.947  -2.457   9.174  1.00  0.00     0.081 C 
HETATM    3  C2  UNL     1      26.763  -2.012   7.771  1.00  0.00     0.290 C 
ENDROOT
BRANCH   3   4
HETATM    4  N2  UNL     1      28.036  -1.905   7.137  1.00  0.00    -0.116 N 
BRANCH   4   5
HETATM    5  N3  UNL     1      29.167  -2.124   7.947  1.00  0.00    -0.328 N 
ATOM      6  H32 UNL     1      29.569  -3.061   7.990  1.00  0.00     0.177 HD
ATOM      7  H31 UNL     1      29.530  -1.319   8.456  1.00  0.00     0.177 HD
ENDBRANCH   4   5
BRANCH   4   8
HETATM    8  C3  UNL     1      28.224  -1.599   5.763  1.00  0.00     0.716 A 
HETATM    9  N4  UNL     1      28.851  -2.488   4.949  1.00  0.00    -0.161 N 
HETATM   10  C4  UNL     1      29.068  -2.279   3.651  1.00  0.00     0.221 A 
ATOM     11  H4  UNL     1      29.175  -3.366   5.355  1.00  0.00     0.187 HD
HETATM   12  N5  UNL     1      29.711  -3.174   2.788  1.00  0.00    -0.062 NA
HETATM   13  N6  UNL     1      28.636  -1.105   3.104  1.00  0.00    -0.163 N 
HETATM   14  C5  UNL     1      28.010  -0.193   3.865  1.00  0.00     0.692 A 
ATOM     15  H6  UNL     1      28.788  -0.920   2.113  1.00  0.00     0.187 HD
HETATM   16  N8  UNL     1      27.819  -0.467   5.186  1.00  0.00    -0.021 N 
ATOM     17  H8  UNL     1      27.343   0.228   5.761  1.00  0.00     0.203 HD
BRANCH  14  18
HETATM   18  N7  UNL     1      27.597   0.921   3.362  1.00  0.00    -0.234 N 
ATOM     19  H72 UNL     1      26.600   1.084   3.215  1.00  0.00     0.174 HD
ATOM     20  H71 UNL     1      28.255   1.657   3.102  1.00  0.00     0.174 HD
ENDBRANCH  14  18
ENDBRANCH   4   8
ENDBRANCH   3   4
TORSDOF 4
ENDMDL
MODEL 3
REMARK VINA RESULT: -5.088036161      1.456      5.133
REMARK  4 active torsions:
REMARK  status: ('A' for Active; 'I' for Inactive)
REMARK    1  A    between atoms: C2_3  and  N2_4 
REMARK    2  A    between atoms: N2_4  and  N3_5 
REMARK    3  A    between atoms: N2_4  and  C3_8 
REMARK    4  A    between atoms: C5_15  and  N7_16 
ROOT
HETATM    1  N1  UNL     1      26.348  -1.599  12.238  1.00  0.00    -0.195 NA
HETATM    2  C1  UNL     1      26.390  -2.282  11.304  1.00  0.00     0.081 C 
HETATM    3  C2  UNL     1      26.440  -3.136  10.093  1.00  0.00     0.290 C 
ENDROOT
BRANCH   3   4
HETATM    4  N2  UNL     1      26.484  -2.310   8.932  1.00  0.00    -0.116 N 
BRANCH   4   5
HETATM    5  N3  UNL     1      25.303  -1.621   8.598  1.00  0.00    -0.328 N 
ATOM      6  H32 UNL     1      24.770  -1.167   9.340  1.00  0.00     0.177 HD
ATOM      7  H31 UNL     1      25.038  -1.615   7.613  1.00  0.00     0.177 HD
ENDBRANCH   4   5
BRANCH   4   8
HETATM    8  C3  UNL     1      27.631  -2.145   8.110  1.00  0.00     0.716 A 
HETATM    9  N4  UNL     1      28.874  -2.279   8.645  1.00  0.00    -0.161 N 
HETATM   10  C4  UNL     1      29.999  -2.140   7.946  1.00  0.00     0.221 A 
ATOM     11  H4  UNL     1      28.949  -2.500   9.638  1.00  0.00     0.187 HD
HETATM   12  N5  UNL     1      31.292  -2.272   8.466  1.00  0.00    -0.062 NA
HETATM   13  N6  UNL     1      29.902  -1.846   6.615  1.00  0.00    -0.163 N 
HETATM   14  C5  UNL     1      28.698  -1.702   6.039  1.00  0.00     0.692 A 
ATOM     15  H6  UNL     1      30.748  -1.735   6.057  1.00  0.00     0.187 HD
HETATM   16  N8  UNL     1      27.585  -1.858   6.809  1.00  0.00    -0.021 N 
ATOM     17  H8  UNL     1      26.672  -1.749   6.368  1.00  0.00     0.203 HD
BRANCH  14  18
HETATM   18  N7  UNL     1      28.592  -1.424   4.784  1.00  0.00    -0.234 N 
ATOM     19  H72 UNL     1      29.399  -1.091   4.257  1.00  0.00     0.174 HD
ATOM     20  H71 UNL     1      27.702  -1.531   4.296  1.00  0.00     0.174 HD
ENDBRANCH  14  18
ENDBRANCH   4   8
ENDBRANCH   3   4
TORSDOF 4
ENDMDL
MODEL 4
REMARK VINA RESULT: -5.050609821      1.027      1.151
REMARK  4 active torsions:
REMARK  status: ('A' for Active; 'I' for Inactive)
REMARK    1  A    between atoms: C2_3  and  N2_4 
REMARK    2  A    between atoms: N2_4  and  N3_5 
REMARK    3  A    between atoms: N2_4  and  C3_8 
REMARK    4  A    between atoms: C5_15  and  N7_16 
ROOT
HETATM    1  N1  UNL     1      31.796  -1.290   5.149  1.00  0.00    -0.195 NA
HETATM    2  C1  UNL     1      30.694  -1.558   5.380  1.00  0.00     0.081 C 
HETATM    3  C2  UNL     1      29.288  -1.906   5.701  1.00  0.00     0.290 C 
ENDROOT
BRANCH   3   4
HETATM    4  N2  UNL     1      29.132  -1.989   7.116  1.00  0.00    -0.116 N 
BRANCH   4   5
HETATM    5  N3  UNL     1      30.312  -2.059   7.881  1.00  0.00    -0.328 N 
ATOM      6  H32 UNL     1      31.175  -1.677   7.493  1.00  0.00     0.177 HD
ATOM      7  H31 UNL     1      30.238  -2.498   8.798  1.00  0.00     0.177 HD
ENDBRANCH   4   5
BRANCH   4   8
HETATM    8  C3  UNL     1      27.879  -2.002   7.784  1.00  0.00     0.716 A 
HETATM    9  N4  UNL     1      26.799  -1.406   7.212  1.00  0.00    -0.161 N 
HETATM   10  C4  UNL     1      25.589  -1.373   7.771  1.00  0.00     0.221 A 
ATOM     11  H4  UNL     1      26.921  -0.959   6.304  1.00  0.00     0.187 HD
HETATM   12  N5  UNL     1      24.460  -0.768   7.209  1.00  0.00    -0.062 NA
HETATM   13  N6  UNL     1      25.422  -1.972   8.987  1.00  0.00    -0.163 N 
HETATM   14  C5  UNL     1      26.457  -2.574   9.594  1.00  0.00     0.692 A 
ATOM     15  H6  UNL     1      24.506  -1.961   9.437  1.00  0.00     0.187 HD
HETATM   16  N8  UNL     1      27.668  -2.573   8.970  1.00  0.00    -0.021 N 
ATOM     17  H8  UNL     1      28.452  -3.032   9.434  1.00  0.00     0.203 HD
BRANCH  14  18
HETATM   18  N7  UNL     1      26.313  -3.143  10.743  1.00  0.00    -0.234 N 
ATOM     19  H72 UNL     1      25.850  -4.049  10.818  1.00  0.00     0.174 HD
ATOM     20  H71 UNL     1      26.658  -2.699  11.596  1.00  0.00     0.174 HD
ENDBRANCH  14  18
ENDBRANCH   4   8
ENDBRANCH   3   4
TORSDOF 4
ENDMDL
MODEL 5
REMARK VINA RESULT: -4.994516293      3.196      6.010
REMARK  4 active torsions:
REMARK  status: ('A' for Active; 'I' for Inactive)
REMARK    1  A    between atoms: C2_3  and  N2_4 
REMARK    2  A    between atoms: N2_4  and  N3_5 
REMARK    3  A    between atoms: N2_4  and  C3_8 
REMARK    4  A    between atoms: C5_15  and  N7_16 
ROOT
HETATM    1  N1  UNL     1      25.559  -1.937   8.862  1.00  0.00    -0.195 NA
HETATM    2  C1  UNL     1      26.461  -1.829   8.144  1.00  0.00     0.081 C 
HETATM    3  C2  UNL     1      27.602  -1.678   7.208  1.00  0.00     0.290 C 
ENDROOT
BRANCH   3   4
HETATM    4  N2  UNL     1      27.236  -0.790   6.155  1.00  0.00    -0.116 N 
BRANCH   4   5
HETATM    5  N3  UNL     1      26.199   0.122   6.426  1.00  0.00    -0.328 N 
ATOM      6  H32 UNL     1      26.264   1.069   6.052  1.00  0.00     0.177 HD
ATOM      7  H31 UNL     1      25.423  -0.220   6.994  1.00  0.00     0.177 HD
ENDBRANCH   4   5
BRANCH   4   8
HETATM    8  C3  UNL     1      27.847  -0.774   4.873  1.00  0.00     0.716 A 
HETATM    9  N4  UNL     1      28.503  -1.875   4.419  1.00  0.00    -0.161 N 
HETATM   10  C4  UNL     1      29.103  -1.942   3.231  1.00  0.00     0.221 A 
ATOM     11  H4  UNL     1      28.538  -2.696   5.022  1.00  0.00     0.187 HD
HETATM   12  N5  UNL     1      29.785  -3.059   2.736  1.00  0.00    -0.062 NA
HETATM   13  N6  UNL     1      29.058  -0.844   2.421  1.00  0.00    -0.163 N 
HETATM   14  C5  UNL     1      28.424   0.269   2.822  1.00  0.00     0.692 A 
ATOM     15  H6  UNL     1      29.509  -0.869   1.506  1.00  0.00     0.187 HD
HETATM   16  N8  UNL     1      27.830   0.274   4.048  1.00  0.00    -0.021 N 
ATOM     17  H8  UNL     1      27.348   1.121   4.349  1.00  0.00     0.203 HD
BRANCH  14  18
HETATM   18  N7  UNL     1      28.374   1.314   2.066  1.00  0.00    -0.234 N 
ATOM     19  H72 UNL     1      27.739   1.346   1.269  1.00  0.00     0.174 HD
ATOM     20  H71 UNL     1      28.967   2.124   2.251  1.00  0.00     0.174 HD
ENDBRANCH  14  18
ENDBRANCH   4   8
ENDBRANCH   3   4
TORSDOF 4
ENDMDL
