MODEL 1
REMARK VINA RESULT: -5.681321934      0.000      0.000
REMARK  4 active torsions:
REMARK  status: ('A' for Active; 'I' for Inactive)
REMARK    1  A    between atoms: N1_1  and  C1_4 
REMARK    2  A    between atoms: C2_7  and  N3_8 
REMARK    3  A    between atoms: N3_8  and  N4_10 
REMARK    4  A    between atoms: N4_10  and  N5_11 
ROOT
HETATM    1  C1  UNL     1      25.568  -1.174   7.733  1.00  0.00     0.145 A 
HETATM    2  N2  UNL     1      25.369  -1.838   8.905  1.00  0.00    -0.173 N 
ATOM      3  H2  UNL     1      24.481  -1.751   9.398  1.00  0.00     0.186 HD
HETATM    4  C2  UNL     1      26.346  -2.608   9.411  1.00  0.00     0.698 A 
HETATM    5  N6  UNL     1      27.520  -2.700   8.722  1.00  0.00    -0.173 N 
ATOM      6  H6  UNL     1      28.259  -3.287   9.109  1.00  0.00     0.186 HD
HETATM    7  C3  UNL     1      27.757  -2.070   7.576  1.00  0.00     0.152 A 
HETATM    8  N7  UNL     1      28.803  -1.992   6.715  1.00  0.00    -0.336 N 
ATOM      9  H7  UNL     1      29.694  -2.475   6.835  1.00  0.00     0.168 HD
HETATM   10  C4  UNL     1      28.500  -1.189   5.682  1.00  0.00     0.182 A 
HETATM   11  N8  UNL     1      27.247  -0.761   5.903  1.00  0.00    -0.346 N 
ATOM     12  H8  UNL     1      26.732  -0.132   5.287  1.00  0.00     0.167 HD
HETATM   13  C5  UNL     1      26.760  -1.277   7.049  1.00  0.00     0.122 A 
ENDROOT
BRANCH   4  14
HETATM   14  N3  UNL     1      26.185  -3.330  10.645  1.00  0.00    -0.116 N 
ATOM     15  H3  UNL     1      25.719  -4.237  10.647  1.00  0.00     0.203 HD
BRANCH  14  16
HETATM   16  N4  UNL     1      26.662  -2.796  11.833  1.00  0.00    -0.015 NA
BRANCH  16  17
HETATM   17  N5  UNL     1      25.863  -1.769  12.331  1.00  0.00    -0.328 N 
ATOM     18  H52 UNL     1      25.215  -1.243  11.744  1.00  0.00     0.174 HD
ATOM     19  H51 UNL     1      25.998  -1.604  13.328  1.00  0.00     0.174 HD
ENDBRANCH  16  17
ENDBRANCH  14  16
ENDBRANCH   4  14
BRANCH   1  20
HETATM   20  N1  UNL     1      24.626  -0.444   7.265  1.00  0.00    -0.383 N 
ATOM     21  H12 UNL     1      23.851  -0.167   7.867  1.00  0.00     0.157 HD
ATOM     22  H11 UNL     1      24.667  -0.149   6.289  1.00  0.00     0.157 HD
ENDBRANCH   1  20
TORSDOF 4
ENDMDL
MODEL 2
REMARK VINA RESULT: -5.275265555      1.891      3.984
REMARK  4 active torsions:
REMARK  status: ('A' for Active; 'I' for Inactive)
REMARK    1  A    between atoms: N1_1  and  C1_4 
REMARK    2  A    between atoms: C2_7  and  N3_8 
REMARK    3  A    between atoms: N3_8  and  N4_10 
REMARK    4  A    between atoms: N4_10  and  N5_11 
ROOT
HETATM    1  C1  UNL     1      29.768  -1.467   5.487  1.00  0.00     0.145 A 
HETATM    2  N2  UNL     1      29.120  -1.942   6.587  1.00  0.00    -0.173 N 
ATOM      3  H2  UNL     1      29.599  -2.570   7.231  1.00  0.00     0.186 HD
HETATM    4  C2  UNL     1      27.848  -1.580   6.820  1.00  0.00     0.698 A 
HETATM    5  N6  UNL     1      27.242  -0.737   5.935  1.00  0.00    -0.173 N 
ATOM      6  H6  UNL     1      26.276  -0.464   6.117  1.00  0.00     0.186 HD
HETATM    7  C3  UNL     1      27.836  -0.251   4.850  1.00  0.00     0.152 A 
HETATM    8  N7  UNL     1      27.472   0.578   3.839  1.00  0.00    -0.336 N 
ATOM      9  H7  UNL     1      26.555   1.015   3.745  1.00  0.00     0.168 HD
HETATM   10  C4  UNL     1      28.491   0.740   2.978  1.00  0.00     0.182 A 
HETATM   11  N8  UNL     1      29.503   0.003   3.462  1.00  0.00    -0.346 N 
ATOM     12  H8  UNL     1      30.422  -0.077   3.025  1.00  0.00     0.167 HD
HETATM   13  C5  UNL     1      29.142  -0.616   4.602  1.00  0.00     0.122 A 
ENDROOT
BRANCH   4  14
HETATM   14  N3  UNL     1      27.120  -2.053   7.967  1.00  0.00    -0.116 N 
ATOM     15  H3  UNL     1      27.584  -2.647   8.655  1.00  0.00     0.203 HD
BRANCH  14  16
HETATM   16  N4  UNL     1      25.789  -1.706   8.141  1.00  0.00    -0.015 NA
BRANCH  16  17
HETATM   17  N5  UNL     1      25.324  -1.949   9.432  1.00  0.00    -0.328 N 
ATOM     18  H52 UNL     1      25.564  -2.792   9.953  1.00  0.00     0.174 HD
ATOM     19  H51 UNL     1      24.726  -1.203   9.790  1.00  0.00     0.174 HD
ENDBRANCH  16  17
ENDBRANCH  14  16
ENDBRANCH   4  14
BRANCH   1  20
HETATM   20  N1  UNL     1      30.981  -1.822   5.280  1.00  0.00    -0.383 N 
ATOM     21  H12 UNL     1      31.212  -2.812   5.190  1.00  0.00     0.157 HD
ATOM     22  H11 UNL     1      31.702  -1.103   5.206  1.00  0.00     0.157 HD
ENDBRANCH   1  20
TORSDOF 4
ENDMDL
MODEL 3
REMARK VINA RESULT: -5.120980348      1.399      4.654
REMARK  4 active torsions:
REMARK  status: ('A' for Active; 'I' for Inactive)
REMARK    1  A    between atoms: N1_1  and  C1_4 
REMARK    2  A    between atoms: C2_7  and  N3_8 
REMARK    3  A    between atoms: N3_8  and  N4_10 
REMARK    4  A    between atoms: N4_10  and  N5_11 
ROOT
HETATM    1  C1  UNL     1      25.476  -0.931   7.448  1.00  0.00     0.145 A 
HETATM    2  N2  UNL     1      26.289  -0.605   6.405  1.00  0.00    -0.173 N 
ATOM      3  H2  UNL     1      25.954   0.022   5.673  1.00  0.00     0.186 HD
HETATM    4  C2  UNL     1      27.530  -1.111   6.342  1.00  0.00     0.698 A 
HETATM    5  N6  UNL     1      27.941  -1.946   7.340  1.00  0.00    -0.173 N 
ATOM      6  H6  UNL     1      28.886  -2.326   7.288  1.00  0.00     0.186 HD
HETATM    7  C3  UNL     1      27.183  -2.291   8.375  1.00  0.00     0.152 A 
HETATM    8  N7  UNL     1      27.342  -3.078   9.469  1.00  0.00    -0.336 N 
ATOM      9  H7  UNL     1      28.190  -3.599   9.694  1.00  0.00     0.168 HD
HETATM   10  C4  UNL     1      26.224  -3.074  10.214  1.00  0.00     0.182 A 
HETATM   11  N8  UNL     1      25.357  -2.273   9.575  1.00  0.00    -0.346 N 
ATOM     12  H8  UNL     1      24.412  -2.066   9.898  1.00  0.00     0.167 HD
HETATM   13  C5  UNL     1      25.906  -1.776   8.449  1.00  0.00     0.122 A 
ENDROOT
BRANCH   4  14
HETATM   14  N3  UNL     1      28.427  -0.797   5.261  1.00  0.00    -0.116 N 
ATOM     15  H3  UNL     1      29.158  -1.458   4.998  1.00  0.00     0.203 HD
BRANCH  14  16
HETATM   16  N4  UNL     1      28.300   0.402   4.575  1.00  0.00    -0.015 NA
BRANCH  16  17
HETATM   17  N5  UNL     1      27.604   0.275   3.376  1.00  0.00    -0.328 N 
ATOM     18  H52 UNL     1      28.071   0.117   2.483  1.00  0.00     0.174 HD
ATOM     19  H51 UNL     1      26.594   0.359   3.488  1.00  0.00     0.174 HD
ENDBRANCH  16  17
ENDBRANCH  14  16
ENDBRANCH   4  14
BRANCH   1  20
HETATM   20  N1  UNL     1      24.294  -0.440   7.493  1.00  0.00    -0.383 N 
ATOM     21  H12 UNL     1      23.585  -0.875   8.083  1.00  0.00     0.157 HD
ATOM     22  H11 UNL     1      24.080   0.386   6.933  1.00  0.00     0.157 HD
ENDBRANCH   1  20
TORSDOF 4
ENDMDL
MODEL 4
REMARK VINA RESULT: -5.080410969      1.889      3.436
REMARK  4 active torsions:
REMARK  status: ('A' for Active; 'I' for Inactive)
REMARK    1  A    between atoms: N1_1  and  C1_4 
REMARK    2  A    between atoms: C2_7  and  N3_8 
REMARK    3  A    between atoms: N3_8  and  N4_10 
REMARK    4  A    between atoms: N4_10  and  N5_11 
ROOT
HETATM    1  C1  UNL     1      27.984  -0.316   4.837  1.00  0.00     0.145 A 
HETATM    2  N2  UNL     1      27.258  -0.744   5.906  1.00  0.00    -0.173 N 
ATOM      3  H2  UNL     1      26.291  -0.441   6.022  1.00  0.00     0.186 HD
HETATM    4  C2  UNL     1      27.818  -1.566   6.808  1.00  0.00     0.698 A 
HETATM    5  N6  UNL     1      29.113  -1.950   6.617  1.00  0.00    -0.173 N 
ATOM      6  H6  UNL     1      29.534  -2.576   7.304  1.00  0.00     0.186 HD
HETATM    7  C3  UNL     1      29.858  -1.557   5.589  1.00  0.00     0.152 A 
HETATM    8  N7  UNL     1      31.131  -1.783   5.176  1.00  0.00    -0.336 N 
ATOM      9  H7  UNL     1      31.806  -2.373   5.663  1.00  0.00     0.168 HD
HETATM   10  C4  UNL     1      31.377  -1.117   4.035  1.00  0.00     0.182 A 
HETATM   11  N8  UNL     1      30.241  -0.470   3.734  1.00  0.00    -0.346 N 
ATOM     12  H8  UNL     1      30.113   0.126   2.915  1.00  0.00     0.167 HD
HETATM   13  C5  UNL     1      29.291  -0.712   4.658  1.00  0.00     0.122 A 
ENDROOT
BRANCH   4  14
HETATM   14  N3  UNL     1      27.094  -2.047   7.954  1.00  0.00    -0.116 N 
ATOM     15  H3  UNL     1      27.558  -2.652   8.633  1.00  0.00     0.203 HD
BRANCH  14  16
HETATM   16  N4  UNL     1      25.766  -1.691   8.141  1.00  0.00    -0.015 NA
BRANCH  16  17
HETATM   17  N5  UNL     1      25.311  -1.933   9.435  1.00  0.00    -0.328 N 
ATOM     18  H52 UNL     1      24.329  -2.105   9.649  1.00  0.00     0.174 HD
ATOM     19  H51 UNL     1      26.056  -1.919  10.131  1.00  0.00     0.174 HD
ENDBRANCH  16  17
ENDBRANCH  14  16
ENDBRANCH   4  14
BRANCH   1  20
HETATM   20  N1  UNL     1      27.434   0.468   3.986  1.00  0.00    -0.383 N 
ATOM     21  H12 UNL     1      27.680   0.399   2.999  1.00  0.00     0.157 HD
ATOM     22  H11 UNL     1      26.753   1.154   4.313  1.00  0.00     0.157 HD
ENDBRANCH   1  20
TORSDOF 4
ENDMDL
MODEL 5
REMARK VINA RESULT: -5.073582999      2.891      4.693
REMARK  4 active torsions:
REMARK  status: ('A' for Active; 'I' for Inactive)
REMARK    1  A    between atoms: N1_1  and  C1_4 
REMARK    2  A    between atoms: C2_7  and  N3_8 
REMARK    3  A    between atoms: N3_8  and  N4_10 
REMARK    4  A    between atoms: N4_10  and  N5_11 
ROOT
HETATM    1  C1  UNL     1      28.028   0.150   3.348  1.00  0.00     0.145 A 
HETATM    2  N2  UNL     1      27.397   0.169   4.555  1.00  0.00    -0.173 N 
ATOM      3  H2  UNL     1      26.753   0.926   4.784  1.00  0.00     0.186 HD
HETATM    4  C2  UNL     1      27.624  -0.813   5.443  1.00  0.00     0.698 A 
HETATM    5  N6  UNL     1      28.490  -1.809   5.099  1.00  0.00    -0.173 N 
ATOM      6  H6  UNL     1      28.658  -2.553   5.776  1.00  0.00     0.186 HD
HETATM    7  C3  UNL     1      29.127  -1.867   3.935  1.00  0.00     0.152 A 
HETATM    8  N7  UNL     1      30.013  -2.719   3.359  1.00  0.00    -0.336 N 
ATOM      9  H7  UNL     1      30.376  -3.565   3.797  1.00  0.00     0.168 HD
HETATM   10  C4  UNL     1      30.344  -2.289   2.130  1.00  0.00     0.182 A 
HETATM   11  N8  UNL     1      29.654  -1.154   1.938  1.00  0.00    -0.346 N 
ATOM     12  H8  UNL     1      29.694  -0.588   1.090  1.00  0.00     0.167 HD
HETATM   13  C5  UNL     1      28.900  -0.863   3.016  1.00  0.00     0.122 A 
ENDROOT
BRANCH   4  14
HETATM   14  N3  UNL     1      26.982  -0.839   6.730  1.00  0.00    -0.116 N 
ATOM     15  H3  UNL     1      27.527  -1.052   7.566  1.00  0.00     0.203 HD
BRANCH  14  16
HETATM   16  N4  UNL     1      25.625  -0.574   6.839  1.00  0.00    -0.015 NA
BRANCH  16  17
HETATM   17  N5  UNL     1      25.033  -1.194   7.937  1.00  0.00    -0.328 N 
ATOM     18  H52 UNL     1      25.431  -2.021   8.382  1.00  0.00     0.174 HD
ATOM     19  H51 UNL     1      24.172  -0.738   8.239  1.00  0.00     0.174 HD
ENDBRANCH  16  17
ENDBRANCH  14  16
ENDBRANCH   4  14
BRANCH   1  20
HETATM   20  N1  UNL     1      27.800   1.094   2.513  1.00  0.00    -0.383 N 
ATOM     21  H12 UNL     1      27.650   2.045   2.850  1.00  0.00     0.157 HD
ATOM     22  H11 UNL     1      27.772   0.877   1.516  1.00  0.00     0.157 HD
ENDBRANCH   1  20
TORSDOF 4
ENDMDL
