MODEL 1
REMARK VINA RESULT: -4.229684986      0.000      0.000
REMARK  5 active torsions:
REMARK  status: ('A' for Active; 'I' for Inactive)
REMARK    1  A    between atoms: N2_4  and  N3_6 
REMARK    2  A    between atoms: C1_8  and  C2_9 
REMARK    3  A    between atoms: C4_11  and  C5_12 
REMARK    4  A    between atoms: C5_12  and  N4_13 
REMARK    5  A    between atoms: N4_13  and  C6_15 
ROOT
HETATM    1  C2  UNL     1      17.343  41.909  56.768  1.00  0.00     0.032 A 
HETATM    2  C3  UNL     1      16.237  41.108  56.011  1.00  0.00     0.017 A 
HETATM    3  C4  UNL     1      16.858  42.379  55.441  1.00  0.00     0.013 A 
ENDROOT
BRANCH   1   4
HETATM    4  C1  UNL     1      18.654  41.224  56.851  1.00  0.00     0.086 C 
HETATM    5  N3  UNL     1      19.664  41.835  57.360  1.00  0.00    -0.301 N 
ATOM      6  H3  UNL     1      19.551  42.789  57.704  1.00  0.00     0.187 HD
BRANCH   5   7
HETATM    7  N2  UNL     1      20.890  41.226  57.451  1.00  0.00    -0.250 N 
HETATM    8  N1  UNL     1      21.894  41.847  57.879  1.00  0.00    -0.331 N 
ATOM      9  H12 UNL     1      21.779  42.820  58.161  1.00  0.00     0.178 HD
ATOM     10  H11 UNL     1      22.806  41.394  57.946  1.00  0.00     0.178 HD
ATOM     11  H2  UNL     1      20.988  40.252  57.165  1.00  0.00     0.207 HD
ENDBRANCH   5   7
ENDBRANCH   1   4
BRANCH   3  12
HETATM   12  C5  UNL     1      15.922  43.540  55.331  1.00  0.00     0.127 C 
BRANCH  12  13
HETATM   13  N4  UNL     1      15.612  43.890  53.968  1.00  0.00    -0.368 N 
ATOM     14  H4  UNL     1      14.778  44.444  53.777  1.00  0.00     0.161 HD
BRANCH  13  15
HETATM   15  C6  UNL     1      16.433  43.486  52.891  1.00  0.00     0.348 C 
HETATM   16  O1  UNL     1      15.972  42.716  51.986  1.00  0.00    -0.284 OA
ENDBRANCH  13  15
ENDBRANCH  12  13
ENDBRANCH   3  12
TORSDOF 5
ENDMDL
MODEL 2
REMARK VINA RESULT: -4.163032117      1.784      1.806
REMARK  5 active torsions:
REMARK  status: ('A' for Active; 'I' for Inactive)
REMARK    1  A    between atoms: N2_4  and  N3_6 
REMARK    2  A    between atoms: C1_8  and  C2_9 
REMARK    3  A    between atoms: C4_11  and  C5_12 
REMARK    4  A    between atoms: C5_12  and  N4_13 
REMARK    5  A    between atoms: N4_13  and  C6_15 
ROOT
HETATM    1  C2  UNL     1      17.905  41.148  56.575  1.00  0.00     0.032 A 
HETATM    2  C3  UNL     1      17.427  40.474  55.251  1.00  0.00     0.017 A 
HETATM    3  C4  UNL     1      17.463  41.988  55.427  1.00  0.00     0.013 A 
ENDROOT
BRANCH   1   4
HETATM    4  C1  UNL     1      19.355  41.014  56.849  1.00  0.00     0.086 C 
HETATM    5  N3  UNL     1      19.979  41.951  57.468  1.00  0.00    -0.301 N 
ATOM      6  H3  UNL     1      19.467  42.781  57.766  1.00  0.00     0.187 HD
BRANCH   5   7
HETATM    7  N2  UNL     1      21.321  41.854  57.737  1.00  0.00    -0.250 N 
HETATM    8  N1  UNL     1      22.173  41.887  56.815  1.00  0.00    -0.331 N 
ATOM      9  H12 UNL     1      21.844  41.987  55.855  1.00  0.00     0.178 HD
ATOM     10  H11 UNL     1      23.171  41.814  57.015  1.00  0.00     0.178 HD
ATOM     11  H2  UNL     1      21.632  41.754  58.703  1.00  0.00     0.207 HD
ENDBRANCH   5   7
ENDBRANCH   1   4
BRANCH   3  12
HETATM   12  C5  UNL     1      16.124  42.651  55.429  1.00  0.00     0.127 C 
BRANCH  12  13
HETATM   13  N4  UNL     1      15.980  43.641  54.393  1.00  0.00    -0.368 N 
ATOM     14  H4  UNL     1      16.148  43.371  53.424  1.00  0.00     0.161 HD
BRANCH  13  15
HETATM   15  C6  UNL     1      15.612  44.974  54.682  1.00  0.00     0.348 C 
HETATM   16  O1  UNL     1      15.230  45.295  55.855  1.00  0.00    -0.284 OA
ENDBRANCH  13  15
ENDBRANCH  12  13
ENDBRANCH   3  12
TORSDOF 5
ENDMDL
MODEL 3
REMARK VINA RESULT: -4.108654330      2.506      5.451
REMARK  5 active torsions:
REMARK  status: ('A' for Active; 'I' for Inactive)
REMARK    1  A    between atoms: N2_4  and  N3_6 
REMARK    2  A    between atoms: C1_8  and  C2_9 
REMARK    3  A    between atoms: C4_11  and  C5_12 
REMARK    4  A    between atoms: C5_12  and  N4_13 
REMARK    5  A    between atoms: N4_13  and  C6_15 
ROOT
HETATM    1  C2  UNL     1      17.135  42.104  55.371  1.00  0.00     0.032 A 
HETATM    2  C3  UNL     1      16.607  40.768  55.982  1.00  0.00     0.017 A 
HETATM    3  C4  UNL     1      17.666  41.618  56.675  1.00  0.00     0.013 A 
ENDROOT
BRANCH   1   4
HETATM    4  C1  UNL     1      16.152  43.213  55.367  1.00  0.00     0.086 C 
HETATM    5  N3  UNL     1      16.066  43.988  54.346  1.00  0.00    -0.301 N 
ATOM      6  H3  UNL     1      16.679  43.832  53.546  1.00  0.00     0.187 HD
BRANCH   5   7
HETATM    7  N2  UNL     1      15.165  45.023  54.313  1.00  0.00    -0.250 N 
HETATM    8  N1  UNL     1      14.611  45.437  55.361  1.00  0.00    -0.331 N 
ATOM      9  H12 UNL     1      14.847  44.985  56.244  1.00  0.00     0.178 HD
ATOM     10  H11 UNL     1      13.941  46.206  55.336  1.00  0.00     0.178 HD
ATOM     11  H2  UNL     1      14.941  45.463  53.420  1.00  0.00     0.207 HD
ENDBRANCH   5   7
ENDBRANCH   1   4
BRANCH   3  12
HETATM   12  C5  UNL     1      19.017  40.984  56.767  1.00  0.00     0.127 C 
BRANCH  12  13
HETATM   13  N4  UNL     1      19.973  41.790  57.482  1.00  0.00    -0.368 N 
ATOM     14  H4  UNL     1      19.638  42.451  58.182  1.00  0.00     0.161 HD
BRANCH  13  15
HETATM   15  C6  UNL     1      21.361  41.688  57.240  1.00  0.00     0.348 C 
HETATM   16  O1  UNL     1      21.789  41.264  56.116  1.00  0.00    -0.284 OA
ENDBRANCH  13  15
ENDBRANCH  12  13
ENDBRANCH   3  12
TORSDOF 5
ENDMDL
MODEL 4
REMARK VINA RESULT: -4.096105800      3.110      5.281
REMARK  5 active torsions:
REMARK  status: ('A' for Active; 'I' for Inactive)
REMARK    1  A    between atoms: N2_4  and  N3_6 
REMARK    2  A    between atoms: C1_8  and  C2_9 
REMARK    3  A    between atoms: C4_11  and  C5_12 
REMARK    4  A    between atoms: C5_12  and  N4_13 
REMARK    5  A    between atoms: N4_13  and  C6_15 
ROOT
HETATM    1  C2  UNL     1      16.603  41.646  55.775  1.00  0.00     0.032 A 
HETATM    2  C3  UNL     1      17.928  41.375  56.556  1.00  0.00     0.017 A 
HETATM    3  C4  UNL     1      17.793  41.104  55.061  1.00  0.00     0.013 A 
ENDROOT
BRANCH   1   4
HETATM    4  C1  UNL     1      16.262  43.079  55.615  1.00  0.00     0.086 C 
HETATM    5  N3  UNL     1      15.857  43.517  54.477  1.00  0.00    -0.301 N 
ATOM      6  H3  UNL     1      15.774  42.871  53.693  1.00  0.00     0.187 HD
BRANCH   5   7
HETATM    7  N2  UNL     1      15.534  44.839  54.299  1.00  0.00    -0.250 N 
HETATM    8  N1  UNL     1      14.794  45.444  55.113  1.00  0.00    -0.331 N 
ATOM      9  H12 UNL     1      14.435  44.928  55.917  1.00  0.00     0.178 HD
ATOM     10  H11 UNL     1      14.553  46.426  54.980  1.00  0.00     0.178 HD
ATOM     11  H2  UNL     1      15.901  45.339  53.489  1.00  0.00     0.207 HD
ENDBRANCH   5   7
ENDBRANCH   1   4
BRANCH   3  12
HETATM   12  C5  UNL     1      17.868  39.662  54.676  1.00  0.00     0.127 C 
BRANCH  12  13
HETATM   13  N4  UNL     1      18.960  38.964  55.305  1.00  0.00    -0.368 N 
ATOM     14  H4  UNL     1      18.782  38.427  56.154  1.00  0.00     0.161 HD
BRANCH  13  15
HETATM   15  C6  UNL     1      20.270  39.003  54.777  1.00  0.00     0.348 C 
HETATM   16  O1  UNL     1      21.123  39.832  55.237  1.00  0.00    -0.284 OA
ENDBRANCH  13  15
ENDBRANCH  12  13
ENDBRANCH   3  12
TORSDOF 5
ENDMDL
MODEL 5
REMARK VINA RESULT: -4.063277111      3.235      4.521
REMARK  5 active torsions:
REMARK  status: ('A' for Active; 'I' for Inactive)
REMARK    1  A    between atoms: N2_4  and  N3_6 
REMARK    2  A    between atoms: C1_8  and  C2_9 
REMARK    3  A    between atoms: C4_11  and  C5_12 
REMARK    4  A    between atoms: C5_12  and  N4_13 
REMARK    5  A    between atoms: N4_13  and  C6_15 
ROOT
HETATM    1  C2  UNL     1      16.588  41.660  55.762  1.00  0.00     0.032 A 
HETATM    2  C3  UNL     1      17.894  41.369  56.567  1.00  0.00     0.017 A 
HETATM    3  C4  UNL     1      17.794  41.136  55.063  1.00  0.00     0.013 A 
ENDROOT
BRANCH   1   4
HETATM    4  C1  UNL     1      16.251  43.097  55.630  1.00  0.00     0.086 C 
HETATM    5  N3  UNL     1      15.838  43.557  54.504  1.00  0.00    -0.301 N 
ATOM      6  H3  UNL     1      15.746  42.925  53.709  1.00  0.00     0.187 HD
BRANCH   5   7
HETATM    7  N2  UNL     1      15.518  44.883  54.352  1.00  0.00    -0.250 N 
HETATM    8  N1  UNL     1      14.733  45.458  55.145  1.00  0.00    -0.331 N 
ATOM      9  H12 UNL     1      14.334  44.915  55.911  1.00  0.00     0.178 HD
ATOM     10  H11 UNL     1      14.495  46.444  55.031  1.00  0.00     0.178 HD
ATOM     11  H2  UNL     1      15.926  45.411  53.580  1.00  0.00     0.207 HD
ENDBRANCH   5   7
ENDBRANCH   1   4
BRANCH   3  12
HETATM   12  C5  UNL     1      17.878  39.704  54.643  1.00  0.00     0.127 C 
BRANCH  12  13
HETATM   13  N4  UNL     1      17.792  39.526  53.217  1.00  0.00    -0.368 N 
ATOM     14  H4  UNL     1      17.808  38.581  52.833  1.00  0.00     0.161 HD
BRANCH  13  15
HETATM   15  C6  UNL     1      17.688  40.625  52.335  1.00  0.00     0.348 C 
HETATM   16  O1  UNL     1      16.594  40.855  51.721  1.00  0.00    -0.284 OA
ENDBRANCH  13  15
ENDBRANCH  12  13
ENDBRANCH   3  12
TORSDOF 5
ENDMDL
