MODEL 1
REMARK VINA RESULT: -4.737220189      0.000      0.000
REMARK  5 active torsions:
REMARK  status: ('A' for Active; 'I' for Inactive)
REMARK    1  A    between atoms: C2_2  and  C3_3 
REMARK    2  A    between atoms: N1_4  and  C4_6 
REMARK    3  A    between atoms: C4_6  and  N2_7 
REMARK    4  A    between atoms: N2_7  and  N3_8 
REMARK    5  A    between atoms: N3_8  and  C5_10 
ROOT
HETATM    1  N2  UNL     1      17.812  42.146  57.237  1.00  0.00    -0.121 NA
ENDROOT
BRANCH   1   2
HETATM    2  C4  UNL     1      17.139  41.522  56.108  1.00  0.00     0.255 C 
BRANCH   2   3
HETATM    3  N1  UNL     1      16.662  42.561  55.198  1.00  0.00    -0.384 N 
HETATM    4  C3  UNL     1      16.023  43.568  55.643  1.00  0.00     0.083 C 
ATOM      5  H1  UNL     1      16.843  42.478  54.197  1.00  0.00     0.160 HD
BRANCH   4   6
HETATM    6  C2  UNL     1      15.550  44.599  54.743  1.00  0.00     0.006 C 
HETATM    7  C1  UNL     1      15.097  45.773  55.109  1.00  0.00     0.012 C 
ENDBRANCH   4   6
ENDBRANCH   2   3
ENDBRANCH   1   2
BRANCH   1   8
HETATM    8  N3  UNL     1      18.895  41.321  57.559  1.00  0.00    -0.299 N 
ATOM      9  H3  UNL     1      19.172  41.206  58.533  1.00  0.00     0.183 HD
BRANCH   8  10
HETATM   10  C5  UNL     1      19.612  40.641  56.536  1.00  0.00     0.191 C 
HETATM   11  N4  UNL     1      20.870  40.854  56.384  1.00  0.00    -0.385 N 
HETATM   12  C6  UNL     1      21.567  41.773  57.237  1.00  0.00     0.149 C 
HETATM   13  C7  UNL     1      21.603  40.156  55.338  1.00  0.00     0.149 C 
ENDBRANCH   8  10
ENDBRANCH   1   8
TORSDOF 5
ENDMDL
MODEL 2
REMARK VINA RESULT: -4.604197421      0.873      1.250
REMARK  5 active torsions:
REMARK  status: ('A' for Active; 'I' for Inactive)
REMARK    1  A    between atoms: C2_2  and  C3_3 
REMARK    2  A    between atoms: N1_4  and  C4_6 
REMARK    3  A    between atoms: C4_6  and  N2_7 
REMARK    4  A    between atoms: N2_7  and  N3_8 
REMARK    5  A    between atoms: N3_8  and  C5_10 
ROOT
HETATM    1  N2  UNL     1      17.954  41.861  57.027  1.00  0.00    -0.121 NA
ENDROOT
BRANCH   1   2
HETATM    2  C4  UNL     1      16.887  41.790  56.040  1.00  0.00     0.255 C 
BRANCH   2   3
HETATM    3  N1  UNL     1      16.364  43.133  55.800  1.00  0.00    -0.384 N 
HETATM    4  C3  UNL     1      16.183  43.554  54.612  1.00  0.00     0.083 C 
ATOM      5  H1  UNL     1      16.141  43.738  56.591  1.00  0.00     0.160 HD
BRANCH   4   6
HETATM    6  C2  UNL     1      15.664  44.884  54.370  1.00  0.00     0.006 C 
HETATM    7  C1  UNL     1      15.093  45.648  55.268  1.00  0.00     0.012 C 
ENDBRANCH   4   6
ENDBRANCH   2   3
ENDBRANCH   1   2
BRANCH   1   8
HETATM    8  N3  UNL     1      18.662  40.658  56.933  1.00  0.00    -0.299 N 
ATOM      9  H3  UNL     1      18.155  39.775  56.883  1.00  0.00     0.183 HD
BRANCH   8  10
HETATM   10  C5  UNL     1      20.084  40.658  56.907  1.00  0.00     0.191 C 
HETATM   11  N4  UNL     1      20.706  40.356  55.824  1.00  0.00    -0.385 N 
HETATM   12  C6  UNL     1      19.983  40.017  54.633  1.00  0.00     0.149 C 
HETATM   13  C7  UNL     1      22.161  40.356  55.800  1.00  0.00     0.149 C 
ENDBRANCH   8  10
ENDBRANCH   1   8
TORSDOF 5
ENDMDL
MODEL 3
REMARK VINA RESULT: -4.400156656      1.261      1.435
REMARK  5 active torsions:
REMARK  status: ('A' for Active; 'I' for Inactive)
REMARK    1  A    between atoms: C2_2  and  C3_3 
REMARK    2  A    between atoms: N1_4  and  C4_6 
REMARK    3  A    between atoms: C4_6  and  N2_7 
REMARK    4  A    between atoms: N2_7  and  N3_8 
REMARK    5  A    between atoms: N3_8  and  C5_10 
ROOT
HETATM    1  N2  UNL     1      18.043  41.747  56.951  1.00  0.00    -0.121 NA
ENDROOT
BRANCH   1   2
HETATM    2  C4  UNL     1      16.833  41.754  56.143  1.00  0.00     0.255 C 
BRANCH   2   3
HETATM    3  N1  UNL     1      16.461  43.135  55.845  1.00  0.00    -0.384 N 
HETATM    4  C3  UNL     1      16.076  43.463  54.676  1.00  0.00     0.083 C 
ATOM      5  H1  UNL     1      16.510  43.842  56.578  1.00  0.00     0.160 HD
BRANCH   4   6
HETATM    6  C2  UNL     1      15.707  44.831  54.377  1.00  0.00     0.006 C 
HETATM    7  C1  UNL     1      15.087  45.644  55.196  1.00  0.00     0.012 C 
ENDBRANCH   4   6
ENDBRANCH   2   3
ENDBRANCH   1   2
BRANCH   1   8
HETATM    8  N3  UNL     1      18.752  40.596  56.594  1.00  0.00    -0.299 N 
ATOM      9  H3  UNL     1      19.200  40.032  57.316  1.00  0.00     0.183 HD
BRANCH   8  10
HETATM   10  C5  UNL     1      18.853  40.204  55.230  1.00  0.00     0.191 C 
HETATM   11  N4  UNL     1      20.006  40.107  54.673  1.00  0.00    -0.385 N 
HETATM   12  C6  UNL     1      21.203  40.390  55.412  1.00  0.00     0.149 C 
HETATM   13  C7  UNL     1      20.107  39.706  53.278  1.00  0.00     0.149 C 
ENDBRANCH   8  10
ENDBRANCH   1   8
TORSDOF 5
ENDMDL
MODEL 4
REMARK VINA RESULT: -4.387696652      0.839      1.128
REMARK  5 active torsions:
REMARK  status: ('A' for Active; 'I' for Inactive)
REMARK    1  A    between atoms: C2_2  and  C3_3 
REMARK    2  A    between atoms: N1_4  and  C4_6 
REMARK    3  A    between atoms: C4_6  and  N2_7 
REMARK    4  A    between atoms: N2_7  and  N3_8 
REMARK    5  A    between atoms: N3_8  and  C5_10 
ROOT
HETATM    1  N2  UNL     1      17.868  42.267  57.288  1.00  0.00    -0.121 NA
ENDROOT
BRANCH   1   2
HETATM    2  C4  UNL     1      16.978  41.501  56.428  1.00  0.00     0.255 C 
BRANCH   2   3
HETATM    3  N1  UNL     1      16.793  42.216  55.167  1.00  0.00    -0.384 N 
HETATM    4  C3  UNL     1      16.185  43.335  55.141  1.00  0.00     0.083 C 
ATOM      5  H1  UNL     1      17.153  41.815  54.301  1.00  0.00     0.160 HD
BRANCH   4   6
HETATM    6  C2  UNL     1      16.000  44.046  53.893  1.00  0.00     0.006 C 
HETATM    7  C1  UNL     1      16.404  43.630  52.719  1.00  0.00     0.012 C 
ENDBRANCH   4   6
ENDBRANCH   2   3
ENDBRANCH   1   2
BRANCH   1   8
HETATM    8  N3  UNL     1      18.891  41.396  57.677  1.00  0.00    -0.299 N 
ATOM      9  H3  UNL     1      19.147  41.324  58.661  1.00  0.00     0.183 HD
BRANCH   8  10
HETATM   10  C5  UNL     1      19.576  40.610  56.710  1.00  0.00     0.191 C 
HETATM   11  N4  UNL     1      20.828  40.804  56.495  1.00  0.00    -0.385 N 
HETATM   12  C6  UNL     1      21.549  41.809  57.220  1.00  0.00     0.149 C 
HETATM   13  C7  UNL     1      21.527  39.999  55.505  1.00  0.00     0.149 C 
ENDBRANCH   8  10
ENDBRANCH   1   8
TORSDOF 5
ENDMDL
MODEL 5
REMARK VINA RESULT: -4.195074958      2.257      2.604
REMARK  5 active torsions:
REMARK  status: ('A' for Active; 'I' for Inactive)
REMARK    1  A    between atoms: C2_2  and  C3_3 
REMARK    2  A    between atoms: N1_4  and  C4_6 
REMARK    3  A    between atoms: C4_6  and  N2_7 
REMARK    4  A    between atoms: N2_7  and  N3_8 
REMARK    5  A    between atoms: N3_8  and  C5_10 
ROOT
HETATM    1  N2  UNL     1      18.026  41.490  56.611  1.00  0.00    -0.121 NA
ENDROOT
BRANCH   1   2
HETATM    2  C4  UNL     1      16.648  41.607  56.157  1.00  0.00     0.255 C 
BRANCH   2   3
HETATM    3  N1  UNL     1      16.350  43.011  55.884  1.00  0.00    -0.384 N 
HETATM    4  C3  UNL     1      16.061  43.393  54.704  1.00  0.00     0.083 C 
ATOM      5  H1  UNL     1      16.373  43.691  56.644  1.00  0.00     0.160 HD
BRANCH   4   6
HETATM    6  C2  UNL     1      15.764  44.784  54.429  1.00  0.00     0.006 C 
HETATM    7  C1  UNL     1      15.145  45.600  55.245  1.00  0.00     0.012 C 
ENDBRANCH   4   6
ENDBRANCH   2   3
ENDBRANCH   1   2
BRANCH   1   8
HETATM    8  N3  UNL     1      18.574  40.395  55.935  1.00  0.00    -0.299 N 
ATOM      9  H3  UNL     1      19.387  39.915  56.322  1.00  0.00     0.183 HD
BRANCH   8  10
HETATM   10  C5  UNL     1      18.007  39.945  54.710  1.00  0.00     0.191 C 
HETATM   11  N4  UNL     1      18.442  38.870  54.158  1.00  0.00    -0.385 N 
HETATM   12  C6  UNL     1      19.497  38.110  54.763  1.00  0.00     0.149 C 
HETATM   13  C7  UNL     1      17.860  38.412  52.905  1.00  0.00     0.149 C 
ENDBRANCH   8  10
ENDBRANCH   1   8
TORSDOF 5
ENDMDL
