MODEL 1
REMARK VINA RESULT: -3.990421188      0.000      0.000
REMARK  5 active torsions:
REMARK  status: ('A' for Active; 'I' for Inactive)
REMARK    1  A    between atoms: N2_4  and  C1_6 
REMARK    2  A    between atoms: C3_8  and  C4_9 
REMARK    3  A    between atoms: C3_8  and  C5_13 
REMARK    4  A    between atoms: C5_13  and  C6_14 
REMARK    5  A    between atoms: C6_14  and  C7_15 
ROOT
HETATM    1  C1  UNL     1      16.685  42.540  55.513  1.00  0.00     0.113 A 
HETATM    2  C2  UNL     1      15.214  42.372  55.167  1.00  0.00     0.045 A 
HETATM    3  C3  UNL     1      15.934  43.633  54.855  1.00  0.00     0.015 A 
ENDROOT
BRANCH   3   4
HETATM    4  C4  UNL     1      15.569  44.842  55.616  1.00  0.00     0.064 C 
HETATM    5  N3  UNL     1      14.554  45.512  55.270  1.00  0.00    -0.410 N 
ATOM      6  H32 UNL     1      14.004  45.205  54.468  1.00  0.00     0.155 HD
ATOM      7  H31 UNL     1      14.302  46.348  55.796  1.00  0.00     0.155 HD
ENDBRANCH   3   4
BRANCH   3   8
HETATM    8  C5  UNL     1      16.301  43.934  53.397  1.00  0.00     0.022 C 
BRANCH   8   9
HETATM    9  C6  UNL     1      16.365  42.657  52.587  1.00  0.00     0.045 C 
BRANCH   9  10
HETATM   10  C7  UNL     1      17.064  42.989  51.314  1.00  0.00     0.052 C 
HETATM   11  N4  UNL     1      16.668  42.465  50.228  1.00  0.00    -0.411 N 
ATOM     12  H42 UNL     1      15.876  41.822  50.245  1.00  0.00     0.155 HD
ATOM     13  H41 UNL     1      17.146  42.692  49.356  1.00  0.00     0.155 HD
ENDBRANCH   9  10
ENDBRANCH   8   9
ENDBRANCH   3   8
BRANCH   1  14
HETATM   14  N2  UNL     1      16.958  42.519  56.899  1.00  0.00    -0.337 N 
HETATM   15  N1  UNL     1      17.972  42.078  57.440  1.00  0.00    -0.349 N 
ATOM     16  H12 UNL     1      18.675  41.692  56.811  1.00  0.00     0.176 HD
ATOM     17  H11 UNL     1      18.169  42.064  58.441  1.00  0.00     0.176 HD
ATOM     18  H2  UNL     1      16.243  42.910  57.513  1.00  0.00     0.180 HD
ENDBRANCH   1  14
TORSDOF 5
ENDMDL
MODEL 2
REMARK VINA RESULT: -3.797404715      2.635      4.405
REMARK  5 active torsions:
REMARK  status: ('A' for Active; 'I' for Inactive)
REMARK    1  A    between atoms: N2_4  and  C1_6 
REMARK    2  A    between atoms: C3_8  and  C4_9 
REMARK    3  A    between atoms: C3_8  and  C5_13 
REMARK    4  A    between atoms: C5_13  and  C6_14 
REMARK    5  A    between atoms: C6_14  and  C7_15 
ROOT
HETATM    1  C1  UNL     1      18.204  40.675  54.064  1.00  0.00     0.113 A 
HETATM    2  C2  UNL     1      17.492  39.582  54.844  1.00  0.00     0.045 A 
HETATM    3  C3  UNL     1      17.913  40.843  55.506  1.00  0.00     0.015 A 
ENDROOT
BRANCH   3   4
HETATM    4  C4  UNL     1      19.003  40.772  56.495  1.00  0.00     0.064 C 
HETATM    5  N3  UNL     1      18.980  41.534  57.502  1.00  0.00    -0.410 N 
ATOM      6  H32 UNL     1      18.206  42.188  57.615  1.00  0.00     0.155 HD
ATOM      7  H31 UNL     1      19.735  41.484  58.187  1.00  0.00     0.155 HD
ENDBRANCH   3   4
BRANCH   3   8
HETATM    8  C5  UNL     1      16.843  41.879  55.871  1.00  0.00     0.022 C 
BRANCH   8   9
HETATM    9  C6  UNL     1      16.465  42.707  54.662  1.00  0.00     0.045 C 
BRANCH   9  10
HETATM   10  C7  UNL     1      15.811  43.944  55.175  1.00  0.00     0.052 C 
HETATM   11  N4  UNL     1      15.540  44.887  54.370  1.00  0.00    -0.411 N 
ATOM     12  H42 UNL     1      15.775  44.784  53.383  1.00  0.00     0.155 HD
ATOM     13  H41 UNL     1      15.092  45.734  54.721  1.00  0.00     0.155 HD
ENDBRANCH   9  10
ENDBRANCH   8   9
ENDBRANCH   3   8
BRANCH   1  14
HETATM   14  N2  UNL     1      19.476  40.301  53.575  1.00  0.00    -0.337 N 
HETATM   15  N1  UNL     1      19.861  40.365  52.407  1.00  0.00    -0.349 N 
ATOM     16  H12 UNL     1      19.181  40.727  51.738  1.00  0.00     0.176 HD
ATOM     17  H11 UNL     1      20.779  40.095  52.054  1.00  0.00     0.176 HD
ATOM     18  H2  UNL     1      20.142  39.941  54.258  1.00  0.00     0.180 HD
ENDBRANCH   1  14
TORSDOF 5
ENDMDL
MODEL 3
REMARK VINA RESULT: -3.703395922      2.515      4.509
REMARK  5 active torsions:
REMARK  status: ('A' for Active; 'I' for Inactive)
REMARK    1  A    between atoms: N2_4  and  C1_6 
REMARK    2  A    between atoms: C3_8  and  C4_9 
REMARK    3  A    between atoms: C3_8  and  C5_13 
REMARK    4  A    between atoms: C5_13  and  C6_14 
REMARK    5  A    between atoms: C6_14  and  C7_15 
ROOT
HETATM    1  C1  UNL     1      17.785  40.673  53.225  1.00  0.00     0.113 A 
HETATM    2  C2  UNL     1      18.573  40.992  51.965  1.00  0.00     0.045 A 
HETATM    3  C3  UNL     1      17.120  41.288  52.053  1.00  0.00     0.015 A 
ENDROOT
BRANCH   3   4
HETATM    4  C4  UNL     1      16.203  40.491  51.220  1.00  0.00     0.064 C 
HETATM    5  N3  UNL     1      16.208  40.646  49.965  1.00  0.00    -0.410 N 
ATOM      6  H32 UNL     1      16.848  41.322  49.549  1.00  0.00     0.155 HD
ATOM      7  H31 UNL     1      15.573  40.094  49.389  1.00  0.00     0.155 HD
ENDBRANCH   3   4
BRANCH   3   8
HETATM    8  C5  UNL     1      16.672  42.746  52.209  1.00  0.00     0.022 C 
BRANCH   8   9
HETATM    9  C6  UNL     1      16.305  43.043  53.646  1.00  0.00     0.045 C 
BRANCH   9  10
HETATM   10  C7  UNL     1      16.079  44.513  53.738  1.00  0.00     0.052 C 
HETATM   11  N4  UNL     1      15.359  44.977  54.675  1.00  0.00    -0.411 N 
ATOM     12  H42 UNL     1      14.945  44.336  55.351  1.00  0.00     0.155 HD
ATOM     13  H41 UNL     1      15.205  45.984  54.738  1.00  0.00     0.155 HD
ENDBRANCH   9  10
ENDBRANCH   8   9
ENDBRANCH   3   8
BRANCH   1  14
HETATM   14  N2  UNL     1      17.701  39.294  53.520  1.00  0.00    -0.337 N 
HETATM   15  N1  UNL     1      17.653  38.786  54.641  1.00  0.00    -0.349 N 
ATOM     16  H12 UNL     1      17.677  39.440  55.423  1.00  0.00     0.176 HD
ATOM     17  H11 UNL     1      17.592  37.790  54.854  1.00  0.00     0.176 HD
ATOM     18  H2  UNL     1      17.678  38.656  52.726  1.00  0.00     0.180 HD
ENDBRANCH   1  14
TORSDOF 5
ENDMDL
MODEL 4
REMARK VINA RESULT: -3.693415747      2.998      5.248
REMARK  5 active torsions:
REMARK  status: ('A' for Active; 'I' for Inactive)
REMARK    1  A    between atoms: N2_4  and  C1_6 
REMARK    2  A    between atoms: C3_8  and  C4_9 
REMARK    3  A    between atoms: C3_8  and  C5_13 
REMARK    4  A    between atoms: C5_13  and  C6_14 
REMARK    5  A    between atoms: C6_14  and  C7_15 
ROOT
HETATM    1  C1  UNL     1      16.792  42.468  55.563  1.00  0.00     0.113 A 
HETATM    2  C2  UNL     1      16.167  41.231  56.187  1.00  0.00     0.045 A 
HETATM    3  C3  UNL     1      17.618  41.280  55.874  1.00  0.00     0.015 A 
ENDROOT
BRANCH   3   4
HETATM    4  C4  UNL     1      18.117  40.420  54.787  1.00  0.00     0.064 C 
HETATM    5  N3  UNL     1      17.668  39.244  54.666  1.00  0.00    -0.410 N 
ATOM      6  H32 UNL     1      16.966  38.909  55.326  1.00  0.00     0.155 HD
ATOM      7  H31 UNL     1      18.014  38.649  53.914  1.00  0.00     0.155 HD
ENDBRANCH   3   4
BRANCH   3   8
HETATM    8  C5  UNL     1      18.618  41.425  57.027  1.00  0.00     0.022 C 
BRANCH   8   9
HETATM    9  C6  UNL     1      19.687  40.358  56.947  1.00  0.00     0.045 C 
BRANCH   9  10
HETATM   10  C7  UNL     1      20.998  41.064  56.887  1.00  0.00     0.052 C 
HETATM   11  N4  UNL     1      21.220  42.037  57.670  1.00  0.00    -0.411 N 
ATOM     12  H42 UNL     1      20.497  42.322  58.330  1.00  0.00     0.155 HD
ATOM     13  H41 UNL     1      22.118  42.521  57.629  1.00  0.00     0.155 HD
ENDBRANCH   9  10
ENDBRANCH   8   9
ENDBRANCH   3   8
BRANCH   1  14
HETATM   14  N2  UNL     1      16.322  42.759  54.262  1.00  0.00    -0.337 N 
HETATM   15  N1  UNL     1      16.078  43.876  53.803  1.00  0.00    -0.349 N 
ATOM     16  H12 UNL     1      16.235  44.658  54.438  1.00  0.00     0.176 HD
ATOM     17  H11 UNL     1      15.739  44.085  52.864  1.00  0.00     0.176 HD
ATOM     18  H2  UNL     1      16.170  41.964  53.641  1.00  0.00     0.180 HD
ENDBRANCH   1  14
TORSDOF 5
ENDMDL
MODEL 5
REMARK VINA RESULT: -3.671671999      8.445     10.226
REMARK  5 active torsions:
REMARK  status: ('A' for Active; 'I' for Inactive)
REMARK    1  A    between atoms: N2_4  and  C1_6 
REMARK    2  A    between atoms: C3_8  and  C4_9 
REMARK    3  A    between atoms: C3_8  and  C5_13 
REMARK    4  A    between atoms: C5_13  and  C6_14 
REMARK    5  A    between atoms: C6_14  and  C7_15 
ROOT
HETATM    1  C1  UNL     1      10.204  37.552  50.181  1.00  0.00     0.113 A 
HETATM    2  C2  UNL     1       9.170  36.790  50.995  1.00  0.00     0.045 A 
HETATM    3  C3  UNL     1      10.365  36.104  50.440  1.00  0.00     0.015 A 
ENDROOT
BRANCH   3   4
HETATM    4  C4  UNL     1      10.158  35.130  49.354  1.00  0.00     0.064 C 
HETATM    5  N3  UNL     1       9.032  34.571  49.225  1.00  0.00    -0.410 N 
ATOM      6  H32 UNL     1       8.283  34.803  49.877  1.00  0.00     0.155 HD
ATOM      7  H31 UNL     1       8.889  33.897  48.473  1.00  0.00     0.155 HD
ENDBRANCH   3   4
BRANCH   3   8
HETATM    8  C5  UNL     1      11.496  35.702  51.395  1.00  0.00     0.022 C 
BRANCH   8   9
HETATM    9  C6  UNL     1      12.074  36.919  52.083  1.00  0.00     0.045 C 
BRANCH   9  10
HETATM   10  C7  UNL     1      13.539  36.914  51.810  1.00  0.00     0.052 C 
HETATM   11  N4  UNL     1      14.066  37.900  51.211  1.00  0.00    -0.411 N 
ATOM     12  H42 UNL     1      13.478  38.683  50.924  1.00  0.00     0.155 HD
ATOM     13  H41 UNL     1      15.069  37.896  51.024  1.00  0.00     0.155 HD
ENDBRANCH   9  10
ENDBRANCH   8   9
ENDBRANCH   3   8
BRANCH   1  14
HETATM   14  N2  UNL     1       9.713  38.065  48.960  1.00  0.00    -0.337 N 
HETATM   15  N1  UNL     1      10.172  39.017  48.327  1.00  0.00    -0.349 N 
ATOM     16  H12 UNL     1      10.987  39.469  48.739  1.00  0.00     0.176 HD
ATOM     17  H11 UNL     1       9.817  39.387  47.444  1.00  0.00     0.176 HD
ATOM     18  H2  UNL     1       8.897  37.600  48.562  1.00  0.00     0.180 HD
ENDBRANCH   1  14
TORSDOF 5
ENDMDL
