MODEL 1
REMARK VINA RESULT: -4.110185826      0.000      0.000
REMARK  6 active torsions:
REMARK  status: ('A' for Active; 'I' for Inactive)
REMARK    1  A    between atoms: N1_1  and  C1_5 
REMARK    2  A    between atoms: C1_5  and  C2_6 
REMARK    3  A    between atoms: C2_6  and  N2_7 
REMARK    4  A    between atoms: N2_7  and  C3_9 
REMARK    5  A    between atoms: C3_9  and  C4_10 
REMARK    6  A    between atoms: N3_11  and  C5_13 
ROOT
HETATM    1  C3  UNL     1      16.713  41.515  56.267  1.00  0.00     0.163 C 
ENDROOT
BRANCH   1   2
HETATM    2  N2  UNL     1      16.475  42.773  55.651  1.00  0.00    -0.396 N 
ATOM      3  H2  UNL     1      16.386  43.618  56.215  1.00  0.00     0.159 HD
BRANCH   2   4
HETATM    4  C2  UNL     1      16.365  42.834  54.250  1.00  0.00     0.082 C 
BRANCH   4   5
HETATM    5  C1  UNL     1      16.118  44.160  53.602  1.00  0.00     0.273 C 
BRANCH   5   6
HETATM    6  N1  UNL     1      15.541  45.130  54.482  1.00  0.00    -0.075 N 
ATOM      7  H13 UNL     1      16.092  45.214  55.337  1.00  0.00     0.274 HD
ATOM      8  H12 UNL     1      15.662  46.072  54.108  1.00  0.00     0.274 HD
ATOM      9  H11 UNL     1      14.560  44.953  54.701  1.00  0.00     0.274 HD
ENDBRANCH   5   6
ENDBRANCH   4   5
ENDBRANCH   2   4
ENDBRANCH   1   2
BRANCH   1  10
HETATM   10  C4  UNL     1      18.060  40.959  55.847  1.00  0.00     0.081 C 
HETATM   11  N3  UNL     1      18.772  40.497  56.776  1.00  0.00    -0.363 N 
ATOM     12  H3  UNL     1      18.378  40.535  57.716  1.00  0.00     0.165 HD
BRANCH  11  13
HETATM   13  C5  UNL     1      20.052  39.936  56.654  1.00  0.00     0.200 C 
HETATM   14  N4  UNL     1      21.106  40.644  56.993  1.00  0.00    -0.284 N 
HETATM   15  C6  UNL     1      22.500  40.414  57.005  1.00  0.00     0.195 A 
HETATM   16  N5  UNL     1      21.309  41.906  57.468  1.00  0.00    -0.311 N 
HETATM   17  C7  UNL     1      22.557  41.769  57.506  1.00  0.00     0.102 A 
ATOM     18  H5  UNL     1      20.682  42.674  57.705  1.00  0.00     0.186 HD
ENDBRANCH  11  13
ENDBRANCH   1  10
TORSDOF 6
ENDMDL
MODEL 2
REMARK VINA RESULT: -3.905779017      1.363      5.900
REMARK  6 active torsions:
REMARK  status: ('A' for Active; 'I' for Inactive)
REMARK    1  A    between atoms: N1_1  and  C1_5 
REMARK    2  A    between atoms: C1_5  and  C2_6 
REMARK    3  A    between atoms: C2_6  and  N2_7 
REMARK    4  A    between atoms: N2_7  and  C3_9 
REMARK    5  A    between atoms: C3_9  and  C4_10 
REMARK    6  A    between atoms: N3_11  and  C5_13 
ROOT
HETATM    1  C3  UNL     1      18.521  39.912  54.875  1.00  0.00     0.163 C 
ENDROOT
BRANCH   1   2
HETATM    2  N2  UNL     1      19.896  39.740  55.190  1.00  0.00    -0.396 N 
ATOM      3  H2  UNL     1      20.562  39.460  54.470  1.00  0.00     0.159 HD
BRANCH   2   4
HETATM    4  C2  UNL     1      20.323  39.963  56.512  1.00  0.00     0.082 C 
BRANCH   4   5
HETATM    5  C1  UNL     1      21.500  40.854  56.749  1.00  0.00     0.273 C 
BRANCH   5   6
HETATM    6  N1  UNL     1      21.225  41.948  57.631  1.00  0.00    -0.075 N 
ATOM      7  H13 UNL     1      20.813  42.729  57.118  1.00  0.00     0.274 HD
ATOM      8  H12 UNL     1      20.449  41.723  58.252  1.00  0.00     0.274 HD
ATOM      9  H11 UNL     1      22.037  42.257  58.167  1.00  0.00     0.274 HD
ENDBRANCH   5   6
ENDBRANCH   4   5
ENDBRANCH   2   4
ENDBRANCH   1   2
BRANCH   1  10
HETATM   10  C4  UNL     1      17.857  40.848  55.867  1.00  0.00     0.081 C 
HETATM   11  N3  UNL     1      17.094  41.716  55.371  1.00  0.00    -0.363 N 
ATOM     12  H3  UNL     1      16.989  41.706  54.356  1.00  0.00     0.165 HD
BRANCH  11  13
HETATM   13  C5  UNL     1      16.370  42.696  56.067  1.00  0.00     0.200 C 
HETATM   14  N4  UNL     1      15.964  43.774  55.435  1.00  0.00    -0.284 N 
HETATM   15  C6  UNL     1      15.236  44.929  55.800  1.00  0.00     0.195 A 
HETATM   16  N5  UNL     1      16.076  44.246  54.161  1.00  0.00    -0.311 N 
HETATM   17  C7  UNL     1      15.436  45.296  54.415  1.00  0.00     0.102 A 
ATOM     18  H5  UNL     1      16.516  43.882  53.316  1.00  0.00     0.186 HD
ENDBRANCH  11  13
ENDBRANCH   1  10
TORSDOF 6
ENDMDL
MODEL 3
REMARK VINA RESULT: -3.781382729      1.187      1.187
REMARK  6 active torsions:
REMARK  status: ('A' for Active; 'I' for Inactive)
REMARK    1  A    between atoms: N1_1  and  C1_5 
REMARK    2  A    between atoms: C1_5  and  C2_6 
REMARK    3  A    between atoms: C2_6  and  N2_7 
REMARK    4  A    between atoms: N2_7  and  C3_9 
REMARK    5  A    between atoms: C3_9  and  C4_10 
REMARK    6  A    between atoms: N3_11  and  C5_13 
ROOT
HETATM    1  C3  UNL     1      17.682  41.944  57.042  1.00  0.00     0.163 C 
ENDROOT
BRANCH   1   2
HETATM    2  N2  UNL     1      16.524  41.845  56.225  1.00  0.00    -0.396 N 
ATOM      3  H2  UNL     1      15.799  41.159  56.434  1.00  0.00     0.159 HD
BRANCH   2   4
HETATM    4  C2  UNL     1      16.393  42.710  55.123  1.00  0.00     0.082 C 
BRANCH   4   5
HETATM    5  C1  UNL     1      15.754  44.047  55.327  1.00  0.00     0.273 C 
BRANCH   5   6
HETATM    6  N1  UNL     1      15.685  44.838  54.136  1.00  0.00    -0.075 N 
ATOM      7  H13 UNL     1      16.027  44.311  53.333  1.00  0.00     0.274 HD
ATOM      8  H12 UNL     1      14.716  44.975  53.850  1.00  0.00     0.274 HD
ATOM      9  H11 UNL     1      16.168  45.734  54.211  1.00  0.00     0.274 HD
ENDBRANCH   5   6
ENDBRANCH   4   5
ENDBRANCH   2   4
ENDBRANCH   1   2
BRANCH   1  10
HETATM   10  C4  UNL     1      18.750  40.973  56.578  1.00  0.00     0.081 C 
HETATM   11  N3  UNL     1      19.876  41.099  57.125  1.00  0.00    -0.363 N 
ATOM     12  H3  UNL     1      19.963  41.834  57.827  1.00  0.00     0.165 HD
BRANCH  11  13
HETATM   13  C5  UNL     1      21.025  40.335  56.870  1.00  0.00     0.200 C 
HETATM   14  N4  UNL     1      22.208  40.821  57.170  1.00  0.00    -0.284 N 
HETATM   15  C6  UNL     1      23.537  40.352  57.060  1.00  0.00     0.195 A 
HETATM   16  N5  UNL     1      22.664  41.989  57.706  1.00  0.00    -0.311 N 
HETATM   17  C7  UNL     1      23.867  41.636  57.639  1.00  0.00     0.102 A 
ATOM     18  H5  UNL     1      22.200  42.835  58.038  1.00  0.00     0.186 HD
ENDBRANCH  11  13
ENDBRANCH   1  10
TORSDOF 6
ENDMDL
MODEL 4
REMARK VINA RESULT: -3.766521288      1.711      2.342
REMARK  6 active torsions:
REMARK  status: ('A' for Active; 'I' for Inactive)
REMARK    1  A    between atoms: N1_1  and  C1_5 
REMARK    2  A    between atoms: C1_5  and  C2_6 
REMARK    3  A    between atoms: C2_6  and  N2_7 
REMARK    4  A    between atoms: N2_7  and  C3_9 
REMARK    5  A    between atoms: C3_9  and  C4_10 
REMARK    6  A    between atoms: N3_11  and  C5_13 
ROOT
HETATM    1  C3  UNL     1      16.761  41.602  56.141  1.00  0.00     0.163 C 
ENDROOT
BRANCH   1   2
HETATM    2  N2  UNL     1      16.432  42.968  55.931  1.00  0.00    -0.396 N 
ATOM      3  H2  UNL     1      16.471  43.636  56.701  1.00  0.00     0.159 HD
BRANCH   2   4
HETATM    4  C2  UNL     1      16.051  43.385  54.641  1.00  0.00     0.082 C 
BRANCH   4   5
HETATM    5  C1  UNL     1      15.770  44.835  54.406  1.00  0.00     0.273 C 
BRANCH   5   6
HETATM    6  N1  UNL     1      14.714  45.356  55.220  1.00  0.00    -0.075 N 
ATOM      7  H13 UNL     1      13.936  45.673  54.641  1.00  0.00     0.274 HD
ATOM      8  H12 UNL     1      14.251  44.605  55.732  1.00  0.00     0.274 HD
ATOM      9  H11 UNL     1      15.014  46.094  55.857  1.00  0.00     0.274 HD
ENDBRANCH   5   6
ENDBRANCH   4   5
ENDBRANCH   2   4
ENDBRANCH   1   2
BRANCH   1  10
HETATM   10  C4  UNL     1      18.183  41.465  56.649  1.00  0.00     0.081 C 
HETATM   11  N3  UNL     1      18.730  40.351  56.443  1.00  0.00    -0.363 N 
ATOM     12  H3  UNL     1      18.173  39.651  55.953  1.00  0.00     0.165 HD
BRANCH  11  13
HETATM   13  C5  UNL     1      20.028  39.970  56.817  1.00  0.00     0.200 C 
HETATM   14  N4  UNL     1      20.406  38.721  56.668  1.00  0.00    -0.284 N 
HETATM   15  C6  UNL     1      21.595  38.001  56.924  1.00  0.00     0.195 A 
HETATM   16  N5  UNL     1      19.813  37.581  56.211  1.00  0.00    -0.311 N 
HETATM   17  C7  UNL     1      20.836  36.881  56.413  1.00  0.00     0.102 A 
ATOM     18  H5  UNL     1      18.885  37.374  55.843  1.00  0.00     0.186 HD
ENDBRANCH  11  13
ENDBRANCH   1  10
TORSDOF 6
ENDMDL
MODEL 5
REMARK VINA RESULT: -3.696177367      3.151      6.250
REMARK  6 active torsions:
REMARK  status: ('A' for Active; 'I' for Inactive)
REMARK    1  A    between atoms: N1_1  and  C1_5 
REMARK    2  A    between atoms: C1_5  and  C2_6 
REMARK    3  A    between atoms: C2_6  and  N2_7 
REMARK    4  A    between atoms: N2_7  and  C3_9 
REMARK    5  A    between atoms: C3_9  and  C4_10 
REMARK    6  A    between atoms: N3_11  and  C5_13 
ROOT
HETATM    1  C3  UNL     1      18.345  39.885  54.362  1.00  0.00     0.163 C 
ENDROOT
BRANCH   1   2
HETATM    2  N2  UNL     1      18.138  38.506  54.635  1.00  0.00    -0.396 N 
ATOM      3  H2  UNL     1      18.590  38.062  55.434  1.00  0.00     0.159 HD
BRANCH   2   4
HETATM    4  C2  UNL     1      17.298  37.764  53.784  1.00  0.00     0.082 C 
BRANCH   4   5
HETATM    5  C1  UNL     1      17.231  36.279  53.953  1.00  0.00     0.273 C 
BRANCH   5   6
HETATM    6  N1  UNL     1      17.243  35.855  55.320  1.00  0.00    -0.075 N 
ATOM      7  H13 UNL     1      17.196  36.659  55.947  1.00  0.00     0.274 HD
ATOM      8  H12 UNL     1      16.364  35.397  55.563  1.00  0.00     0.274 HD
ATOM      9  H11 UNL     1      18.036  35.259  55.557  1.00  0.00     0.274 HD
ENDBRANCH   5   6
ENDBRANCH   4   5
ENDBRANCH   2   4
ENDBRANCH   1   2
BRANCH   1  10
HETATM   10  C4  UNL     1      17.782  40.743  55.479  1.00  0.00     0.081 C 
HETATM   11  N3  UNL     1      17.069  41.714  55.114  1.00  0.00    -0.363 N 
ATOM     12  H3  UNL     1      16.933  41.829  54.110  1.00  0.00     0.165 HD
BRANCH  11  13
HETATM   13  C5  UNL     1      16.442  42.654  55.945  1.00  0.00     0.200 C 
HETATM   14  N4  UNL     1      15.988  43.774  55.430  1.00  0.00    -0.284 N 
HETATM   15  C6  UNL     1      15.323  44.911  55.943  1.00  0.00     0.195 A 
HETATM   16  N5  UNL     1      15.970  44.326  54.183  1.00  0.00    -0.311 N 
HETATM   17  C7  UNL     1      15.379  45.364  54.571  1.00  0.00     0.102 A 
ATOM     18  H5  UNL     1      16.311  44.013  53.275  1.00  0.00     0.186 HD
ENDBRANCH  11  13
ENDBRANCH   1  10
TORSDOF 6
ENDMDL
