MODEL 1
REMARK VINA RESULT: -7.543959505      0.000      0.000
REMARK  2 active torsions:
REMARK  status: ('A' for Active; 'I' for Inactive)
REMARK    1  A    between atoms: C2_2  and  C4_4 
REMARK    2  A    between atoms: N1_10  and  O1_12 
ROOT
HETATM    1  C4  UNL     1       8.488 -10.767  11.120  1.00  0.00     0.041 C 
HETATM    2  C5  UNL     1       7.264  -9.887  11.387  1.00  0.00     0.016 C 
HETATM    3  C6  UNL     1       6.687 -10.360  12.709  1.00  0.00    -0.006 C 
HETATM    4  C7  UNL     1       5.178 -10.301  12.720  1.00  0.00     0.011 C 
HETATM    5  C8  UNL     1       7.155 -11.792  12.827  1.00  0.00     0.064 C 
HETATM    6  C9  UNL     1       7.166 -12.174  14.246  1.00  0.00     0.016 C 
HETATM    7  N1  UNL     1       6.045 -12.191  14.860  1.00  0.00    -0.277 N 
ATOM      8  H1  UNL     1       5.210 -11.938  14.331  1.00  0.00     0.193 HD
HETATM    9  C10 UNL     1       8.385 -12.536  14.997  1.00  0.00     0.062 C 
HETATM   10  C11 UNL     1       9.607 -11.841  14.421  1.00  0.00     0.086 C 
HETATM   11  C12 UNL     1       9.651 -12.015  12.962  1.00  0.00     0.148 C 
HETATM   12  O2  UNL     1      10.758 -12.296  12.473  1.00  0.00    -0.296 OA
HETATM   13  C13 UNL     1       8.467 -11.874  12.121  1.00  0.00     0.095 C 
HETATM   14  S1  UNL     1       8.368 -13.459  11.145  1.00  0.00    -0.077 SA
ENDROOT
BRANCH   7  15
HETATM   15  O1  UNL     1       5.890 -12.524  16.178  1.00  0.00    -0.290 OA
ATOM     16  H1  UNL     1       5.258 -12.122  16.763  1.00  0.00     0.244 HD
ENDBRANCH   7  15
BRANCH   1  17
HETATM   17  C2  UNL     1       9.712  -9.950  11.071  1.00  0.00    -0.087 C 
HETATM   18  C1  UNL     1      10.577 -10.110  10.094  1.00  0.00     0.014 C 
HETATM   19  C3  UNL     1       9.970  -8.912  12.091  1.00  0.00     0.043 C 
ENDBRANCH   1  17
TORSDOF 2
ENDMDL
MODEL 2
REMARK VINA RESULT: -7.254974549      1.187      1.200
REMARK  2 active torsions:
REMARK  status: ('A' for Active; 'I' for Inactive)
REMARK    1  A    between atoms: C2_2  and  C4_4 
REMARK    2  A    between atoms: N1_10  and  O1_12 
ROOT
HETATM    1  C4  UNL     1       8.433 -11.625  11.168  1.00  0.00     0.041 C 
HETATM    2  C5  UNL     1       7.598 -10.399  11.546  1.00  0.00     0.016 C 
HETATM    3  C6  UNL     1       6.838 -10.780  12.804  1.00  0.00    -0.006 C 
HETATM    4  C7  UNL     1       5.452 -10.180  12.830  1.00  0.00     0.011 C 
HETATM    5  C8  UNL     1       6.754 -12.288  12.744  1.00  0.00     0.064 C 
HETATM    6  C9  UNL     1       6.570 -12.809  14.105  1.00  0.00     0.016 C 
HETATM    7  N1  UNL     1       5.495 -12.490  14.718  1.00  0.00    -0.277 N 
ATOM      8  H1  UNL     1       4.828 -11.892  14.228  1.00  0.00     0.193 HD
HETATM    9  C10 UNL     1       7.547 -13.672  14.801  1.00  0.00     0.062 C 
HETATM   10  C11 UNL     1       8.958 -13.405  14.307  1.00  0.00     0.086 C 
HETATM   11  C12 UNL     1       8.994 -13.414  12.838  1.00  0.00     0.148 C 
HETATM   12  O2  UNL     1       9.945 -14.018  12.314  1.00  0.00    -0.296 OA
HETATM   13  C13 UNL     1       7.975 -12.757  12.026  1.00  0.00     0.095 C 
HETATM   14  S1  UNL     1       7.351 -14.074  10.864  1.00  0.00    -0.077 SA
ENDROOT
BRANCH   7  15
HETATM   15  O1  UNL     1       5.178 -12.894  15.986  1.00  0.00    -0.290 OA
ATOM     16  H1  UNL     1       4.299 -12.888  16.348  1.00  0.00     0.244 HD
ENDBRANCH   7  15
BRANCH   1  17
HETATM   17  C2  UNL     1       9.869 -11.307  11.213  1.00  0.00    -0.087 C 
HETATM   18  C1  UNL     1      10.667 -11.702  10.246  1.00  0.00     0.014 C 
HETATM   19  C3  UNL     1      10.433 -10.506  12.321  1.00  0.00     0.043 C 
ENDBRANCH   1  17
TORSDOF 2
ENDMDL
MODEL 3
REMARK VINA RESULT: -7.127083336      2.802      4.033
REMARK  2 active torsions:
REMARK  status: ('A' for Active; 'I' for Inactive)
REMARK    1  A    between atoms: C2_2  and  C4_4 
REMARK    2  A    between atoms: N1_10  and  O1_12 
ROOT
HETATM    1  C4  UNL     1       7.611 -11.867  14.183  1.00  0.00     0.041 C 
HETATM    2  C5  UNL     1       7.496 -13.047  15.151  1.00  0.00     0.016 C 
HETATM    3  C6  UNL     1       7.066 -14.238  14.314  1.00  0.00    -0.006 C 
HETATM    4  C7  UNL     1       6.117 -15.142  15.064  1.00  0.00     0.011 C 
HETATM    5  C8  UNL     1       6.369 -13.621  13.123  1.00  0.00     0.064 C 
HETATM    6  C9  UNL     1       6.411 -14.571  12.002  1.00  0.00     0.016 C 
HETATM    7  N1  UNL     1       5.796 -15.681  12.148  1.00  0.00    -0.277 N 
ATOM      8  H1  UNL     1       5.312 -15.844  13.031  1.00  0.00     0.193 HD
HETATM    9  C10 UNL     1       7.119 -14.319  10.730  1.00  0.00     0.062 C 
HETATM   10  C11 UNL     1       8.298 -13.384  10.938  1.00  0.00     0.086 C 
HETATM   11  C12 UNL     1       7.881 -12.204  11.710  1.00  0.00     0.148 C 
HETATM   12  O2  UNL     1       8.303 -11.106  11.308  1.00  0.00    -0.296 OA
HETATM   13  C13 UNL     1       7.020 -12.300  12.883  1.00  0.00     0.095 C 
HETATM   14  S1  UNL     1       5.600 -11.141  12.543  1.00  0.00    -0.077 SA
ENDROOT
BRANCH   7  15
HETATM   15  O1  UNL     1       5.742 -16.666  11.199  1.00  0.00    -0.290 OA
ATOM     16  H1  UNL     1       5.437 -17.551  11.360  1.00  0.00     0.244 HD
ENDBRANCH   7  15
BRANCH   1  17
HETATM   17  C2  UNL     1       8.995 -11.366  14.139  1.00  0.00    -0.087 C 
HETATM   18  C1  UNL     1       9.232 -10.073  14.134  1.00  0.00     0.014 C 
HETATM   19  C3  UNL     1      10.140 -12.302  14.141  1.00  0.00     0.043 C 
ENDBRANCH   1  17
TORSDOF 2
ENDMDL
MODEL 4
REMARK VINA RESULT: -7.096621179      3.097      5.085
REMARK  2 active torsions:
REMARK  status: ('A' for Active; 'I' for Inactive)
REMARK    1  A    between atoms: C2_2  and  C4_4 
REMARK    2  A    between atoms: N1_10  and  O1_12 
ROOT
HETATM    1  C4  UNL     1       8.430 -11.455  12.147  1.00  0.00     0.041 C 
HETATM    2  C5  UNL     1       8.219 -10.150  11.376  1.00  0.00     0.016 C 
HETATM    3  C6  UNL     1       9.381 -10.041  10.407  1.00  0.00    -0.006 C 
HETATM    4  C7  UNL     1       9.840  -8.613  10.233  1.00  0.00     0.011 C 
HETATM    5  C8  UNL     1      10.474 -10.867  11.044  1.00  0.00     0.064 C 
HETATM    6  C9  UNL     1      11.408 -11.310   9.999  1.00  0.00     0.016 C 
HETATM    7  N1  UNL     1      12.063 -10.409   9.374  1.00  0.00    -0.277 N 
ATOM      8  H1  UNL     1      11.900  -9.436   9.635  1.00  0.00     0.193 HD
HETATM    9  C10 UNL     1      11.630 -12.724   9.633  1.00  0.00     0.062 C 
HETATM   10  C11 UNL     1      10.391 -13.559   9.904  1.00  0.00     0.086 C 
HETATM   11  C12 UNL     1       9.888 -13.297  11.260  1.00  0.00     0.148 C 
HETATM   12  O2  UNL     1       9.540 -14.291  11.920  1.00  0.00    -0.296 OA
HETATM   13  C13 UNL     1       9.798 -11.951  11.815  1.00  0.00     0.095 C 
HETATM   14  S1  UNL     1      10.732 -12.023  13.427  1.00  0.00    -0.077 SA
ENDROOT
BRANCH   7  15
HETATM   15  O1  UNL     1      12.967 -10.659   8.378  1.00  0.00    -0.290 OA
ATOM     16  H1  UNL     1      13.717 -10.109   8.182  1.00  0.00     0.244 HD
ENDBRANCH   7  15
BRANCH   1  17
HETATM   17  C2  UNL     1       7.317 -12.388  11.901  1.00  0.00    -0.087 C 
HETATM   18  C1  UNL     1       6.754 -13.028  12.902  1.00  0.00     0.014 C 
HETATM   19  C3  UNL     1       6.787 -12.590  10.535  1.00  0.00     0.043 C 
ENDBRANCH   1  17
TORSDOF 2
ENDMDL
MODEL 5
REMARK VINA RESULT: -6.993533176      2.602      4.753
REMARK  2 active torsions:
REMARK  status: ('A' for Active; 'I' for Inactive)
REMARK    1  A    between atoms: C2_2  and  C4_4 
REMARK    2  A    between atoms: N1_10  and  O1_12 
ROOT
HETATM    1  C4  UNL     1       8.012 -14.286  13.510  1.00  0.00     0.041 C 
HETATM    2  C5  UNL     1       8.730 -13.614  14.683  1.00  0.00     0.016 C 
HETATM    3  C6  UNL     1       8.617 -12.120  14.444  1.00  0.00    -0.006 C 
HETATM    4  C7  UNL     1       9.860 -11.382  14.882  1.00  0.00     0.011 C 
HETATM    5  C8  UNL     1       8.435 -11.995  12.949  1.00  0.00     0.064 C 
HETATM    6  C9  UNL     1       7.765 -10.721  12.655  1.00  0.00     0.016 C 
HETATM    7  N1  UNL     1       8.387  -9.645  12.955  1.00  0.00    -0.277 N 
ATOM      8  H1  UNL     1       9.310  -9.733  13.380  1.00  0.00     0.193 HD
HETATM    9  C10 UNL     1       6.427 -10.612  12.039  1.00  0.00     0.062 C 
HETATM   10  C11 UNL     1       5.574 -11.824  12.371  1.00  0.00     0.086 C 
HETATM   11  C12 UNL     1       6.324 -13.061  12.112  1.00  0.00     0.148 C 
HETATM   12  O2  UNL     1       5.704 -13.971  11.535  1.00  0.00    -0.296 OA
HETATM   13  C13 UNL     1       7.721 -13.226  12.501  1.00  0.00     0.095 C 
HETATM   14  S1  UNL     1       8.607 -13.732  10.941  1.00  0.00    -0.077 SA
ENDROOT
BRANCH   7  15
HETATM   15  O1  UNL     1       7.898  -8.385  12.744  1.00  0.00    -0.290 OA
ATOM     16  H1  UNL     1       8.369  -7.585  12.948  1.00  0.00     0.244 HD
ENDBRANCH   7  15
BRANCH   1  17
HETATM   17  C2  UNL     1       6.861 -15.070  13.988  1.00  0.00    -0.087 C 
HETATM   18  C1  UNL     1       6.650 -16.284  13.531  1.00  0.00     0.014 C 
HETATM   19  C3  UNL     1       5.949 -14.525  15.017  1.00  0.00     0.043 C 
ENDBRANCH   1  17
TORSDOF 2
ENDMDL
