MODEL 1
REMARK VINA RESULT: -6.822452390      0.000      0.000
REMARK  2 active torsions:
REMARK  status: ('A' for Active; 'I' for Inactive)
REMARK    1  A    between atoms: S1_2  and  C2_3 
REMARK    2  A    between atoms: C12_14  and  O1_15 
ROOT
HETATM    1  C2  UNL     1       7.999 -14.794  14.289  1.00  0.00     0.016 A 
HETATM    2  C3  UNL     1       8.969 -13.829  14.281  1.00  0.00     0.071 A 
HETATM    3  S2  UNL     1       8.152 -12.441  14.827  1.00  0.00    -0.083 SA
HETATM    4  C4  UNL     1       6.596 -13.107  15.058  1.00  0.00     0.080 A 
HETATM    5  C5  UNL     1       6.760 -14.410  14.697  1.00  0.00    -0.003 A 
HETATM    6  C6  UNL     1       5.538 -15.325  14.793  1.00  0.00     0.031 C 
HETATM    7  C7  UNL     1       5.907 -16.661  15.378  1.00  0.00     0.010 C 
HETATM    8  C8  UNL     1       4.942 -17.189  16.385  1.00  0.00     0.001 C 
HETATM    9  C9  UNL     1       3.504 -16.899  16.118  1.00  0.00     0.001 C 
HETATM   10  C10 UNL     1       3.252 -15.564  15.466  1.00  0.00     0.010 C 
HETATM   11  C11 UNL     1       4.522 -14.729  15.693  1.00  0.00     0.043 C 
HETATM   12  C12 UNL     1       4.113 -13.307  15.346  1.00  0.00     0.223 C 
HETATM   13  N1  UNL     1       5.334 -12.542  15.507  1.00  0.00    -0.357 N 
ATOM     14  H1  UNL     1       5.308 -11.615  15.932  1.00  0.00     0.162 HD
ENDROOT
BRANCH   1  15
HETATM   15  S1  UNL     1       8.462 -16.485  13.737  1.00  0.00    -0.133 SA
HETATM   16  C1  UNL     1      10.242 -16.699  13.900  1.00  0.00     0.095 C 
ENDBRANCH   1  15
BRANCH  12  17
HETATM   17  O1  UNL     1       3.131 -12.901  16.211  1.00  0.00    -0.376 OA
ATOM     18  H1  UNL     1       3.241 -11.975  16.393  1.00  0.00     0.212 HD
ENDBRANCH  12  17
TORSDOF 2
ENDMDL
MODEL 2
REMARK VINA RESULT: -6.743087134      3.454      4.549
REMARK  2 active torsions:
REMARK  status: ('A' for Active; 'I' for Inactive)
REMARK    1  A    between atoms: S1_2  and  C2_3 
REMARK    2  A    between atoms: C12_14  and  O1_15 
ROOT
HETATM    1  C2  UNL     1       9.543 -10.635  12.017  1.00  0.00     0.016 A 
HETATM    2  C3  UNL     1       9.844  -9.342  11.685  1.00  0.00     0.071 A 
HETATM    3  S2  UNL     1       8.340  -8.552  11.759  1.00  0.00    -0.083 SA
HETATM    4  C4  UNL     1       7.354  -9.873  12.211  1.00  0.00     0.080 A 
HETATM    5  C5  UNL     1       8.238 -10.906  12.292  1.00  0.00    -0.003 A 
HETATM    6  C6  UNL     1       7.685 -12.274  12.693  1.00  0.00     0.031 C 
HETATM    7  C7  UNL     1       8.595 -12.957  13.677  1.00  0.00     0.010 C 
HETATM    8  C8  UNL     1       7.897 -13.628  14.812  1.00  0.00     0.001 C 
HETATM    9  C9  UNL     1       6.591 -14.269  14.481  1.00  0.00     0.001 C 
HETATM   10  C10 UNL     1       5.791 -13.540  13.432  1.00  0.00     0.010 C 
HETATM   11  C11 UNL     1       6.371 -12.119  13.362  1.00  0.00     0.043 C 
HETATM   12  C12 UNL     1       5.342 -11.324  12.576  1.00  0.00     0.223 C 
HETATM   13  N1  UNL     1       5.929 -10.003  12.466  1.00  0.00    -0.357 N 
ATOM     14  H1  UNL     1       5.347  -9.171  12.566  1.00  0.00     0.162 HD
ENDROOT
BRANCH   1  15
HETATM   15  S1  UNL     1      10.912 -11.860  12.041  1.00  0.00    -0.133 SA
HETATM   16  C1  UNL     1      10.921 -12.773  10.489  1.00  0.00     0.095 C 
ENDBRANCH   1  15
BRANCH  12  17
HETATM   17  O1  UNL     1       4.162 -11.308  13.272  1.00  0.00    -0.376 OA
ATOM     18  H1  UNL     1       3.743 -10.464  13.155  1.00  0.00     0.212 HD
ENDBRANCH  12  17
TORSDOF 2
ENDMDL
MODEL 3
REMARK VINA RESULT: -6.595392887      4.136      5.464
REMARK  2 active torsions:
REMARK  status: ('A' for Active; 'I' for Inactive)
REMARK    1  A    between atoms: S1_2  and  C2_3 
REMARK    2  A    between atoms: C12_14  and  O1_15 
ROOT
HETATM    1  C2  UNL     1      10.266 -11.262  10.619  1.00  0.00     0.016 A 
HETATM    2  C3  UNL     1      10.735 -10.228   9.855  1.00  0.00     0.071 A 
HETATM    3  S2  UNL     1       9.672  -8.952  10.217  1.00  0.00    -0.083 SA
HETATM    4  C4  UNL     1       8.650  -9.749  11.331  1.00  0.00     0.080 A 
HETATM    5  C5  UNL     1       9.175 -11.004  11.390  1.00  0.00    -0.003 A 
HETATM    6  C6  UNL     1       8.495 -12.007  12.324  1.00  0.00     0.031 C 
HETATM    7  C7  UNL     1       9.513 -12.813  13.084  1.00  0.00     0.010 C 
HETATM    8  C8  UNL     1       9.200 -13.009  14.529  1.00  0.00     0.001 C 
HETATM    9  C9  UNL     1       7.756 -13.184  14.861  1.00  0.00     0.001 C 
HETATM   10  C10 UNL     1       6.819 -12.386  13.992  1.00  0.00     0.010 C 
HETATM   11  C11 UNL     1       7.674 -11.293  13.331  1.00  0.00     0.043 C 
HETATM   12  C12 UNL     1       6.666 -10.312  12.757  1.00  0.00     0.223 C 
HETATM   13  N1  UNL     1       7.484  -9.321  12.086  1.00  0.00    -0.357 N 
ATOM     14  H1  UNL     1       7.243  -8.331  12.143  1.00  0.00     0.162 HD
ENDROOT
BRANCH   1  15
HETATM   15  S1  UNL     1      11.136 -12.877  10.513  1.00  0.00    -0.133 SA
HETATM   16  C1  UNL     1      12.826 -12.682  11.101  1.00  0.00     0.095 C 
ENDBRANCH   1  15
BRANCH  12  17
HETATM   17  O1  UNL     1       5.936  -9.771  13.783  1.00  0.00    -0.376 OA
ATOM     18  H1  UNL     1       5.084  -9.509  13.453  1.00  0.00     0.212 HD
ENDBRANCH  12  17
TORSDOF 2
ENDMDL
MODEL 4
REMARK VINA RESULT: -6.526820162      2.447      4.343
REMARK  2 active torsions:
REMARK  status: ('A' for Active; 'I' for Inactive)
REMARK    1  A    between atoms: S1_2  and  C2_3 
REMARK    2  A    between atoms: C12_14  and  O1_15 
ROOT
HETATM    1  C2  UNL     1       3.992 -16.537  15.772  1.00  0.00     0.016 A 
HETATM    2  C3  UNL     1       2.624 -16.535  15.827  1.00  0.00     0.071 A 
HETATM    3  S2  UNL     1       2.215 -14.922  15.482  1.00  0.00    -0.083 SA
HETATM    4  C4  UNL     1       3.783 -14.276  15.273  1.00  0.00     0.080 A 
HETATM    5  C5  UNL     1       4.591 -15.352  15.480  1.00  0.00    -0.003 A 
HETATM    6  C6  UNL     1       6.100 -15.131  15.358  1.00  0.00     0.031 C 
HETATM    7  C7  UNL     1       6.753 -16.263  14.611  1.00  0.00     0.010 C 
HETATM    8  C8  UNL     1       7.777 -15.842  13.611  1.00  0.00     0.001 C 
HETATM    9  C9  UNL     1       8.607 -14.663  13.991  1.00  0.00     0.001 C 
HETATM   10  C10 UNL     1       7.874 -13.623  14.797  1.00  0.00     0.010 C 
HETATM   11  C11 UNL     1       6.376 -13.895  14.588  1.00  0.00     0.043 C 
HETATM   12  C12 UNL     1       5.683 -12.647  15.109  1.00  0.00     0.223 C 
HETATM   13  N1  UNL     1       4.271 -12.942  14.961  1.00  0.00    -0.357 N 
ATOM     14  H1  UNL     1       3.625 -12.220  14.641  1.00  0.00     0.162 HD
ENDROOT
BRANCH   1  15
HETATM   15  S1  UNL     1       4.866 -18.118  16.109  1.00  0.00    -0.133 SA
HETATM   16  C1  UNL     1       4.068 -19.447  15.194  1.00  0.00     0.095 C 
ENDBRANCH   1  15
BRANCH  12  17
HETATM   17  O1  UNL     1       6.068 -11.572  14.352  1.00  0.00    -0.376 OA
ATOM     18  H1  UNL     1       6.123 -10.804  14.909  1.00  0.00     0.212 HD
ENDBRANCH  12  17
TORSDOF 2
ENDMDL
MODEL 5
REMARK VINA RESULT: -6.489852051      5.419      7.419
REMARK  2 active torsions:
REMARK  status: ('A' for Active; 'I' for Inactive)
REMARK    1  A    between atoms: S1_2  and  C2_3 
REMARK    2  A    between atoms: C12_14  and  O1_15 
ROOT
HETATM    1  C2  UNL     1       9.234 -13.554  12.658  1.00  0.00     0.016 A 
HETATM    2  C3  UNL     1       9.968 -14.410  13.433  1.00  0.00     0.071 A 
HETATM    3  S2  UNL     1      11.564 -13.861  13.232  1.00  0.00    -0.083 SA
HETATM    4  C4  UNL     1      11.276 -12.554  12.169  1.00  0.00     0.080 A 
HETATM    5  C5  UNL     1       9.925 -12.585  12.000  1.00  0.00    -0.003 A 
HETATM    6  C6  UNL     1       9.307 -11.520  11.092  1.00  0.00     0.031 C 
HETATM    7  C7  UNL     1       8.042 -10.968  11.691  1.00  0.00     0.010 C 
HETATM    8  C8  UNL     1       7.898  -9.486  11.587  1.00  0.00     0.001 C 
HETATM    9  C9  UNL     1       8.425  -8.870  10.335  1.00  0.00     0.001 C 
HETATM   10  C10 UNL     1       9.653  -9.545   9.782  1.00  0.00     0.010 C 
HETATM   11  C11 UNL     1      10.239 -10.379  10.932  1.00  0.00     0.043 C 
HETATM   12  C12 UNL     1      11.636 -10.753  10.462  1.00  0.00     0.223 C 
HETATM   13  N1  UNL     1      12.153 -11.588  11.528  1.00  0.00    -0.357 N 
ATOM     14  H1  UNL     1      13.124 -11.497  11.827  1.00  0.00     0.162 HD
ENDROOT
BRANCH   1  15
HETATM   15  S1  UNL     1       7.416 -13.809  12.573  1.00  0.00    -0.133 SA
HETATM   16  C1  UNL     1       6.979 -14.448  10.948  1.00  0.00     0.095 C 
ENDBRANCH   1  15
BRANCH  12  17
HETATM   17  O1  UNL     1      12.373  -9.610  10.297  1.00  0.00    -0.376 OA
ATOM     18  H1  UNL     1      13.054  -9.581  10.958  1.00  0.00     0.212 HD
ENDBRANCH  12  17
TORSDOF 2
ENDMDL
