MODEL 1
REMARK VINA RESULT: -7.650692687      0.000      0.000
REMARK  3 active torsions:
REMARK  status: ('A' for Active; 'I' for Inactive)
REMARK    1  A    between atoms: C5_5  and  O1_6 
REMARK    2  A    between atoms: C6_8  and  O2_9 
REMARK    3  A    between atoms: O2_9  and  O3_10 
ROOT
HETATM    1  C1  UNL     1      11.177 -10.132  12.214  1.00  0.00     0.019 C 
HETATM    2  C2  UNL     1       9.872 -10.671  11.662  1.00  0.00     0.004 C 
HETATM    3  C3  UNL     1       9.802 -10.180  10.208  1.00  0.00     0.015 C 
HETATM    4  C4  UNL     1       9.626  -8.681  10.494  1.00  0.00     0.036 C 
HETATM    5  C5  UNL     1       8.417  -8.784  11.436  1.00  0.00     0.161 C 
HETATM    6  C6  UNL     1       8.693 -10.037  12.271  1.00  0.00     0.153 C 
HETATM    7  C7  UNL     1       7.446 -10.846  12.223  1.00  0.00    -0.029 C 
HETATM    8  C8  UNL     1       7.430 -12.094  11.774  1.00  0.00    -0.007 C 
HETATM    9  C9  UNL     1       6.126 -12.842  11.760  1.00  0.00     0.042 C 
HETATM   10  C10 UNL     1       5.450 -12.448  13.080  1.00  0.00     0.005 C 
HETATM   11  C11 UNL     1       5.049 -11.017  12.926  1.00  0.00     0.005 C 
HETATM   12  C12 UNL     1       6.231 -10.141  12.715  1.00  0.00     0.038 C 
HETATM   13  C13 UNL     1       8.647 -12.737  11.304  1.00  0.00     0.156 C 
HETATM   14  O4  UNL     1       8.604 -13.777  10.609  1.00  0.00    -0.293 OA
HETATM   15  C14 UNL     1       9.937 -12.144  11.658  1.00  0.00     0.096 C 
ENDROOT
BRANCH   6  16
HETATM   16  O2  UNL     1       8.862  -9.609  13.576  1.00  0.00    -0.224 OA
BRANCH  16  17
HETATM   17  O3  UNL     1       8.759 -10.592  14.445  1.00  0.00    -0.249 OA
ATOM     18  H3  UNL     1       9.499 -11.187  14.411  1.00  0.00     0.253 HD
ENDBRANCH  16  17
ENDBRANCH   6  16
BRANCH   5  19
HETATM   19  O1  UNL     1       8.262  -7.665  12.207  1.00  0.00    -0.392 OA
ATOM     20  H1  UNL     1       9.006  -7.514  12.778  1.00  0.00     0.210 HD
ENDBRANCH   5  19
TORSDOF 3
ENDMDL
MODEL 2
REMARK VINA RESULT: -7.629123672      1.784      2.328
REMARK  3 active torsions:
REMARK  status: ('A' for Active; 'I' for Inactive)
REMARK    1  A    between atoms: C5_5  and  O1_6 
REMARK    2  A    between atoms: C6_8  and  O2_9 
REMARK    3  A    between atoms: O2_9  and  O3_10 
ROOT
HETATM    1  C1  UNL     1      10.159  -8.881  12.243  1.00  0.00     0.019 C 
HETATM    2  C2  UNL     1       9.549 -10.254  12.036  1.00  0.00     0.004 C 
HETATM    3  C3  UNL     1       8.597 -10.109  10.839  1.00  0.00     0.015 C 
HETATM    4  C4  UNL     1       7.547  -9.206  11.506  1.00  0.00     0.036 C 
HETATM    5  C5  UNL     1       7.268 -10.079  12.740  1.00  0.00     0.161 C 
HETATM    6  C6  UNL     1       8.639 -10.639  13.125  1.00  0.00     0.153 C 
HETATM    7  C7  UNL     1       8.450 -12.104  13.300  1.00  0.00    -0.029 C 
HETATM    8  C8  UNL     1       9.147 -12.995  12.604  1.00  0.00    -0.007 C 
HETATM    9  C9  UNL     1       8.894 -14.458  12.842  1.00  0.00     0.042 C 
HETATM   10  C10 UNL     1       8.728 -14.569  14.364  1.00  0.00     0.005 C 
HETATM   11  C11 UNL     1       7.421 -13.919  14.684  1.00  0.00     0.005 C 
HETATM   12  C12 UNL     1       7.424 -12.481  14.309  1.00  0.00     0.038 C 
HETATM   13  C13 UNL     1      10.138 -12.574  11.628  1.00  0.00     0.156 C 
HETATM   14  O4  UNL     1      10.576 -13.366  10.765  1.00  0.00    -0.293 OA
HETATM   15  C14 UNL     1      10.624 -11.193  11.671  1.00  0.00     0.096 C 
ENDROOT
BRANCH   6  16
HETATM   16  O2  UNL     1       8.945 -10.109  14.365  1.00  0.00    -0.224 OA
BRANCH  16  17
HETATM   17  O3  UNL     1       9.958 -10.722  14.940  1.00  0.00    -0.249 OA
ATOM     18  H3  UNL     1       9.743 -11.044  15.808  1.00  0.00     0.253 HD
ENDBRANCH  16  17
ENDBRANCH   6  16
BRANCH   5  19
HETATM   19  O1  UNL     1       6.687  -9.372  13.755  1.00  0.00    -0.392 OA
ATOM     20  H1  UNL     1       6.274  -9.936  14.398  1.00  0.00     0.210 HD
ENDBRANCH   5  19
TORSDOF 3
ENDMDL
MODEL 3
REMARK VINA RESULT: -7.414255780      2.088      4.063
REMARK  3 active torsions:
REMARK  status: ('A' for Active; 'I' for Inactive)
REMARK    1  A    between atoms: C5_5  and  O1_6 
REMARK    2  A    between atoms: C6_8  and  O2_9 
REMARK    3  A    between atoms: O2_9  and  O3_10 
ROOT
HETATM    1  C1  UNL     1       7.042 -14.746  12.811  1.00  0.00     0.019 C 
HETATM    2  C2  UNL     1       8.034 -13.624  12.579  1.00  0.00     0.004 C 
HETATM    3  C3  UNL     1       8.886 -13.552  13.856  1.00  0.00     0.015 C 
HETATM    4  C4  UNL     1       7.797 -13.047  14.814  1.00  0.00     0.036 C 
HETATM    5  C5  UNL     1       7.346 -11.824  13.999  1.00  0.00     0.161 C 
HETATM    6  C6  UNL     1       7.396 -12.300  12.545  1.00  0.00     0.153 C 
HETATM    7  C7  UNL     1       8.146 -11.257  11.797  1.00  0.00    -0.029 C 
HETATM    8  C8  UNL     1       9.247 -11.534  11.109  1.00  0.00    -0.007 C 
HETATM    9  C9  UNL     1       9.946 -10.419  10.380  1.00  0.00     0.042 C 
HETATM   10  C10 UNL     1       8.804  -9.588   9.779  1.00  0.00     0.005 C 
HETATM   11  C11 UNL     1       8.141  -8.907  10.932  1.00  0.00     0.005 C 
HETATM   12  C12 UNL     1       7.563  -9.891  11.885  1.00  0.00     0.038 C 
HETATM   13  C13 UNL     1       9.776 -12.887  11.056  1.00  0.00     0.156 C 
HETATM   14  O4  UNL     1      10.948 -13.111  10.680  1.00  0.00    -0.293 OA
HETATM   15  C14 UNL     1       8.907 -13.997  11.451  1.00  0.00     0.096 C 
ENDROOT
BRANCH   6  16
HETATM   16  O2  UNL     1       6.091 -12.286  12.083  1.00  0.00    -0.224 OA
BRANCH  16  17
HETATM   17  O3  UNL     1       6.006 -12.587  10.804  1.00  0.00    -0.249 OA
ATOM     18  H3  UNL     1       6.011 -11.817  10.248  1.00  0.00     0.253 HD
ENDBRANCH  16  17
ENDBRANCH   6  16
BRANCH   5  19
HETATM   19  O1  UNL     1       6.103 -11.387  14.364  1.00  0.00    -0.392 OA
ATOM     20  H1  UNL     1       5.575 -11.134  13.616  1.00  0.00     0.210 HD
ENDBRANCH   5  19
TORSDOF 3
ENDMDL
MODEL 4
REMARK VINA RESULT: -7.375671235      2.614      4.669
REMARK  3 active torsions:
REMARK  status: ('A' for Active; 'I' for Inactive)
REMARK    1  A    between atoms: C5_5  and  O1_6 
REMARK    2  A    between atoms: C6_8  and  O2_9 
REMARK    3  A    between atoms: O2_9  and  O3_10 
ROOT
HETATM    1  C1  UNL     1       7.438 -11.074  11.100  1.00  0.00     0.019 C 
HETATM    2  C2  UNL     1       7.390 -12.167  12.151  1.00  0.00     0.004 C 
HETATM    3  C3  UNL     1       8.851 -12.414  12.558  1.00  0.00     0.015 C 
HETATM    4  C4  UNL     1       9.342 -13.029  11.239  1.00  0.00     0.036 C 
HETATM    5  C5  UNL     1       8.277 -14.130  11.107  1.00  0.00     0.161 C 
HETATM    6  C6  UNL     1       6.987 -13.468  11.598  1.00  0.00     0.153 C 
HETATM    7  C7  UNL     1       6.389 -14.412  12.579  1.00  0.00    -0.029 C 
HETATM    8  C8  UNL     1       6.127 -14.058  13.831  1.00  0.00    -0.007 C 
HETATM    9  C9  UNL     1       5.521 -15.075  14.759  1.00  0.00     0.042 C 
HETATM   10  C10 UNL     1       4.488 -15.809  13.892  1.00  0.00     0.005 C 
HETATM   11  C11 UNL     1       5.275 -16.628  12.921  1.00  0.00     0.005 C 
HETATM   12  C12 UNL     1       6.113 -15.772  12.042  1.00  0.00     0.038 C 
HETATM   13  C13 UNL     1       6.416 -12.716  14.306  1.00  0.00     0.156 C 
HETATM   14  O4  UNL     1       6.463 -12.456  15.529  1.00  0.00    -0.293 OA
HETATM   15  C14 UNL     1       6.654 -11.658  13.322  1.00  0.00     0.096 C 
ENDROOT
BRANCH   6  16
HETATM   16  O2  UNL     1       6.138 -13.409  10.507  1.00  0.00    -0.224 OA
BRANCH  16  17
HETATM   17  O3  UNL     1       4.883 -13.225  10.855  1.00  0.00    -0.249 OA
ATOM     18  H3  UNL     1       4.361 -12.851  10.154  1.00  0.00     0.253 HD
ENDBRANCH  16  17
ENDBRANCH   6  16
BRANCH   5  19
HETATM   19  O1  UNL     1       8.172 -14.599   9.827  1.00  0.00    -0.392 OA
ATOM     20  H1  UNL     1       7.571 -15.332   9.760  1.00  0.00     0.210 HD
ENDBRANCH   5  19
TORSDOF 3
ENDMDL
MODEL 5
REMARK VINA RESULT: -7.354940414      1.926      4.649
REMARK  3 active torsions:
REMARK  status: ('A' for Active; 'I' for Inactive)
REMARK    1  A    between atoms: C5_5  and  O1_6 
REMARK    2  A    between atoms: C6_8  and  O2_9 
REMARK    3  A    between atoms: O2_9  and  O3_10 
ROOT
HETATM    1  C1  UNL     1       8.072 -14.568  14.432  1.00  0.00     0.019 C 
HETATM    2  C2  UNL     1       7.949 -13.085  14.142  1.00  0.00     0.004 C 
HETATM    3  C3  UNL     1       6.701 -12.615  14.905  1.00  0.00     0.015 C 
HETATM    4  C4  UNL     1       5.646 -13.361  14.074  1.00  0.00     0.036 C 
HETATM    5  C5  UNL     1       6.063 -12.847  12.687  1.00  0.00     0.161 C 
HETATM    6  C6  UNL     1       7.592 -12.808  12.742  1.00  0.00     0.153 C 
HETATM    7  C7  UNL     1       7.987 -11.464  12.244  1.00  0.00    -0.029 C 
HETATM    8  C8  UNL     1       8.715 -10.626  12.972  1.00  0.00    -0.007 C 
HETATM    9  C9  UNL     1       9.071  -9.285  12.393  1.00  0.00     0.042 C 
HETATM   10  C10 UNL     1       9.407  -9.585  10.926  1.00  0.00     0.005 C 
HETATM   11  C11 UNL     1       8.110  -9.930  10.269  1.00  0.00     0.005 C 
HETATM   12  C12 UNL     1       7.500 -11.142  10.876  1.00  0.00     0.038 C 
HETATM   13  C13 UNL     1       9.165 -10.990  14.305  1.00  0.00     0.156 C 
HETATM   14  O4  UNL     1       9.580 -10.124  15.109  1.00  0.00    -0.293 OA
HETATM   15  C14 UNL     1       9.128 -12.399  14.700  1.00  0.00     0.096 C 
ENDROOT
BRANCH   6  16
HETATM   16  O2  UNL     1       8.041 -13.741  11.824  1.00  0.00    -0.224 OA
BRANCH  16  17
HETATM   17  O3  UNL     1       9.327 -13.621  11.573  1.00  0.00    -0.249 OA
ATOM     18  H3  UNL     1       9.777 -14.458  11.571  1.00  0.00     0.253 HD
ENDBRANCH  16  17
ENDBRANCH   6  16
BRANCH   5  19
HETATM   19  O1  UNL     1       5.595 -13.641  11.677  1.00  0.00    -0.392 OA
ATOM     20  H1  UNL     1       6.134 -13.587  10.897  1.00  0.00     0.210 HD
ENDBRANCH   5  19
TORSDOF 3
ENDMDL
