MODEL 1
REMARK VINA RESULT: -7.642669869      0.000      0.000
REMARK  2 active torsions:
REMARK  status: ('A' for Active; 'I' for Inactive)
REMARK    1  A    between atoms: C3_4  and  C4_5 
REMARK    2  A    between atoms: C7_9  and  O2_10 
ROOT
HETATM    1  N1  UNL     1       5.175 -10.411  12.852  1.00  0.00    -0.197 NA
HETATM    2  C1  UNL     1       6.214 -10.882  12.603  1.00  0.00     0.067 C 
HETATM    3  C2  UNL     1       7.493 -11.417  12.271  1.00  0.00     0.129 C 
HETATM    4  C3  UNL     1       7.854 -12.733  12.889  1.00  0.00     0.048 C 
HETATM    5  C8  UNL     1       7.839 -12.408  14.378  1.00  0.00     0.055 C 
HETATM    6  C9  UNL     1       9.073 -11.534  14.598  1.00  0.00     0.057 C 
HETATM    7  N2  UNL     1       9.346 -10.555  13.654  1.00  0.00    -0.392 N 
ATOM      8  H2  UNL     1      10.074  -9.869  13.852  1.00  0.00     0.159 HD
HETATM    9  C10 UNL     1       8.660 -10.478  12.449  1.00  0.00     0.046 C 
HETATM   10  C11 UNL     1       8.180  -9.053  12.210  1.00  0.00     0.032 C 
HETATM   11  C12 UNL     1       8.243  -8.850  10.722  1.00  0.00     0.002 C 
HETATM   12  C13 UNL     1       9.053  -9.947  10.120  1.00  0.00     0.002 C 
HETATM   13  C14 UNL     1       9.618 -10.717  11.296  1.00  0.00     0.032 C 
ENDROOT
BRANCH   4  14
HETATM   14  C4  UNL     1       6.942 -13.796  12.474  1.00  0.00     0.008 A 
HETATM   15  C5  UNL     1       5.915 -14.360  13.188  1.00  0.00     0.037 A 
HETATM   16  C6  UNL     1       5.382 -15.391  12.374  1.00  0.00     0.145 A 
HETATM   17  O1  UNL     1       6.065 -15.423  11.271  1.00  0.00    -0.300 OA
HETATM   18  C7  UNL     1       6.983 -14.518  11.268  1.00  0.00     0.189 A 
BRANCH  18  19
HETATM   19  O2  UNL     1       7.902 -14.234  10.272  1.00  0.00    -0.340 OA
ATOM     20  H2  UNL     1       8.835 -14.362  10.396  1.00  0.00     0.220 HD
ENDBRANCH  18  19
ENDBRANCH   4  14
TORSDOF 2
ENDMDL
MODEL 2
REMARK VINA RESULT: -7.428162507      2.692      3.410
REMARK  2 active torsions:
REMARK  status: ('A' for Active; 'I' for Inactive)
REMARK    1  A    between atoms: C3_4  and  C4_5 
REMARK    2  A    between atoms: C7_9  and  O2_10 
ROOT
HETATM    1  N1  UNL     1       9.359 -10.167  14.706  1.00  0.00    -0.197 NA
HETATM    2  C1  UNL     1       9.688 -10.493  13.634  1.00  0.00     0.067 C 
HETATM    3  C2  UNL     1      10.060 -10.854  12.306  1.00  0.00     0.129 C 
HETATM    4  C3  UNL     1      11.049 -11.970  12.164  1.00  0.00     0.048 C 
HETATM    5  C8  UNL     1      12.276 -11.411  12.874  1.00  0.00     0.055 C 
HETATM    6  C9  UNL     1      12.799 -10.318  11.941  1.00  0.00     0.057 C 
HETATM    7  N2  UNL     1      11.870  -9.478  11.348  1.00  0.00    -0.392 N 
ATOM      8  H2  UNL     1      12.201  -8.656  10.842  1.00  0.00     0.159 HD
HETATM    9  C10 UNL     1      10.504  -9.717  11.420  1.00  0.00     0.046 C 
HETATM   10  C11 UNL     1       9.773  -8.451  11.847  1.00  0.00     0.032 C 
HETATM   11  C12 UNL     1       8.449  -8.490  11.136  1.00  0.00     0.002 C 
HETATM   12  C13 UNL     1       8.510  -9.520  10.061  1.00  0.00     0.002 C 
HETATM   13  C14 UNL     1       9.954  -9.980  10.030  1.00  0.00     0.032 C 
ENDROOT
BRANCH   4  14
HETATM   14  C4  UNL     1      10.532 -13.225  12.706  1.00  0.00     0.008 A 
HETATM   15  C5  UNL     1      10.801 -13.796  13.924  1.00  0.00     0.037 A 
HETATM   16  C6  UNL     1      10.115 -15.036  13.943  1.00  0.00     0.145 A 
HETATM   17  O1  UNL     1       9.501 -15.171  12.808  1.00  0.00    -0.300 OA
HETATM   18  C7  UNL     1       9.703 -14.149  12.048  1.00  0.00     0.189 A 
BRANCH  18  19
HETATM   19  O2  UNL     1       9.213 -13.920  10.774  1.00  0.00    -0.340 OA
ATOM     20  H2  UNL     1       9.302 -13.078  10.343  1.00  0.00     0.220 HD
ENDBRANCH  18  19
ENDBRANCH   4  14
TORSDOF 2
ENDMDL
MODEL 3
REMARK VINA RESULT: -7.394193300      2.274      3.115
REMARK  2 active torsions:
REMARK  status: ('A' for Active; 'I' for Inactive)
REMARK    1  A    between atoms: C3_4  and  C4_5 
REMARK    2  A    between atoms: C7_9  and  O2_10 
ROOT
HETATM    1  N1  UNL     1       8.916  -9.339   9.896  1.00  0.00    -0.197 NA
HETATM    2  C1  UNL     1       9.396 -10.311  10.331  1.00  0.00     0.067 C 
HETATM    3  C2  UNL     1      10.023 -11.490  10.831  1.00  0.00     0.129 C 
HETATM    4  C3  UNL     1       9.298 -12.230  11.913  1.00  0.00     0.048 C 
HETATM    5  C8  UNL     1       9.245 -11.199  13.034  1.00  0.00     0.055 C 
HETATM    6  C9  UNL     1      10.685 -11.101  13.539  1.00  0.00     0.057 C 
HETATM    7  N2  UNL     1      11.700 -11.081  12.594  1.00  0.00    -0.392 N 
ATOM      8  H2  UNL     1      12.651 -10.870  12.897  1.00  0.00     0.159 HD
HETATM    9  C10 UNL     1      11.464 -11.338  11.250  1.00  0.00     0.046 C 
HETATM   10  C11 UNL     1      12.110 -10.259  10.391  1.00  0.00     0.032 C 
HETATM   11  C12 UNL     1      12.548 -10.955   9.133  1.00  0.00     0.002 C 
HETATM   12  C13 UNL     1      12.507 -12.427   9.357  1.00  0.00     0.002 C 
HETATM   13  C14 UNL     1      12.197 -12.598  10.831  1.00  0.00     0.032 C 
ENDROOT
BRANCH   4  14
HETATM   14  C4  UNL     1       8.000 -12.723  11.458  1.00  0.00     0.008 A 
HETATM   15  C5  UNL     1       6.753 -12.253  11.783  1.00  0.00     0.037 A 
HETATM   16  C6  UNL     1       5.823 -13.109  11.142  1.00  0.00     0.145 A 
HETATM   17  O1  UNL     1       6.493 -14.016  10.499  1.00  0.00    -0.300 OA
HETATM   18  C7  UNL     1       7.763 -13.843  10.642  1.00  0.00     0.189 A 
BRANCH  18  19
HETATM   19  O2  UNL     1       8.795 -14.594  10.106  1.00  0.00    -0.340 OA
ATOM     20  H2  UNL     1       8.853 -14.779   9.176  1.00  0.00     0.220 HD
ENDBRANCH  18  19
ENDBRANCH   4  14
TORSDOF 2
ENDMDL
MODEL 4
REMARK VINA RESULT: -7.292611722      2.394      2.923
REMARK  2 active torsions:
REMARK  status: ('A' for Active; 'I' for Inactive)
REMARK    1  A    between atoms: C3_4  and  C4_5 
REMARK    2  A    between atoms: C7_9  and  O2_10 
ROOT
HETATM    1  N1  UNL     1       9.651 -10.547  15.122  1.00  0.00    -0.197 NA
HETATM    2  C1  UNL     1       9.082 -10.807  14.136  1.00  0.00     0.067 C 
HETATM    3  C2  UNL     1       8.399 -11.078  12.915  1.00  0.00     0.129 C 
HETATM    4  C3  UNL     1       7.794 -12.441  12.769  1.00  0.00     0.048 C 
HETATM    5  C8  UNL     1       9.015 -13.349  12.850  1.00  0.00     0.055 C 
HETATM    6  C9  UNL     1       9.758 -13.119  11.533  1.00  0.00     0.057 C 
HETATM    7  N2  UNL     1       9.864 -11.816  11.072  1.00  0.00    -0.392 N 
ATOM      8  H2  UNL     1      10.475 -11.623  10.278  1.00  0.00     0.159 HD
HETATM    9  C10 UNL     1       9.165 -10.766  11.654  1.00  0.00     0.046 C 
HETATM   10  C11 UNL     1      10.106  -9.602  11.930  1.00  0.00     0.032 C 
HETATM   11  C12 UNL     1       9.281  -8.361  11.736  1.00  0.00     0.002 C 
HETATM   12  C13 UNL     1       8.020  -8.727  11.031  1.00  0.00     0.002 C 
HETATM   13  C14 UNL     1       8.183 -10.185  10.654  1.00  0.00     0.032 C 
ENDROOT
BRANCH   4  14
HETATM   14  C4  UNL     1       6.765 -12.688  13.776  1.00  0.00     0.008 A 
HETATM   15  C5  UNL     1       6.882 -13.379  14.956  1.00  0.00     0.037 A 
HETATM   16  C6  UNL     1       5.590 -13.396  15.539  1.00  0.00     0.145 A 
HETATM   17  O1  UNL     1       4.784 -12.765  14.741  1.00  0.00    -0.300 OA
HETATM   18  C7  UNL     1       5.408 -12.327  13.702  1.00  0.00     0.189 A 
BRANCH  18  19
HETATM   19  O2  UNL     1       4.898 -11.605  12.637  1.00  0.00    -0.340 OA
ATOM     20  H2  UNL     1       4.193 -11.938  12.094  1.00  0.00     0.220 HD
ENDBRANCH  18  19
ENDBRANCH   4  14
TORSDOF 2
ENDMDL
MODEL 5
REMARK VINA RESULT: -7.260796508      2.988      5.092
REMARK  2 active torsions:
REMARK  status: ('A' for Active; 'I' for Inactive)
REMARK    1  A    between atoms: C3_4  and  C4_5 
REMARK    2  A    between atoms: C7_9  and  O2_10 
ROOT
HETATM    1  N1  UNL     1       9.130 -13.990  10.724  1.00  0.00    -0.197 NA
HETATM    2  C1  UNL     1       9.173 -13.210  11.592  1.00  0.00     0.067 C 
HETATM    3  C2  UNL     1       9.197 -12.290  12.680  1.00  0.00     0.129 C 
HETATM    4  C3  UNL     1       9.982 -11.030  12.479  1.00  0.00     0.048 C 
HETATM    5  C8  UNL     1      11.396 -11.558  12.263  1.00  0.00     0.055 C 
HETATM    6  C9  UNL     1      11.835 -12.065  13.636  1.00  0.00     0.057 C 
HETATM    7  N2  UNL     1      10.912 -12.777  14.387  1.00  0.00    -0.392 N 
ATOM      8  H2  UNL     1      11.225 -13.247  15.236  1.00  0.00     0.159 HD
HETATM    9  C10 UNL     1       9.575 -12.870  14.020  1.00  0.00     0.046 C 
HETATM   10  C11 UNL     1       9.121 -14.323  14.067  1.00  0.00     0.032 C 
HETATM   11  C12 UNL     1       7.680 -14.281  14.492  1.00  0.00     0.002 C 
HETATM   12  C13 UNL     1       7.374 -12.923  15.024  1.00  0.00     0.002 C 
HETATM   13  C14 UNL     1       8.706 -12.202  15.069  1.00  0.00     0.032 C 
ENDROOT
BRANCH   4  14
HETATM   14  C4  UNL     1       9.444 -10.224  11.386  1.00  0.00     0.008 A 
HETATM   15  C5  UNL     1       9.937 -10.082  10.114  1.00  0.00     0.037 A 
HETATM   16  C6  UNL     1       9.099  -9.142   9.463  1.00  0.00     0.145 A 
HETATM   17  O1  UNL     1       8.192  -8.762  10.309  1.00  0.00    -0.300 OA
HETATM   18  C7  UNL     1       8.337  -9.358  11.443  1.00  0.00     0.189 A 
BRANCH  18  19
HETATM   19  O2  UNL     1       7.566  -9.226  12.585  1.00  0.00    -0.340 OA
ATOM     20  H2  UNL     1       7.840  -9.581  13.423  1.00  0.00     0.220 HD
ENDBRANCH  18  19
ENDBRANCH   4  14
TORSDOF 2
ENDMDL
