MODEL 1
REMARK VINA RESULT: -7.230364921      0.000      0.000
REMARK  5 active torsions:
REMARK  status: ('A' for Active; 'I' for Inactive)
REMARK    1  A    between atoms: O1_1  and  N1_3 
REMARK    2  A    between atoms: C1_5  and  N2_6 
REMARK    3  A    between atoms: C1_5  and  O2_13 
REMARK    4  A    between atoms: N2_6  and  C2_8 
REMARK    5  A    between atoms: O2_13  and  C6_14 
ROOT
HETATM    1  N1  UNL     1       5.126 -10.201  12.817  1.00  0.00    -0.232 N 
ATOM      2  H1  UNL     1       4.903  -9.352  12.299  1.00  0.00     0.198 HD
HETATM    3  C1  UNL     1       6.262 -10.281  13.417  1.00  0.00     0.245 C 
ENDROOT
BRANCH   3   4
HETATM    4  N2  UNL     1       7.212  -9.203  13.370  1.00  0.00    -0.315 N 
ATOM      5  H2  UNL     1       7.193  -8.458  14.066  1.00  0.00     0.170 HD
BRANCH   4   6
HETATM    6  C2  UNL     1       8.194  -9.202  12.310  1.00  0.00     0.076 A 
HETATM    7  C3  UNL     1       7.962  -9.201  10.959  1.00  0.00     0.038 A 
HETATM    8  C4  UNL     1       9.040  -9.201  10.153  1.00  0.00     0.010 A 
HETATM    9  C5  UNL     1      10.270  -9.201  10.746  1.00  0.00     0.052 A 
HETATM   10  S1  UNL     1       9.897  -9.202  12.406  1.00  0.00    -0.084 SA
ENDBRANCH   4   6
ENDBRANCH   3   4
BRANCH   3  11
HETATM   11  O2  UNL     1       6.572 -11.407  14.110  1.00  0.00    -0.308 OA
BRANCH  11  12
HETATM   12  C6  UNL     1       7.799 -12.120  13.843  1.00  0.00     0.079 A 
HETATM   13  C7  UNL     1       8.720 -12.201  14.935  1.00  0.00     0.047 A 
HETATM   14  C8  UNL     1       7.971 -13.435  14.693  1.00  0.00     0.024 A 
HETATM   15  C9  UNL     1       8.555 -14.453  13.692  1.00  0.00     0.012 C 
HETATM   16  C10 UNL     1       9.101 -13.553  12.670  1.00  0.00    -0.007 A 
HETATM   17  C11 UNL     1       8.616 -13.008  11.459  1.00  0.00     0.013 A 
HETATM   18  C12 UNL     1       7.740 -12.766  12.533  1.00  0.00     0.026 A 
ENDBRANCH  11  12
ENDBRANCH   3  11
BRANCH   1  19
HETATM   19  O1  UNL     1       4.212 -11.211  12.851  1.00  0.00    -0.287 OA
ATOM     20  H1  UNL     1       3.278 -11.048  12.906  1.00  0.00     0.244 HD
ENDBRANCH   1  19
TORSDOF 5
ENDMDL
MODEL 2
REMARK VINA RESULT: -6.773713164      3.410      5.313
REMARK  5 active torsions:
REMARK  status: ('A' for Active; 'I' for Inactive)
REMARK    1  A    between atoms: O1_1  and  N1_3 
REMARK    2  A    between atoms: C1_5  and  N2_6 
REMARK    3  A    between atoms: C1_5  and  O2_13 
REMARK    4  A    between atoms: N2_6  and  C2_8 
REMARK    5  A    between atoms: O2_13  and  C6_14 
ROOT
HETATM    1  N1  UNL     1       4.545 -11.164  12.893  1.00  0.00    -0.232 N 
ATOM      2  H1  UNL     1       3.694 -11.562  12.495  1.00  0.00     0.198 HD
HETATM    3  C1  UNL     1       5.254 -11.885  13.689  1.00  0.00     0.245 C 
ENDROOT
BRANCH   3   4
HETATM    4  N2  UNL     1       4.871 -13.230  14.023  1.00  0.00    -0.315 N 
ATOM      5  H2  UNL     1       5.021 -13.995  13.366  1.00  0.00     0.170 HD
BRANCH   4   6
HETATM    6  C2  UNL     1       4.270 -13.469  15.315  1.00  0.00     0.076 A 
HETATM    7  C3  UNL     1       4.900 -13.514  16.531  1.00  0.00     0.038 A 
HETATM    8  C4  UNL     1       4.131 -13.754  17.610  1.00  0.00     0.010 A 
HETATM    9  C5  UNL     1       2.794 -13.932  17.403  1.00  0.00     0.052 A 
HETATM   10  S1  UNL     1       2.639 -13.762  15.717  1.00  0.00    -0.084 SA
ENDBRANCH   4   6
ENDBRANCH   3   4
BRANCH   3  11
HETATM   11  O2  UNL     1       6.388 -11.366  14.225  1.00  0.00    -0.308 OA
BRANCH  11  12
HETATM   12  C6  UNL     1       7.686 -11.817  13.778  1.00  0.00     0.079 A 
HETATM   13  C7  UNL     1       8.310 -11.011  12.773  1.00  0.00     0.047 A 
HETATM   14  C8  UNL     1       8.859 -10.822  14.117  1.00  0.00     0.024 A 
HETATM   15  C9  UNL     1      10.012 -11.743  14.565  1.00  0.00     0.012 C 
HETATM   16  C10 UNL     1       9.596 -13.016  13.968  1.00  0.00    -0.007 A 
HETATM   17  C11 UNL     1       8.854 -14.133  14.416  1.00  0.00     0.013 A 
HETATM   18  C12 UNL     1       8.155 -12.927  14.604  1.00  0.00     0.026 A 
ENDBRANCH  11  12
ENDBRANCH   3  11
BRANCH   1  19
HETATM   19  O1  UNL     1       4.891  -9.888  12.563  1.00  0.00    -0.287 OA
ATOM     20  H1  UNL     1       5.796  -9.621  12.448  1.00  0.00     0.244 HD
ENDBRANCH   1  19
TORSDOF 5
ENDMDL
MODEL 3
REMARK VINA RESULT: -6.720167965      2.439      4.567
REMARK  5 active torsions:
REMARK  status: ('A' for Active; 'I' for Inactive)
REMARK    1  A    between atoms: O1_1  and  N1_3 
REMARK    2  A    between atoms: C1_5  and  N2_6 
REMARK    3  A    between atoms: C1_5  and  O2_13 
REMARK    4  A    between atoms: N2_6  and  C2_8 
REMARK    5  A    between atoms: O2_13  and  C6_14 
ROOT
HETATM    1  N1  UNL     1       4.771 -12.131  13.940  1.00  0.00    -0.232 N 
ATOM      2  H1  UNL     1       4.374 -12.984  14.334  1.00  0.00     0.198 HD
HETATM    3  C1  UNL     1       5.956 -11.777  14.295  1.00  0.00     0.245 C 
ENDROOT
BRANCH   3   4
HETATM    4  N2  UNL     1       6.723 -12.557  15.229  1.00  0.00    -0.315 N 
ATOM      5  H2  UNL     1       6.793 -12.281  16.208  1.00  0.00     0.170 HD
BRANCH   4   6
HETATM    6  C2  UNL     1       7.392 -13.742  14.743  1.00  0.00     0.076 A 
HETATM    7  C3  UNL     1       8.711 -13.870  14.394  1.00  0.00     0.038 A 
HETATM    8  C4  UNL     1       9.115 -15.080  13.964  1.00  0.00     0.010 A 
HETATM    9  C5  UNL     1       8.182 -16.074  13.913  1.00  0.00     0.052 A 
HETATM   10  S1  UNL     1       6.767 -15.304  14.461  1.00  0.00    -0.084 SA
ENDBRANCH   4   6
ENDBRANCH   3   4
BRANCH   3  11
HETATM   11  O2  UNL     1       6.495 -10.643  13.779  1.00  0.00    -0.308 OA
BRANCH  11  12
HETATM   12  C6  UNL     1       7.580 -10.712  12.828  1.00  0.00     0.079 A 
HETATM   13  C7  UNL     1       7.211 -11.058  11.489  1.00  0.00     0.047 A 
HETATM   14  C8  UNL     1       7.494  -9.634  11.682  1.00  0.00     0.024 A 
HETATM   15  C9  UNL     1       8.949  -9.155  11.510  1.00  0.00     0.012 C 
HETATM   16  C10 UNL     1       9.682 -10.276  12.109  1.00  0.00    -0.007 A 
HETATM   17  C11 UNL     1      10.186 -10.562  13.399  1.00  0.00     0.013 A 
HETATM   18  C12 UNL     1       8.820 -10.227  13.430  1.00  0.00     0.026 A 
ENDBRANCH  11  12
ENDBRANCH   3  11
BRANCH   1  19
HETATM   19  O1  UNL     1       4.028 -11.407  13.056  1.00  0.00    -0.287 OA
ATOM     20  H1  UNL     1       3.826 -10.489  13.196  1.00  0.00     0.244 HD
ENDBRANCH   1  19
TORSDOF 5
ENDMDL
MODEL 4
REMARK VINA RESULT: -6.621274262      0.803      1.571
REMARK  5 active torsions:
REMARK  status: ('A' for Active; 'I' for Inactive)
REMARK    1  A    between atoms: O1_1  and  N1_3 
REMARK    2  A    between atoms: C1_5  and  N2_6 
REMARK    3  A    between atoms: C1_5  and  O2_13 
REMARK    4  A    between atoms: N2_6  and  C2_8 
REMARK    5  A    between atoms: O2_13  and  C6_14 
ROOT
HETATM    1  N1  UNL     1       5.173 -10.368  12.732  1.00  0.00    -0.232 N 
ATOM      2  H1  UNL     1       4.976  -9.604  12.086  1.00  0.00     0.198 HD
HETATM    3  C1  UNL     1       6.226 -10.303  13.468  1.00  0.00     0.245 C 
ENDROOT
BRANCH   3   4
HETATM    4  N2  UNL     1       7.121  -9.180  13.397  1.00  0.00    -0.315 N 
ATOM      5  H2  UNL     1       7.041  -8.404  14.053  1.00  0.00     0.170 HD
BRANCH   4   6
HETATM    6  C2  UNL     1       8.138  -9.180  12.370  1.00  0.00     0.076 A 
HETATM    7  C3  UNL     1       7.955  -9.071  11.016  1.00  0.00     0.038 A 
HETATM    8  C4  UNL     1       9.058  -9.095  10.245  1.00  0.00     0.010 A 
HETATM    9  C5  UNL     1      10.263  -9.225  10.873  1.00  0.00     0.052 A 
HETATM   10  S1  UNL     1       9.832  -9.311  12.517  1.00  0.00    -0.084 SA
ENDBRANCH   4   6
ENDBRANCH   3   4
BRANCH   3  11
HETATM   11  O2  UNL     1       6.500 -11.314  14.332  1.00  0.00    -0.308 OA
BRANCH  11  12
HETATM   12  C6  UNL     1       7.012 -12.575  13.848  1.00  0.00     0.079 A 
HETATM   13  C7  UNL     1       7.840 -12.502  12.683  1.00  0.00     0.047 A 
HETATM   14  C8  UNL     1       8.580 -12.701  13.931  1.00  0.00     0.024 A 
HETATM   15  C9  UNL     1       8.814 -14.147  14.413  1.00  0.00     0.012 C 
HETATM   16  C10 UNL     1       7.534 -14.768  14.053  1.00  0.00    -0.007 A 
HETATM   17  C11 UNL     1       6.314 -14.999  14.727  1.00  0.00     0.013 A 
HETATM   18  C12 UNL     1       6.702 -13.648  14.789  1.00  0.00     0.026 A 
ENDBRANCH  11  12
ENDBRANCH   3  11
BRANCH   1  19
HETATM   19  O1  UNL     1       4.311 -11.423  12.786  1.00  0.00    -0.287 OA
ATOM     20  H1  UNL     1       3.541 -11.477  12.232  1.00  0.00     0.244 HD
ENDBRANCH   1  19
TORSDOF 5
ENDMDL
MODEL 5
REMARK VINA RESULT: -6.571512832      3.509      5.586
REMARK  5 active torsions:
REMARK  status: ('A' for Active; 'I' for Inactive)
REMARK    1  A    between atoms: O1_1  and  N1_3 
REMARK    2  A    between atoms: C1_5  and  N2_6 
REMARK    3  A    between atoms: C1_5  and  O2_13 
REMARK    4  A    between atoms: N2_6  and  C2_8 
REMARK    5  A    between atoms: O2_13  and  C6_14 
ROOT
HETATM    1  N1  UNL     1      13.334 -10.082  12.036  1.00  0.00    -0.232 N 
ATOM      2  H1  UNL     1      14.043  -9.876  12.739  1.00  0.00     0.198 HD
HETATM    3  C1  UNL     1      12.282 -10.734  12.388  1.00  0.00     0.245 C 
ENDROOT
BRANCH   3   4
HETATM    4  N2  UNL     1      12.090 -11.170  13.744  1.00  0.00    -0.315 N 
ATOM      5  H2  UNL     1      12.803 -11.002  14.454  1.00  0.00     0.170 HD
BRANCH   4   6
HETATM    6  C2  UNL     1      10.860 -11.852  14.076  1.00  0.00     0.076 A 
HETATM    7  C3  UNL     1       9.764 -11.330  14.711  1.00  0.00     0.038 A 
HETATM    8  C4  UNL     1       8.723 -12.159  14.916  1.00  0.00     0.010 A 
HETATM    9  C5  UNL     1       8.846 -13.445  14.477  1.00  0.00     0.052 A 
HETATM   10  S1  UNL     1      10.403 -13.470  13.791  1.00  0.00    -0.084 SA
ENDBRANCH   4   6
ENDBRANCH   3   4
BRANCH   3  11
HETATM   11  O2  UNL     1      11.332 -11.016  11.460  1.00  0.00    -0.308 OA
BRANCH  11  12
HETATM   12  C6  UNL     1      10.092 -10.275  11.430  1.00  0.00     0.079 A 
HETATM   13  C7  UNL     1      10.210  -8.861  11.615  1.00  0.00     0.047 A 
HETATM   14  C8  UNL     1       9.982  -9.264  10.226  1.00  0.00     0.024 A 
HETATM   15  C9  UNL     1       8.526  -9.414   9.744  1.00  0.00     0.012 C 
HETATM   16  C10 UNL     1       7.900 -10.003  10.933  1.00  0.00    -0.007 A 
HETATM   17  C11 UNL     1       7.634 -11.320  11.371  1.00  0.00     0.013 A 
HETATM   18  C12 UNL     1       8.987 -11.142  11.028  1.00  0.00     0.026 A 
ENDBRANCH  11  12
ENDBRANCH   3  11
BRANCH   1  19
HETATM   19  O1  UNL     1      13.535  -9.659  10.755  1.00  0.00    -0.287 OA
ATOM     20  H1  UNL     1      13.150 -10.103  10.008  1.00  0.00     0.244 HD
ENDBRANCH   1  19
TORSDOF 5
ENDMDL
