MODEL 1
REMARK VINA RESULT: -7.377694175      0.000      0.000
REMARK  2 active torsions:
REMARK  status: ('A' for Active; 'I' for Inactive)
REMARK    1  A    between atoms: C13_15  and  O3_16 
REMARK    2  A    between atoms: O3_16  and  O4_17 
ROOT
HETATM    1  C1  UNL     1       5.701 -10.448  12.553  1.00  0.00     0.017 C 
HETATM    2  C2  UNL     1       7.063 -10.893  13.035  1.00  0.00     0.046 C 
HETATM    3  C3  UNL     1       8.098 -10.532  11.997  1.00  0.00    -0.071 C 
HETATM    4  C4  UNL     1       9.133 -11.252  11.587  1.00  0.00    -0.074 C 
HETATM    5  C5  UNL     1      10.111 -10.822  10.554  1.00  0.00     0.034 C 
HETATM    6  C6  UNL     1       9.972  -9.352  10.315  1.00  0.00     0.005 C 
HETATM    7  C7  UNL     1       8.486  -9.103  10.072  1.00  0.00     0.005 C 
HETATM    8  C8  UNL     1       7.826  -9.166  11.429  1.00  0.00     0.035 C 
HETATM    9  C9  UNL     1       9.471 -12.619  12.108  1.00  0.00     0.072 C 
HETATM   10  C10 UNL     1       9.470 -12.630  13.588  1.00  0.00     0.204 C 
HETATM   11  O1  UNL     1       9.511 -11.442  14.276  1.00  0.00    -0.231 OA
HETATM   12  O2  UNL     1       8.567 -11.905  15.104  1.00  0.00    -0.224 OA
HETATM   13  C11 UNL     1       8.112 -12.844  14.198  1.00  0.00     0.151 C 
HETATM   14  C12 UNL     1       7.943 -14.249  14.662  1.00  0.00     0.055 C 
HETATM   15  C13 UNL     1       6.994 -12.369  13.298  1.00  0.00     0.207 C 
ENDROOT
BRANCH  15  16
HETATM   16  O3  UNL     1       5.812 -12.575  14.044  1.00  0.00    -0.234 OA
BRANCH  16  17
HETATM   17  O4  UNL     1       5.926 -11.866  15.135  1.00  0.00    -0.250 OA
ATOM     18  H4  UNL     1       5.192 -12.099  15.691  1.00  0.00     0.253 HD
ENDBRANCH  16  17
ENDBRANCH  15  16
TORSDOF 2
ENDMDL
MODEL 2
REMARK VINA RESULT: -7.277617663      1.720      4.648
REMARK  2 active torsions:
REMARK  status: ('A' for Active; 'I' for Inactive)
REMARK    1  A    between atoms: C13_15  and  O3_16 
REMARK    2  A    between atoms: O3_16  and  O4_17 
ROOT
HETATM    1  C1  UNL     1       9.759 -12.371  14.712  1.00  0.00     0.017 C 
HETATM    2  C2  UNL     1       8.470 -11.777  14.192  1.00  0.00     0.046 C 
HETATM    3  C3  UNL     1       7.578 -12.889  13.696  1.00  0.00    -0.071 C 
HETATM    4  C4  UNL     1       6.820 -12.908  12.608  1.00  0.00    -0.074 C 
HETATM    5  C5  UNL     1       5.966 -14.050  12.188  1.00  0.00     0.034 C 
HETATM    6  C6  UNL     1       5.810 -15.005  13.329  1.00  0.00     0.005 C 
HETATM    7  C7  UNL     1       7.221 -15.288  13.838  1.00  0.00     0.005 C 
HETATM    8  C8  UNL     1       7.630 -14.068  14.629  1.00  0.00     0.035 C 
HETATM    9  C9  UNL     1       6.713 -11.772  11.633  1.00  0.00     0.072 C 
HETATM   10  C10 UNL     1       6.458 -10.498  12.339  1.00  0.00     0.204 C 
HETATM   11  O1  UNL     1       6.031 -10.518  13.645  1.00  0.00    -0.231 OA
HETATM   12  O2  UNL     1       6.895  -9.537  13.929  1.00  0.00    -0.224 OA
HETATM   13  C11 UNL     1       7.702  -9.816  12.841  1.00  0.00     0.151 C 
HETATM   14  C12 UNL     1       8.099  -8.691  11.951  1.00  0.00     0.055 C 
HETATM   15  C13 UNL     1       8.823 -10.792  13.117  1.00  0.00     0.207 C 
ENDROOT
BRANCH  15  16
HETATM   16  O3  UNL     1       9.871 -10.004  13.641  1.00  0.00    -0.234 OA
BRANCH  16  17
HETATM   17  O4  UNL     1       9.443  -9.508  14.770  1.00  0.00    -0.250 OA
ATOM     18  H4  UNL     1      10.190  -9.102  15.193  1.00  0.00     0.253 HD
ENDBRANCH  16  17
ENDBRANCH  15  16
TORSDOF 2
ENDMDL
MODEL 3
REMARK VINA RESULT: -7.263208274      3.048      4.971
REMARK  2 active torsions:
REMARK  status: ('A' for Active; 'I' for Inactive)
REMARK    1  A    between atoms: C13_15  and  O3_16 
REMARK    2  A    between atoms: O3_16  and  O4_17 
ROOT
HETATM    1  C1  UNL     1       9.350 -13.813  10.914  1.00  0.00     0.017 C 
HETATM    2  C2  UNL     1      10.054 -12.488  11.093  1.00  0.00     0.046 C 
HETATM    3  C3  UNL     1       9.025 -11.401  11.283  1.00  0.00    -0.071 C 
HETATM    4  C4  UNL     1       9.023 -10.175  10.776  1.00  0.00    -0.074 C 
HETATM    5  C5  UNL     1       7.965  -9.160  11.013  1.00  0.00     0.034 C 
HETATM    6  C6  UNL     1       7.111  -9.585  12.166  1.00  0.00     0.005 C 
HETATM    7  C7  UNL     1       6.699 -11.026  11.875  1.00  0.00     0.005 C 
HETATM    8  C8  UNL     1       7.911 -11.875  12.177  1.00  0.00     0.035 C 
HETATM    9  C9  UNL     1      10.098  -9.630   9.881  1.00  0.00     0.072 C 
HETATM   10  C10 UNL     1      11.437  -9.879  10.459  1.00  0.00     0.204 C 
HETATM   11  O1  UNL     1      11.552 -10.226  11.783  1.00  0.00    -0.231 OA
HETATM   12  O2  UNL     1      12.442 -11.167  11.446  1.00  0.00    -0.224 OA
HETATM   13  C11 UNL     1      11.999 -11.237  10.138  1.00  0.00     0.151 C 
HETATM   14  C12 UNL     1      13.010 -11.160   9.047  1.00  0.00     0.055 C 
HETATM   15  C13 UNL     1      10.919 -12.265   9.887  1.00  0.00     0.207 C 
ENDROOT
BRANCH  15  16
HETATM   16  O3  UNL     1      11.612 -13.478   9.676  1.00  0.00    -0.234 OA
BRANCH  16  17
HETATM   17  O4  UNL     1      11.382 -13.834   8.442  1.00  0.00    -0.250 OA
ATOM     18  H4  UNL     1      12.131 -13.550   7.930  1.00  0.00     0.253 HD
ENDBRANCH  16  17
ENDBRANCH  15  16
TORSDOF 2
ENDMDL
MODEL 4
REMARK VINA RESULT: -7.124210122      1.795      4.903
REMARK  2 active torsions:
REMARK  status: ('A' for Active; 'I' for Inactive)
REMARK    1  A    between atoms: C13_15  and  O3_16 
REMARK    2  A    between atoms: O3_16  and  O4_17 
ROOT
HETATM    1  C1  UNL     1      10.324 -13.266  12.826  1.00  0.00     0.017 C 
HETATM    2  C2  UNL     1       9.577 -12.030  13.273  1.00  0.00     0.046 C 
HETATM    3  C3  UNL     1       8.233 -12.438  13.828  1.00  0.00    -0.071 C 
HETATM    4  C4  UNL     1       7.061 -11.843  13.654  1.00  0.00    -0.074 C 
HETATM    5  C5  UNL     1       5.777 -12.311  14.237  1.00  0.00     0.034 C 
HETATM    6  C6  UNL     1       6.052 -13.312  15.315  1.00  0.00     0.005 C 
HETATM    7  C7  UNL     1       7.001 -14.339  14.704  1.00  0.00     0.005 C 
HETATM    8  C8  UNL     1       8.360 -13.679  14.668  1.00  0.00     0.035 C 
HETATM    9  C9  UNL     1       6.856 -10.602  12.834  1.00  0.00     0.072 C 
HETATM   10  C10 UNL     1       7.840  -9.561  13.205  1.00  0.00     0.204 C 
HETATM   11  O1  UNL     1       8.541  -9.678  14.381  1.00  0.00    -0.231 OA
HETATM   12  O2  UNL     1       9.657  -9.320  13.735  1.00  0.00    -0.224 OA
HETATM   13  C11 UNL     1       9.162  -9.688  12.498  1.00  0.00     0.151 C 
HETATM   14  C12 UNL     1       9.270  -8.715  11.377  1.00  0.00     0.055 C 
HETATM   15  C13 UNL     1       9.465 -11.113  12.092  1.00  0.00     0.207 C 
ENDROOT
BRANCH  15  16
HETATM   16  O3  UNL     1      10.753 -11.061  11.516  1.00  0.00    -0.234 OA
BRANCH  16  17
HETATM   17  O4  UNL     1      10.619 -11.387  10.259  1.00  0.00    -0.250 OA
ATOM     18  H4  UNL     1       9.696 -11.299  10.050  1.00  0.00     0.253 HD
ENDBRANCH  16  17
ENDBRANCH  15  16
TORSDOF 2
ENDMDL
MODEL 5
REMARK VINA RESULT: -7.100219901      2.696      4.690
REMARK  2 active torsions:
REMARK  status: ('A' for Active; 'I' for Inactive)
REMARK    1  A    between atoms: C13_15  and  O3_16 
REMARK    2  A    between atoms: O3_16  and  O4_17 
ROOT
HETATM    1  C1  UNL     1       9.752  -9.483   9.948  1.00  0.00     0.017 C 
HETATM    2  C2  UNL     1       9.895 -10.885  10.494  1.00  0.00     0.046 C 
HETATM    3  C3  UNL     1       8.903 -11.084  11.615  1.00  0.00    -0.071 C 
HETATM    4  C4  UNL     1       9.086 -11.708  12.771  1.00  0.00    -0.074 C 
HETATM    5  C5  UNL     1       8.052 -11.859  13.827  1.00  0.00     0.034 C 
HETATM    6  C6  UNL     1       6.706 -11.533  13.261  1.00  0.00     0.005 C 
HETATM    7  C7  UNL     1       6.858 -10.182  12.566  1.00  0.00     0.005 C 
HETATM    8  C8  UNL     1       7.579 -10.460  11.268  1.00  0.00     0.035 C 
HETATM    9  C9  UNL     1      10.375 -12.356  13.186  1.00  0.00     0.072 C 
HETATM   10  C10 UNL     1      10.890 -13.233  12.112  1.00  0.00     0.204 C 
HETATM   11  O1  UNL     1      10.056 -13.616  11.089  1.00  0.00    -0.231 OA
HETATM   12  O2  UNL     1      11.039 -13.371  10.214  1.00  0.00    -0.224 OA
HETATM   13  C11 UNL     1      11.704 -12.514  11.071  1.00  0.00     0.151 C 
HETATM   14  C12 UNL     1      13.162 -12.724  11.286  1.00  0.00     0.055 C 
HETATM   15  C13 UNL     1      11.317 -11.059  10.939  1.00  0.00     0.207 C 
ENDROOT
BRANCH  15  16
HETATM   16  O3  UNL     1      12.117 -10.563   9.886  1.00  0.00    -0.234 OA
BRANCH  16  17
HETATM   17  O4  UNL     1      12.896  -9.651  10.401  1.00  0.00    -0.250 OA
ATOM     18  H4  UNL     1      13.515  -9.404   9.724  1.00  0.00     0.253 HD
ENDBRANCH  16  17
ENDBRANCH  15  16
TORSDOF 2
ENDMDL
