MODEL 1
REMARK VINA RESULT: -4.964140028      0.000      0.000
REMARK  3 active torsions:
REMARK  status: ('A' for Active; 'I' for Inactive)
REMARK    1  A    between atoms: N3_7  and  N4_9 
REMARK       I    between atoms: N4_9  and  C4_11 
REMARK    2  A    between atoms: C5_16  and  N7_17 
REMARK    3  A    between atoms: N7_17  and  N8_19 
ROOT
HETATM    1  C1  UNL     1      14.501   9.367  53.391  1.00  0.00     0.200 C 
HETATM    2  N1  UNL     1      15.627   8.785  52.692  1.00  0.00    -0.237 N 
HETATM    3  N2  UNL     1      16.640   8.326  53.410  1.00  0.00    -0.293 N 
ATOM      4  H2  UNL     1      16.589   8.399  54.427  1.00  0.00     0.187 HD
HETATM    5  C2  UNL     1      17.733   7.766  52.860  1.00  0.00     0.143 A 
HETATM    6  C3  UNL     1      17.733   7.699  51.461  1.00  0.00     0.111 A 
HETATM    7  N3  UNL     1      18.754   7.174  50.896  1.00  0.00    -0.293 N 
ATOM      8  H3  UNL     1      18.768   7.118  49.878  1.00  0.00     0.187 HD
HETATM    9  C5  UNL     1      16.686   8.173  50.718  1.00  0.00     0.165 A 
HETATM   10  N9  UNL     1      15.643   8.712  51.355  1.00  0.00    -0.266 N 
ATOM     11  H9  UNL     1      14.853   9.071  50.819  1.00  0.00     0.190 HD
ENDROOT
BRANCH   7  12
HETATM   12  N4  UNL     1      19.840   6.678  51.598  1.00  0.00    -0.273 N 
HETATM   13  C4  UNL     1      21.106   7.311  51.678  1.00  0.00     0.200 C 
HETATM   14  N5  UNL     1      22.074   6.781  51.019  1.00  0.00    -0.372 N 
HETATM   15  N6  UNL     1      21.341   8.484  52.443  1.00  0.00    -0.062 NA
ATOM     16  H52 UNL     1      21.904   5.939  50.469  1.00  0.00     0.158 HD
ATOM     17  H51 UNL     1      22.984   7.236  51.076  1.00  0.00     0.158 HD
ATOM     18  H4  UNL     1      19.720   5.794  52.093  1.00  0.00     0.189 HD
ENDBRANCH   7  12
BRANCH   9  19
HETATM   19  N7  UNL     1      16.683   8.114  49.462  1.00  0.00    -0.289 N 
ATOM     20  H7  UNL     1      17.344   8.728  48.987  1.00  0.00     0.188 HD
BRANCH  19  21
HETATM   21  N8  UNL     1      15.905   7.328  48.648  1.00  0.00    -0.344 N 
ATOM     22  H82 UNL     1      15.671   6.414  49.036  1.00  0.00     0.176 HD
ATOM     23  H81 UNL     1      15.540   7.544  47.720  1.00  0.00     0.176 HD
ENDBRANCH  19  21
ENDBRANCH   9  19
TORSDOF 3
ENDMDL
MODEL 2
REMARK VINA RESULT: -4.503916624      1.488      5.021
REMARK  3 active torsions:
REMARK  status: ('A' for Active; 'I' for Inactive)
REMARK    1  A    between atoms: N3_7  and  N4_9 
REMARK       I    between atoms: N4_9  and  C4_11 
REMARK    2  A    between atoms: C5_16  and  N7_17 
REMARK    3  A    between atoms: N7_17  and  N8_19 
ROOT
HETATM    1  C1  UNL     1      20.266   6.878  51.375  1.00  0.00     0.200 C 
HETATM    2  N1  UNL     1      18.965   7.500  51.498  1.00  0.00    -0.237 N 
HETATM    3  N2  UNL     1      18.689   8.160  52.612  1.00  0.00    -0.293 N 
ATOM      4  H2  UNL     1      19.402   8.205  53.340  1.00  0.00     0.187 HD
HETATM    5  C2  UNL     1      17.511   8.775  52.827  1.00  0.00     0.143 A 
HETATM    6  C3  UNL     1      16.582   8.671  51.784  1.00  0.00     0.111 A 
HETATM    7  N3  UNL     1      15.448   9.240  51.947  1.00  0.00    -0.293 N 
ATOM      8  H3  UNL     1      14.760   9.174  51.197  1.00  0.00     0.187 HD
HETATM    9  C5  UNL     1      16.867   7.989  50.632  1.00  0.00     0.165 A 
HETATM   10  N9  UNL     1      18.064   7.412  50.510  1.00  0.00    -0.266 N 
ATOM     11  H9  UNL     1      18.295   6.899  49.659  1.00  0.00     0.190 HD
ENDROOT
BRANCH   7  12
HETATM   12  N4  UNL     1      15.108   9.943  53.091  1.00  0.00    -0.273 N 
HETATM   13  C4  UNL     1      13.980   9.664  53.903  1.00  0.00     0.200 C 
HETATM   14  N5  UNL     1      12.994  10.488  53.848  1.00  0.00    -0.372 N 
HETATM   15  N6  UNL     1      13.898   8.533  54.758  1.00  0.00    -0.062 NA
ATOM     16  H52 UNL     1      13.053  11.300  53.234  1.00  0.00     0.158 HD
ATOM     17  H51 UNL     1      12.183  10.287  54.432  1.00  0.00     0.158 HD
ATOM     18  H4  UNL     1      15.711  10.717  53.369  1.00  0.00     0.189 HD
ENDBRANCH   7  12
BRANCH   9  19
HETATM   19  N7  UNL     1      16.033   7.895  49.695  1.00  0.00    -0.289 N 
ATOM     20  H7  UNL     1      15.056   8.034  49.953  1.00  0.00     0.188 HD
BRANCH  19  21
HETATM   21  N8  UNL     1      16.270   7.628  48.368  1.00  0.00    -0.344 N 
ATOM     22  H82 UNL     1      16.758   8.370  47.865  1.00  0.00     0.176 HD
ATOM     23  H81 UNL     1      16.022   6.794  47.837  1.00  0.00     0.176 HD
ENDBRANCH  19  21
ENDBRANCH   9  19
TORSDOF 3
ENDMDL
MODEL 3
REMARK VINA RESULT: -4.478130618      1.746      5.193
REMARK  3 active torsions:
REMARK  status: ('A' for Active; 'I' for Inactive)
REMARK    1  A    between atoms: N3_7  and  N4_9 
REMARK       I    between atoms: N4_9  and  C4_11 
REMARK    2  A    between atoms: C5_16  and  N7_17 
REMARK    3  A    between atoms: N7_17  and  N8_19 
ROOT
HETATM    1  C1  UNL     1      22.740   9.178  54.841  1.00  0.00     0.200 C 
HETATM    2  N1  UNL     1      21.563   8.766  54.105  1.00  0.00    -0.237 N 
HETATM    3  N2  UNL     1      20.378   9.144  54.558  1.00  0.00    -0.293 N 
ATOM      4  H2  UNL     1      20.338   9.710  55.406  1.00  0.00     0.187 HD
HETATM    5  C2  UNL     1      19.223   8.816  53.949  1.00  0.00     0.143 A 
HETATM    6  C3  UNL     1      19.356   8.038  52.792  1.00  0.00     0.111 A 
HETATM    7  N3  UNL     1      18.282   7.704  52.182  1.00  0.00    -0.293 N 
ATOM      8  H3  UNL     1      18.362   7.137  51.337  1.00  0.00     0.187 HD
HETATM    9  C5  UNL     1      20.581   7.648  52.324  1.00  0.00     0.165 A 
HETATM   10  N9  UNL     1      21.672   8.023  52.996  1.00  0.00    -0.266 N 
ATOM     11  H9  UNL     1      22.593   7.743  52.663  1.00  0.00     0.190 HD
ENDROOT
BRANCH   7  12
HETATM   12  N4  UNL     1      17.018   8.071  52.611  1.00  0.00    -0.273 N 
HETATM   13  C4  UNL     1      16.181   9.005  51.949  1.00  0.00     0.200 C 
HETATM   14  N5  UNL     1      16.029  10.156  52.502  1.00  0.00    -0.372 N 
HETATM   15  N6  UNL     1      15.519   8.724  50.725  1.00  0.00    -0.062 NA
ATOM     16  H52 UNL     1      16.505  10.357  53.381  1.00  0.00     0.158 HD
ATOM     17  H51 UNL     1      15.427  10.828  52.026  1.00  0.00     0.158 HD
ATOM     18  H4  UNL     1      16.662   7.638  53.463  1.00  0.00     0.189 HD
ENDBRANCH   7  12
BRANCH   9  19
HETATM   19  N7  UNL     1      20.701   6.950  51.284  1.00  0.00    -0.289 N 
ATOM     20  H7  UNL     1      19.836   6.566  50.903  1.00  0.00     0.188 HD
BRANCH  19  21
HETATM   21  N8  UNL     1      21.849   6.639  50.596  1.00  0.00    -0.344 N 
ATOM     22  H82 UNL     1      22.334   5.806  50.932  1.00  0.00     0.176 HD
ATOM     23  H81 UNL     1      22.266   7.130  49.806  1.00  0.00     0.176 HD
ENDBRANCH  19  21
ENDBRANCH   9  19
TORSDOF 3
ENDMDL
MODEL 4
REMARK VINA RESULT: -4.379561995      2.131      5.181
REMARK  3 active torsions:
REMARK  status: ('A' for Active; 'I' for Inactive)
REMARK    1  A    between atoms: N3_7  and  N4_9 
REMARK       I    between atoms: N4_9  and  C4_11 
REMARK    2  A    between atoms: C5_16  and  N7_17 
REMARK    3  A    between atoms: N7_17  and  N8_19 
ROOT
HETATM    1  C1  UNL     1      21.826   7.045  56.398  1.00  0.00     0.200 C 
HETATM    2  N1  UNL     1      21.029   7.214  55.201  1.00  0.00    -0.237 N 
HETATM    3  N2  UNL     1      19.710   7.171  55.317  1.00  0.00    -0.293 N 
ATOM      4  H2  UNL     1      19.307   7.020  56.242  1.00  0.00     0.187 HD
HETATM    5  C2  UNL     1      18.879   7.317  54.269  1.00  0.00     0.143 A 
HETATM    6  C3  UNL     1      19.503   7.519  53.032  1.00  0.00     0.111 A 
HETATM    7  N3  UNL     1      18.749   7.662  52.008  1.00  0.00    -0.293 N 
ATOM      8  H3  UNL     1      19.188   7.811  51.099  1.00  0.00     0.187 HD
HETATM    9  C5  UNL     1      20.865   7.564  52.912  1.00  0.00     0.165 A 
HETATM   10  N9  UNL     1      21.609   7.409  54.010  1.00  0.00    -0.266 N 
ATOM     11  H9  UNL     1      22.626   7.440  53.942  1.00  0.00     0.190 HD
ENDROOT
BRANCH   7  12
HETATM   12  N4  UNL     1      17.366   7.626  52.071  1.00  0.00    -0.273 N 
HETATM   13  C4  UNL     1      16.501   8.400  51.258  1.00  0.00     0.200 C 
HETATM   14  N5  UNL     1      15.884   9.381  51.818  1.00  0.00    -0.372 N 
HETATM   15  N6  UNL     1      16.292   8.140  49.878  1.00  0.00    -0.062 NA
ATOM     16  H52 UNL     1      16.034   9.567  52.809  1.00  0.00     0.158 HD
ATOM     17  H51 UNL     1      15.262   9.938  51.233  1.00  0.00     0.158 HD
ATOM     18  H4  UNL     1      16.939   6.997  52.752  1.00  0.00     0.189 HD
ENDBRANCH   7  12
BRANCH   9  19
HETATM   19  N7  UNL     1      21.427   7.746  51.802  1.00  0.00    -0.289 N 
ATOM     20  H7  UNL     1      21.515   8.717  51.501  1.00  0.00     0.188 HD
BRANCH  19  21
HETATM   21  N8  UNL     1      21.939   6.804  50.942  1.00  0.00    -0.344 N 
ATOM     22  H82 UNL     1      21.258   6.129  50.596  1.00  0.00     0.176 HD
ATOM     23  H81 UNL     1      22.900   6.702  50.615  1.00  0.00     0.176 HD
ENDBRANCH  19  21
ENDBRANCH   9  19
TORSDOF 3
ENDMDL
MODEL 5
REMARK VINA RESULT: -4.331107074      6.905      8.861
REMARK  3 active torsions:
REMARK  status: ('A' for Active; 'I' for Inactive)
REMARK    1  A    between atoms: N3_7  and  N4_9 
REMARK       I    between atoms: N4_9  and  C4_11 
REMARK    2  A    between atoms: C5_16  and  N7_17 
REMARK    3  A    between atoms: N7_17  and  N8_19 
ROOT
HETATM    1  C1  UNL     1      14.812  13.642  53.967  1.00  0.00     0.200 C 
HETATM    2  N1  UNL     1      13.593  12.871  53.836  1.00  0.00    -0.237 N 
HETATM    3  N2  UNL     1      13.612  11.602  54.213  1.00  0.00    -0.293 N 
ATOM      4  H2  UNL     1      14.483  11.216  54.580  1.00  0.00     0.187 HD
HETATM    5  C2  UNL     1      12.535  10.798  54.133  1.00  0.00     0.143 A 
HETATM    6  C3  UNL     1      11.378  11.396  53.620  1.00  0.00     0.111 A 
HETATM    7  N3  UNL     1      10.331  10.668  53.527  1.00  0.00    -0.293 N 
ATOM      8  H3  UNL     1       9.479  11.089  53.155  1.00  0.00     0.187 HD
HETATM    9  C5  UNL     1      11.358  12.708  53.231  1.00  0.00     0.165 A 
HETATM   10  N9  UNL     1      12.477  13.427  53.348  1.00  0.00    -0.266 N 
ATOM     11  H9  UNL     1      12.482  14.406  53.063  1.00  0.00     0.190 HD
ENDROOT
BRANCH   7  12
HETATM   12  N4  UNL     1      10.294   9.336  53.905  1.00  0.00    -0.273 N 
HETATM   13  C4  UNL     1       9.273   8.422  53.544  1.00  0.00     0.200 C 
HETATM   14  N5  UNL     1       8.447   8.066  54.464  1.00  0.00    -0.372 N 
HETATM   15  N6  UNL     1       9.129   7.895  52.234  1.00  0.00    -0.062 NA
ATOM     16  H52 UNL     1       8.550   8.445  55.405  1.00  0.00     0.158 HD
ATOM     17  H51 UNL     1       7.712   7.409  54.204  1.00  0.00     0.158 HD
ATOM     18  H4  UNL     1      11.058   8.988  54.486  1.00  0.00     0.189 HD
ENDBRANCH   7  12
BRANCH   9  19
HETATM   19  N7  UNL     1      10.319  13.247  52.769  1.00  0.00    -0.289 N 
ATOM     20  H7  UNL     1       9.485  13.176  53.352  1.00  0.00     0.188 HD
BRANCH  19  21
HETATM   21  N8  UNL     1      10.164  13.919  51.581  1.00  0.00    -0.344 N 
ATOM     22  H82 UNL     1      10.807  13.632  50.843  1.00  0.00     0.176 HD
ATOM     23  H81 UNL     1       9.496  14.656  51.354  1.00  0.00     0.176 HD
ENDBRANCH  19  21
ENDBRANCH   9  19
TORSDOF 3
ENDMDL
