MODEL 1
REMARK VINA RESULT: -6.268426456      0.000      0.000
REMARK  3 active torsions:
REMARK  status: ('A' for Active; 'I' for Inactive)
REMARK    1  A    between atoms: N1_1  and  N2_4 
REMARK    2  A    between atoms: N2_4  and  N3_5 
REMARK       I    between atoms: N3_5  and  C1_7 
REMARK       I    between atoms: C1_7  and  N5_9 
REMARK    3  A    between atoms: N5_9  and  C2_11 
ROOT
HETATM    1  C2  UNL     1      16.724   8.406  52.739  1.00  0.00     0.152 A 
HETATM    2  N6  UNL     1      17.575   7.791  53.578  1.00  0.00    -0.302 N 
ATOM      3  H6  UNL     1      17.469   7.959  54.578  1.00  0.00     0.171 HD
HETATM    4  C3  UNL     1      18.564   6.964  53.173  1.00  0.00     0.315 A 
HETATM    5  O1  UNL     1      19.350   6.399  53.964  1.00  0.00    -0.262 OA
HETATM    6  C4  UNL     1      18.682   6.759  51.818  1.00  0.00     0.315 A 
HETATM    7  O2  UNL     1      19.597   5.989  51.378  1.00  0.00    -0.262 OA
HETATM    8  N7  UNL     1      17.858   7.346  50.892  1.00  0.00    -0.304 N 
ATOM      9  H7  UNL     1      17.965   7.180  49.891  1.00  0.00     0.170 HD
HETATM   10  C5  UNL     1      16.899   8.154  51.384  1.00  0.00     0.164 A 
HETATM   11  N8  UNL     1      16.009   8.790  50.476  1.00  0.00    -0.079 NA
ENDROOT
BRANCH   1  12
HETATM   12  N5  UNL     1      15.742   9.233  53.152  1.00  0.00    -0.312 N 
HETATM   13  C1  UNL     1      14.633   9.374  53.619  1.00  0.00     0.220 C 
HETATM   14  N3  UNL     1      14.067  10.708  53.840  1.00  0.00    -0.187 N 
HETATM   15  N4  UNL     1      13.843   8.238  53.975  1.00  0.00    -0.061 NA
ATOM     16  H3  UNL     1      13.120  10.813  54.202  1.00  0.00     0.206 HD
ATOM     17  H5  UNL     1      16.097  10.178  53.000  1.00  0.00     0.170 HD
BRANCH  14  18
HETATM   18  N2  UNL     1      14.817  11.800  53.559  1.00  0.00    -0.241 NA
BRANCH  18  19
HETATM   19  N1  UNL     1      15.425  12.726  53.338  1.00  0.00    -0.260 N 
ATOM     20  H12 UNL     1      15.242  12.273  54.234  1.00  0.00     0.193 HD
ATOM     21  H11 UNL     1      15.968  13.559  53.115  1.00  0.00     0.193 HD
ENDBRANCH  18  19
ENDBRANCH  14  18
ENDBRANCH   1  12
TORSDOF 3
ENDMDL
MODEL 2
REMARK VINA RESULT: -6.003484699      3.021      4.712
REMARK  3 active torsions:
REMARK  status: ('A' for Active; 'I' for Inactive)
REMARK    1  A    between atoms: N1_1  and  N2_4 
REMARK    2  A    between atoms: N2_4  and  N3_5 
REMARK       I    between atoms: N3_5  and  C1_7 
REMARK       I    between atoms: C1_7  and  N5_9 
REMARK    3  A    between atoms: N5_9  and  C2_11 
ROOT
HETATM    1  C2  UNL     1      17.912   7.594  52.816  1.00  0.00     0.152 A 
HETATM    2  N6  UNL     1      16.749   8.262  52.738  1.00  0.00    -0.302 N 
ATOM      3  H6  UNL     1      16.346   8.627  53.601  1.00  0.00     0.171 HD
HETATM    4  C3  UNL     1      16.083   8.479  51.583  1.00  0.00     0.315 A 
HETATM    5  O1  UNL     1      15.001   9.103  51.524  1.00  0.00    -0.262 OA
HETATM    6  C4  UNL     1      16.651   7.975  50.437  1.00  0.00     0.315 A 
HETATM    7  O2  UNL     1      16.067   8.148  49.318  1.00  0.00    -0.262 OA
HETATM    8  N7  UNL     1      17.833   7.280  50.425  1.00  0.00    -0.304 N 
ATOM      9  H7  UNL     1      18.237   6.913  49.563  1.00  0.00     0.170 HD
HETATM   10  C5  UNL     1      18.431   7.111  51.621  1.00  0.00     0.164 A 
HETATM   11  N8  UNL     1      19.663   6.403  51.676  1.00  0.00    -0.079 NA
ENDROOT
BRANCH   1  12
HETATM   12  N5  UNL     1      18.569   7.378  53.974  1.00  0.00    -0.312 N 
HETATM   13  C1  UNL     1      18.539   7.026  55.133  1.00  0.00     0.220 C 
HETATM   14  N3  UNL     1      19.750   7.034  55.959  1.00  0.00    -0.187 N 
HETATM   15  N4  UNL     1      17.318   6.585  55.729  1.00  0.00    -0.061 NA
ATOM     16  H3  UNL     1      19.705   6.768  56.943  1.00  0.00     0.206 HD
ATOM     17  H5  UNL     1      19.541   7.626  53.789  1.00  0.00     0.170 HD
BRANCH  14  18
HETATM   18  N2  UNL     1      20.929   7.399  55.403  1.00  0.00    -0.241 NA
BRANCH  18  19
HETATM   19  N1  UNL     1      21.913   7.724  54.955  1.00  0.00    -0.260 N 
ATOM     20  H12 UNL     1      21.261   8.255  55.531  1.00  0.00     0.193 HD
ATOM     21  H11 UNL     1      22.805   7.995  54.540  1.00  0.00     0.193 HD
ENDBRANCH  18  19
ENDBRANCH  14  18
ENDBRANCH   1  12
TORSDOF 3
ENDMDL
MODEL 3
REMARK VINA RESULT: -5.759575198      1.055      1.895
REMARK  3 active torsions:
REMARK  status: ('A' for Active; 'I' for Inactive)
REMARK    1  A    between atoms: N1_1  and  N2_4 
REMARK    2  A    between atoms: N2_4  and  N3_5 
REMARK       I    between atoms: N3_5  and  C1_7 
REMARK       I    between atoms: C1_7  and  N5_9 
REMARK    3  A    between atoms: N5_9  and  C2_11 
ROOT
HETATM    1  C2  UNL     1      17.205   8.918  52.585  1.00  0.00     0.152 A 
HETATM    2  N6  UNL     1      18.168   8.413  53.374  1.00  0.00    -0.302 N 
ATOM      3  H6  UNL     1      18.343   8.868  54.270  1.00  0.00     0.171 HD
HETATM    4  C3  UNL     1      18.919   7.338  53.050  1.00  0.00     0.315 A 
HETATM    5  O1  UNL     1      19.813   6.878  53.793  1.00  0.00    -0.262 OA
HETATM    6  C4  UNL     1      18.660   6.747  51.835  1.00  0.00     0.315 A 
HETATM    7  O2  UNL     1      19.337   5.729  51.476  1.00  0.00    -0.262 OA
HETATM    8  N7  UNL     1      17.697   7.196  50.969  1.00  0.00    -0.304 N 
ATOM      9  H7  UNL     1      17.523   6.743  50.071  1.00  0.00     0.170 HD
HETATM   10  C5  UNL     1      16.995   8.273  51.373  1.00  0.00     0.164 A 
HETATM   11  N8  UNL     1      15.979   8.786  50.522  1.00  0.00    -0.079 NA
ENDROOT
BRANCH   1  12
HETATM   12  N5  UNL     1      16.463   9.995  52.916  1.00  0.00    -0.312 N 
HETATM   13  C1  UNL     1      16.389  11.193  53.074  1.00  0.00     0.220 C 
HETATM   14  N3  UNL     1      15.138  11.825  53.509  1.00  0.00    -0.187 N 
HETATM   15  N4  UNL     1      17.520  12.032  52.835  1.00  0.00    -0.061 NA
ATOM     16  H3  UNL     1      15.098  12.831  53.671  1.00  0.00     0.206 HD
ATOM     17  H5  UNL     1      15.534   9.632  53.133  1.00  0.00     0.170 HD
BRANCH  14  18
HETATM   18  N2  UNL     1      14.038  11.058  53.692  1.00  0.00    -0.241 NA
BRANCH  18  19
HETATM   19  N1  UNL     1      13.105  10.439  53.839  1.00  0.00    -0.260 N 
ATOM     20  H12 UNL     1      13.208  11.454  53.810  1.00  0.00     0.193 HD
ATOM     21  H11 UNL     1      12.276   9.860  53.970  1.00  0.00     0.193 HD
ENDBRANCH  18  19
ENDBRANCH  14  18
ENDBRANCH   1  12
TORSDOF 3
ENDMDL
MODEL 4
REMARK VINA RESULT: -5.732663830      3.226      5.664
REMARK  3 active torsions:
REMARK  status: ('A' for Active; 'I' for Inactive)
REMARK    1  A    between atoms: N1_1  and  N2_4 
REMARK    2  A    between atoms: N2_4  and  N3_5 
REMARK       I    between atoms: N3_5  and  C1_7 
REMARK       I    between atoms: C1_7  and  N5_9 
REMARK    3  A    between atoms: N5_9  and  C2_11 
ROOT
HETATM    1  C2  UNL     1      18.678   8.122  52.131  1.00  0.00     0.152 A 
HETATM    2  N6  UNL     1      17.954   8.078  51.000  1.00  0.00    -0.302 N 
ATOM      3  H6  UNL     1      18.439   7.876  50.126  1.00  0.00     0.171 HD
HETATM    4  C3  UNL     1      16.619   8.286  50.952  1.00  0.00     0.315 A 
HETATM    5  O1  UNL     1      15.958   8.242  49.893  1.00  0.00    -0.262 OA
HETATM    6  C4  UNL     1      15.994   8.556  52.147  1.00  0.00     0.315 A 
HETATM    7  O2  UNL     1      14.736   8.762  52.163  1.00  0.00    -0.262 OA
HETATM    8  N7  UNL     1      16.654   8.621  53.346  1.00  0.00    -0.304 N 
ATOM      9  H7  UNL     1      16.170   8.826  54.220  1.00  0.00     0.170 HD
HETATM   10  C5  UNL     1      17.983   8.400  53.301  1.00  0.00     0.164 A 
HETATM   11  N8  UNL     1      18.726   8.449  54.512  1.00  0.00    -0.079 NA
ENDROOT
BRANCH   1  12
HETATM   12  N5  UNL     1      20.011   7.917  52.168  1.00  0.00    -0.312 N 
HETATM   13  C1  UNL     1      20.988   7.369  51.709  1.00  0.00     0.220 C 
HETATM   14  N3  UNL     1      22.319   7.586  52.284  1.00  0.00    -0.187 N 
HETATM   15  N4  UNL     1      20.873   6.495  50.585  1.00  0.00    -0.061 NA
ATOM     16  H3  UNL     1      23.129   7.093  51.910  1.00  0.00     0.206 HD
ATOM     17  H5  UNL     1      20.355   8.489  52.940  1.00  0.00     0.170 HD
BRANCH  14  18
HETATM   18  N2  UNL     1      22.462   8.451  53.316  1.00  0.00    -0.241 NA
BRANCH  18  19
HETATM   19  N1  UNL     1      22.604   9.161  54.183  1.00  0.00    -0.260 N 
ATOM     20  H12 UNL     1      22.986   8.225  54.046  1.00  0.00     0.193 HD
ATOM     21  H11 UNL     1      22.718   9.818  54.954  1.00  0.00     0.193 HD
ENDBRANCH  18  19
ENDBRANCH  14  18
ENDBRANCH   1  12
TORSDOF 3
ENDMDL
MODEL 5
REMARK VINA RESULT: -5.729844703      3.095      5.096
REMARK  3 active torsions:
REMARK  status: ('A' for Active; 'I' for Inactive)
REMARK    1  A    between atoms: N1_1  and  N2_4 
REMARK    2  A    between atoms: N2_4  and  N3_5 
REMARK       I    between atoms: N3_5  and  C1_7 
REMARK       I    between atoms: C1_7  and  N5_9 
REMARK    3  A    between atoms: N5_9  and  C2_11 
ROOT
HETATM    1  C2  UNL     1      18.607   7.909  52.755  1.00  0.00     0.152 A 
HETATM    2  N6  UNL     1      17.483   8.537  53.138  1.00  0.00    -0.302 N 
ATOM      3  H6  UNL     1      17.397   8.816  54.115  1.00  0.00     0.171 HD
HETATM    4  C3  UNL     1      16.458   8.820  52.304  1.00  0.00     0.315 A 
HETATM    5  O1  UNL     1      15.417   9.404  52.673  1.00  0.00    -0.262 OA
HETATM    6  C4  UNL     1      16.604   8.431  50.993  1.00  0.00     0.315 A 
HETATM    7  O2  UNL     1      15.669   8.670  50.160  1.00  0.00    -0.262 OA
HETATM    8  N7  UNL     1      17.716   7.786  50.517  1.00  0.00    -0.304 N 
ATOM      9  H7  UNL     1      17.801   7.504  49.540  1.00  0.00     0.170 HD
HETATM   10  C5  UNL     1      18.689   7.544  51.417  1.00  0.00     0.164 A 
HETATM   11  N8  UNL     1      19.871   6.882  50.986  1.00  0.00    -0.079 NA
ENDROOT
BRANCH   1  12
HETATM   12  N5  UNL     1      19.624   7.627  53.596  1.00  0.00    -0.312 N 
HETATM   13  C1  UNL     1      20.070   6.942  54.489  1.00  0.00     0.220 C 
HETATM   14  N3  UNL     1      21.407   7.189  55.039  1.00  0.00    -0.187 N 
HETATM   15  N4  UNL     1      19.306   5.865  55.033  1.00  0.00    -0.061 NA
ATOM     16  H3  UNL     1      21.758   6.627  55.814  1.00  0.00     0.206 HD
ATOM     17  H5  UNL     1      20.356   8.305  53.379  1.00  0.00     0.170 HD
BRANCH  14  18
HETATM   18  N2  UNL     1      22.171   8.171  54.505  1.00  0.00    -0.241 NA
BRANCH  18  19
HETATM   19  N1  UNL     1      22.810   9.002  54.084  1.00  0.00    -0.260 N 
ATOM     20  H12 UNL     1      22.360   8.934  54.997  1.00  0.00     0.193 HD
ATOM     21  H11 UNL     1      23.389   9.739  53.683  1.00  0.00     0.193 HD
ENDBRANCH  18  19
ENDBRANCH  14  18
ENDBRANCH   1  12
TORSDOF 3
ENDMDL
