MODEL 1
REMARK VINA RESULT: -4.131806191      0.000      0.000
REMARK  5 active torsions:
REMARK  status: ('A' for Active; 'I' for Inactive)
REMARK    1  A    between atoms: N1_1  and  C1_4 
REMARK    2  A    between atoms: C2_7  and  N3_8 
REMARK    3  A    between atoms: N4_11  and  C3_12 
REMARK    4  A    between atoms: C4_13  and  C5_14 
REMARK    5  A    between atoms: C5_14  and  C6_15 
ROOT
HETATM    1  C1  UNL     1      16.369  19.390  57.590  1.00  0.00     0.694 A 
HETATM    2  N2  UNL     1      15.993  18.117  57.775  1.00  0.00    -0.022 N 
ATOM      3  H2  UNL     1      15.041  17.884  58.062  1.00  0.00     0.203 HD
HETATM    4  C2  UNL     1      16.927  17.142  57.567  1.00  0.00     0.700 A 
HETATM    5  N4  UNL     1      18.183  17.414  57.192  1.00  0.00    -0.106 N 
HETATM    6  C7  UNL     1      18.489  18.736  57.023  1.00  0.00     0.359 A 
HETATM    7  O1  UNL     1      19.661  19.078  56.667  1.00  0.00    -0.245 OA
HETATM    8  N6  UNL     1      17.615  19.723  57.212  1.00  0.00    -0.140 N 
ATOM      9  H6  UNL     1      17.883  20.697  57.075  1.00  0.00     0.189 HD
ENDROOT
BRANCH   5  10
HETATM   10  C3  UNL     1      19.125  16.434  56.874  1.00  0.00     0.120 C 
HETATM   11  C4  UNL     1      19.428  15.855  55.591  1.00  0.00     0.019 C 
BRANCH  11  12
HETATM   12  C5  UNL     1      18.534  15.155  54.673  1.00  0.00     0.016 C 
BRANCH  12  13
HETATM   13  C6  UNL     1      17.745  13.976  55.043  1.00  0.00     0.100 C 
HETATM   14  N5  UNL     1      16.425  14.047  55.499  1.00  0.00    -0.115 NA
ENDBRANCH  12  13
ENDBRANCH  11  12
ENDBRANCH   5  10
BRANCH   4  15
HETATM   15  N3  UNL     1      16.481  15.949  57.754  1.00  0.00    -0.233 N 
ATOM     16  H32 UNL     1      15.545  15.648  57.485  1.00  0.00     0.174 HD
ATOM     17  H31 UNL     1      17.150  15.327  58.208  1.00  0.00     0.174 HD
ENDBRANCH   4  15
BRANCH   1  18
HETATM   18  N1  UNL     1      15.510  20.337  57.778  1.00  0.00    -0.234 N 
ATOM     19  H12 UNL     1      14.548  20.082  58.003  1.00  0.00     0.174 HD
ATOM     20  H11 UNL     1      15.812  21.308  57.697  1.00  0.00     0.174 HD
ENDBRANCH   1  18
TORSDOF 5
ENDMDL
MODEL 2
REMARK VINA RESULT: -4.071751823      1.843      2.355
REMARK  5 active torsions:
REMARK  status: ('A' for Active; 'I' for Inactive)
REMARK    1  A    between atoms: N1_1  and  C1_4 
REMARK    2  A    between atoms: C2_7  and  N3_8 
REMARK    3  A    between atoms: N4_11  and  C3_12 
REMARK    4  A    between atoms: C4_13  and  C5_14 
REMARK    5  A    between atoms: C5_14  and  C6_15 
ROOT
HETATM    1  C1  UNL     1      17.141  18.161  58.685  1.00  0.00     0.694 A 
HETATM    2  N2  UNL     1      18.380  17.723  58.421  1.00  0.00    -0.022 N 
ATOM      3  H2  UNL     1      19.067  17.600  59.165  1.00  0.00     0.203 HD
HETATM    4  C2  UNL     1      18.691  17.447  57.119  1.00  0.00     0.700 A 
HETATM    5  N4  UNL     1      17.814  17.598  56.119  1.00  0.00    -0.106 N 
HETATM    6  C7  UNL     1      16.572  18.049  56.471  1.00  0.00     0.359 A 
HETATM    7  O1  UNL     1      15.680  18.218  55.580  1.00  0.00    -0.245 OA
HETATM    8  N6  UNL     1      16.219  18.331  57.723  1.00  0.00    -0.140 N 
ATOM      9  H6  UNL     1      15.281  18.664  57.944  1.00  0.00     0.189 HD
ENDROOT
BRANCH   5  10
HETATM   10  C3  UNL     1      18.073  17.226  54.799  1.00  0.00     0.120 C 
HETATM   11  C4  UNL     1      17.796  15.976  54.142  1.00  0.00     0.019 C 
BRANCH  11  12
HETATM   12  C5  UNL     1      18.247  14.636  54.506  1.00  0.00     0.016 C 
BRANCH  12  13
HETATM   13  C6  UNL     1      17.562  13.781  55.480  1.00  0.00     0.100 C 
HETATM   14  N5  UNL     1      17.201  14.212  56.760  1.00  0.00    -0.115 NA
ENDBRANCH  12  13
ENDBRANCH  11  12
ENDBRANCH   5  10
BRANCH   4  15
HETATM   15  N3  UNL     1      19.894  17.020  56.953  1.00  0.00    -0.233 N 
ATOM     16  H32 UNL     1      20.444  16.580  57.691  1.00  0.00     0.174 HD
ATOM     17  H31 UNL     1      20.257  17.170  56.012  1.00  0.00     0.174 HD
ENDBRANCH   4  15
BRANCH   1  18
HETATM   18  N1  UNL     1      16.814  18.432  59.906  1.00  0.00    -0.234 N 
ATOM     19  H12 UNL     1      16.990  17.728  60.624  1.00  0.00     0.174 HD
ATOM     20  H11 UNL     1      16.392  19.335  60.121  1.00  0.00     0.174 HD
ENDBRANCH   1  18
TORSDOF 5
ENDMDL
MODEL 3
REMARK VINA RESULT: -4.036882357      2.600      3.722
REMARK  5 active torsions:
REMARK  status: ('A' for Active; 'I' for Inactive)
REMARK    1  A    between atoms: N1_1  and  C1_4 
REMARK    2  A    between atoms: C2_7  and  N3_8 
REMARK    3  A    between atoms: N4_11  and  C3_12 
REMARK    4  A    between atoms: C4_13  and  C5_14 
REMARK    5  A    between atoms: C5_14  and  C6_15 
ROOT
HETATM    1  C1  UNL     1      17.289  16.660  57.868  1.00  0.00     0.694 A 
HETATM    2  N2  UNL     1      18.421  17.105  57.303  1.00  0.00    -0.022 N 
ATOM      3  H2  UNL     1      18.983  17.831  57.748  1.00  0.00     0.203 HD
HETATM    4  C2  UNL     1      18.795  16.553  56.111  1.00  0.00     0.700 A 
HETATM    5  N4  UNL     1      18.081  15.600  55.501  1.00  0.00    -0.106 N 
HETATM    6  C7  UNL     1      16.940  15.199  56.140  1.00  0.00     0.359 A 
HETATM    7  O1  UNL     1      16.205  14.297  55.626  1.00  0.00    -0.245 OA
HETATM    8  N6  UNL     1      16.532  15.705  57.302  1.00  0.00    -0.140 N 
ATOM      9  H6  UNL     1      15.675  15.379  57.747  1.00  0.00     0.189 HD
ENDROOT
BRANCH   5  10
HETATM   10  C3  UNL     1      18.493  14.947  54.338  1.00  0.00     0.120 C 
HETATM   11  C4  UNL     1      18.770  15.503  53.039  1.00  0.00     0.019 C 
BRANCH  11  12
HETATM   12  C5  UNL     1      17.886  16.280  52.174  1.00  0.00     0.016 C 
BRANCH  12  13
HETATM   13  C6  UNL     1      17.594  17.703  52.373  1.00  0.00     0.100 C 
HETATM   14  N5  UNL     1      16.846  18.190  53.448  1.00  0.00    -0.115 NA
ENDBRANCH  12  13
ENDBRANCH  11  12
ENDBRANCH   5  10
BRANCH   4  15
HETATM   15  N3  UNL     1      19.898  17.026  55.645  1.00  0.00    -0.233 N 
ATOM     16  H32 UNL     1      20.820  16.724  55.960  1.00  0.00     0.174 HD
ATOM     17  H31 UNL     1      19.768  17.744  54.932  1.00  0.00     0.174 HD
ENDBRANCH   4  15
BRANCH   1  18
HETATM   18  N1  UNL     1      16.906  17.162  58.996  1.00  0.00    -0.234 N 
ATOM     19  H12 UNL     1      16.679  16.523  59.759  1.00  0.00     0.174 HD
ATOM     20  H11 UNL     1      16.841  18.175  59.095  1.00  0.00     0.174 HD
ENDBRANCH   1  18
TORSDOF 5
ENDMDL
MODEL 4
REMARK VINA RESULT: -4.020043743      2.278      2.963
REMARK  5 active torsions:
REMARK  status: ('A' for Active; 'I' for Inactive)
REMARK    1  A    between atoms: N1_1  and  C1_4 
REMARK    2  A    between atoms: C2_7  and  N3_8 
REMARK    3  A    between atoms: N4_11  and  C3_12 
REMARK    4  A    between atoms: C4_13  and  C5_14 
REMARK    5  A    between atoms: C5_14  and  C6_15 
ROOT
HETATM    1  C1  UNL     1      17.367  18.011  58.823  1.00  0.00     0.694 A 
HETATM    2  N2  UNL     1      18.517  18.454  58.296  1.00  0.00    -0.022 N 
ATOM      3  H2  UNL     1      18.918  19.348  58.579  1.00  0.00     0.203 HD
HETATM    4  C2  UNL     1      19.134  17.665  57.366  1.00  0.00     0.700 A 
HETATM    5  N4  UNL     1      18.635  16.488  56.972  1.00  0.00    -0.106 N 
HETATM    6  C7  UNL     1      17.459  16.106  57.556  1.00  0.00     0.359 A 
HETATM    7  O1  UNL     1      16.919  15.000  57.237  1.00  0.00    -0.245 OA
HETATM    8  N6  UNL     1      16.819  16.837  58.467  1.00  0.00    -0.140 N 
ATOM      9  H6  UNL     1      15.943  16.516  58.880  1.00  0.00     0.189 HD
ENDROOT
BRANCH   5  10
HETATM   10  C3  UNL     1      19.296  15.618  56.104  1.00  0.00     0.120 C 
HETATM   11  C4  UNL     1      19.293  15.603  54.664  1.00  0.00     0.019 C 
BRANCH  11  12
HETATM   12  C5  UNL     1      18.154  15.490  53.756  1.00  0.00     0.016 C 
BRANCH  12  13
HETATM   13  C6  UNL     1      18.097  16.126  52.437  1.00  0.00     0.100 C 
HETATM   14  N5  UNL     1      16.901  16.492  51.812  1.00  0.00    -0.115 NA
ENDBRANCH  12  13
ENDBRANCH  11  12
ENDBRANCH   5  10
BRANCH   4  15
HETATM   15  N3  UNL     1      20.238  18.157  56.921  1.00  0.00    -0.233 N 
ATOM     16  H32 UNL     1      20.682  17.854  56.055  1.00  0.00     0.174 HD
ATOM     17  H31 UNL     1      20.638  18.877  57.522  1.00  0.00     0.174 HD
ENDBRANCH   4  15
BRANCH   1  18
HETATM   18  N1  UNL     1      16.757  18.732  59.706  1.00  0.00    -0.234 N 
ATOM     19  H12 UNL     1      17.204  18.872  60.612  1.00  0.00     0.174 HD
ATOM     20  H11 UNL     1      15.851  19.141  59.476  1.00  0.00     0.174 HD
ENDBRANCH   1  18
TORSDOF 5
ENDMDL
MODEL 5
REMARK VINA RESULT: -4.001092900      1.604      4.311
REMARK  5 active torsions:
REMARK  status: ('A' for Active; 'I' for Inactive)
REMARK    1  A    between atoms: N1_1  and  C1_4 
REMARK    2  A    between atoms: C2_7  and  N3_8 
REMARK    3  A    between atoms: N4_11  and  C3_12 
REMARK    4  A    between atoms: C4_13  and  C5_14 
REMARK    5  A    between atoms: C5_14  and  C6_15 
ROOT
HETATM    1  C1  UNL     1      18.070  14.286  55.697  1.00  0.00     0.694 A 
HETATM    2  N2  UNL     1      17.047  14.696  56.461  1.00  0.00    -0.022 N 
ATOM      3  H2  UNL     1      16.221  14.112  56.593  1.00  0.00     0.203 HD
HETATM    4  C2  UNL     1      17.151  15.922  57.055  1.00  0.00     0.700 A 
HETATM    5  N4  UNL     1      18.220  16.711  56.901  1.00  0.00    -0.106 N 
HETATM    6  C7  UNL     1      19.221  16.223  56.108  1.00  0.00     0.359 A 
HETATM    7  O1  UNL     1      20.271  16.912  55.911  1.00  0.00    -0.245 OA
HETATM    8  N6  UNL     1      19.169  15.036  55.507  1.00  0.00    -0.140 N 
ATOM      9  H6  UNL     1      19.938  14.707  54.923  1.00  0.00     0.189 HD
ENDROOT
BRANCH   5  10
HETATM   10  C3  UNL     1      18.395  17.919  57.579  1.00  0.00     0.120 C 
HETATM   11  C4  UNL     1      17.505  19.048  57.658  1.00  0.00     0.019 C 
BRANCH  11  12
HETATM   12  C5  UNL     1      16.950  19.849  56.571  1.00  0.00     0.016 C 
BRANCH  12  13
HETATM   13  C6  UNL     1      15.941  19.358  55.628  1.00  0.00     0.100 C 
HETATM   14  N5  UNL     1      14.887  18.519  56.000  1.00  0.00    -0.115 NA
ENDBRANCH  12  13
ENDBRANCH  11  12
ENDBRANCH   5  10
BRANCH   4  15
HETATM   15  N3  UNL     1      16.133  16.233  57.781  1.00  0.00    -0.233 N 
ATOM     16  H32 UNL     1      15.831  15.692  58.591  1.00  0.00     0.174 HD
ATOM     17  H31 UNL     1      15.644  17.070  57.465  1.00  0.00     0.174 HD
ENDBRANCH   4  15
BRANCH   1  18
HETATM   18  N1  UNL     1      18.005  13.132  55.120  1.00  0.00    -0.234 N 
ATOM     19  H12 UNL     1      17.329  12.452  55.469  1.00  0.00     0.174 HD
ATOM     20  H11 UNL     1      18.625  12.930  54.335  1.00  0.00     0.174 HD
ENDBRANCH   1  18
TORSDOF 5
ENDMDL
