MODEL 1
REMARK VINA RESULT: -4.006935872      0.000      0.000
REMARK  7 active torsions:
REMARK  status: ('A' for Active; 'I' for Inactive)
REMARK    1  A    between atoms: N1_2  and  C2_4 
REMARK    2  A    between atoms: C4_6  and  N2_7 
REMARK    3  A    between atoms: N2_7  and  C5_9 
REMARK    4  A    between atoms: C5_9  and  C6_10 
REMARK    5  A    between atoms: C6_10  and  N3_11 
REMARK    6  A    between atoms: C8_16  and  N4_17 
REMARK    7  A    between atoms: C9_21  and  O1_22 
ROOT
HETATM    1  C2  UNL     1      17.683  17.279  58.339  1.00  0.00     0.112 C 
HETATM    2  C3  UNL     1      18.670  18.101  57.570  1.00  0.00     0.052 C 
HETATM    3  C4  UNL     1      18.267  18.448  56.182  1.00  0.00     0.084 C 
HETATM    4  C7  UNL     1      17.748  17.295  55.357  1.00  0.00     0.060 C 
HETATM    5  C8  UNL     1      17.317  16.103  56.142  1.00  0.00     0.216 C 
HETATM    6  C9  UNL     1      16.779  16.430  57.497  1.00  0.00     0.171 C 
ENDROOT
BRANCH   3   7
HETATM    7  N2  UNL     1      17.398  19.532  55.995  1.00  0.00    -0.396 N 
ATOM      8  H2  UNL     1      17.652  20.472  56.297  1.00  0.00     0.159 HD
BRANCH   7   9
HETATM    9  C5  UNL     1      16.160  19.273  55.374  1.00  0.00     0.082 C 
BRANCH   9  10
HETATM   10  C6  UNL     1      15.006  19.641  56.252  1.00  0.00     0.273 C 
BRANCH  10  11
HETATM   11  N3  UNL     1      13.763  18.965  55.860  1.00  0.00    -0.075 N 
ATOM     12  H33 UNL     1      12.974  19.612  55.874  1.00  0.00     0.274 HD
ATOM     13  H32 UNL     1      13.769  18.733  54.867  1.00  0.00     0.274 HD
ATOM     14  H31 UNL     1      13.571  18.141  56.429  1.00  0.00     0.274 HD
ENDBRANCH  10  11
ENDBRANCH   9  10
ENDBRANCH   7   9
ENDBRANCH   3   7
BRANCH   1  15
HETATM   15  N1  UNL     1      16.907  18.103  59.243  1.00  0.00    -0.401 N 
HETATM   16  C1  UNL     1      17.317  19.237  59.658  1.00  0.00     0.112 C 
ATOM     17  H1  UNL     1      15.998  17.764  59.558  1.00  0.00     0.158 HD
ENDBRANCH   1  15
BRANCH   5  18
HETATM   18  N4  UNL     1      18.390  15.124  56.257  1.00  0.00    -0.072 N 
ATOM     19  H43 UNL     1      19.142  15.314  55.593  1.00  0.00     0.274 HD
ATOM     20  H42 UNL     1      18.913  15.244  57.124  1.00  0.00     0.274 HD
ATOM     21  H41 UNL     1      18.039  14.172  56.161  1.00  0.00     0.274 HD
ENDBRANCH   5  18
BRANCH   6  22
HETATM   22  O1  UNL     1      16.505  15.222  58.143  1.00  0.00    -0.391 OA
ATOM     23  H1  UNL     1      15.766  15.322  58.732  1.00  0.00     0.210 HD
ENDBRANCH   6  22
TORSDOF 7
ENDMDL
MODEL 2
REMARK VINA RESULT: -3.956340536      2.526      3.127
REMARK  7 active torsions:
REMARK  status: ('A' for Active; 'I' for Inactive)
REMARK    1  A    between atoms: N1_2  and  C2_4 
REMARK    2  A    between atoms: C4_6  and  N2_7 
REMARK    3  A    between atoms: N2_7  and  C5_9 
REMARK    4  A    between atoms: C5_9  and  C6_10 
REMARK    5  A    between atoms: C6_10  and  N3_11 
REMARK    6  A    between atoms: C8_16  and  N4_17 
REMARK    7  A    between atoms: C9_21  and  O1_22 
ROOT
HETATM    1  C2  UNL     1      18.019  16.590  56.902  1.00  0.00     0.112 C 
HETATM    2  C3  UNL     1      19.026  16.851  55.825  1.00  0.00     0.052 C 
HETATM    3  C4  UNL     1      18.568  16.564  54.441  1.00  0.00     0.084 C 
HETATM    4  C7  UNL     1      17.894  15.226  54.252  1.00  0.00     0.060 C 
HETATM    5  C8  UNL     1      17.408  14.584  55.507  1.00  0.00     0.216 C 
HETATM    6  C9  UNL     1      16.990  15.555  56.563  1.00  0.00     0.171 C 
ENDROOT
BRANCH   3   7
HETATM    7  N2  UNL     1      17.791  17.529  53.785  1.00  0.00    -0.396 N 
ATOM      8  H2  UNL     1      17.008  17.985  54.253  1.00  0.00     0.159 HD
BRANCH   7   9
HETATM    9  C5  UNL     1      18.133  17.846  52.455  1.00  0.00     0.082 C 
BRANCH   9  10
HETATM   10  C6  UNL     1      16.987  17.634  51.517  1.00  0.00     0.273 C 
BRANCH  10  11
HETATM   11  N3  UNL     1      17.040  16.328  50.850  1.00  0.00    -0.075 N 
ATOM     12  H33 UNL     1      17.944  15.878  50.996  1.00  0.00     0.274 HD
ATOM     13  H32 UNL     1      16.441  15.651  51.323  1.00  0.00     0.274 HD
ATOM     14  H31 UNL     1      16.816  16.387  49.857  1.00  0.00     0.274 HD
ENDBRANCH  10  11
ENDBRANCH   9  10
ENDBRANCH   7   9
ENDBRANCH   3   7
BRANCH   1  15
HETATM   15  N1  UNL     1      17.381  17.817  57.332  1.00  0.00    -0.401 N 
HETATM   16  C1  UNL     1      16.199  18.136  56.971  1.00  0.00     0.112 C 
ATOM     17  H1  UNL     1      17.894  18.449  57.945  1.00  0.00     0.158 HD
ENDBRANCH   1  15
BRANCH   5  18
HETATM   18  N4  UNL     1      18.393  13.656  56.047  1.00  0.00    -0.072 N 
ATOM     19  H43 UNL     1      18.178  12.692  55.792  1.00  0.00     0.274 HD
ATOM     20  H42 UNL     1      19.291  13.747  55.573  1.00  0.00     0.274 HD
ATOM     21  H41 UNL     1      18.491  13.763  57.057  1.00  0.00     0.274 HD
ENDBRANCH   5  18
BRANCH   6  22
HETATM   22  O1  UNL     1      16.649  14.817  57.700  1.00  0.00    -0.391 OA
ATOM     23  H1  UNL     1      15.746  14.526  57.647  1.00  0.00     0.210 HD
ENDBRANCH   6  22
TORSDOF 7
ENDMDL
MODEL 3
REMARK VINA RESULT: -3.956210576      2.460      5.118
REMARK  7 active torsions:
REMARK  status: ('A' for Active; 'I' for Inactive)
REMARK    1  A    between atoms: N1_2  and  C2_4 
REMARK    2  A    between atoms: C4_6  and  N2_7 
REMARK    3  A    between atoms: N2_7  and  C5_9 
REMARK    4  A    between atoms: C5_9  and  C6_10 
REMARK    5  A    between atoms: C6_10  and  N3_11 
REMARK    6  A    between atoms: C8_16  and  N4_17 
REMARK    7  A    between atoms: C9_21  and  O1_22 
ROOT
HETATM    1  C2  UNL     1      17.680  16.697  55.688  1.00  0.00     0.112 C 
HETATM    2  C3  UNL     1      18.825  17.615  55.980  1.00  0.00     0.052 C 
HETATM    3  C4  UNL     1      19.452  17.448  57.317  1.00  0.00     0.084 C 
HETATM    4  C7  UNL     1      18.485  17.387  58.476  1.00  0.00     0.060 C 
HETATM    5  C8  UNL     1      17.075  17.078  58.104  1.00  0.00     0.216 C 
HETATM    6  C9  UNL     1      16.943  16.205  56.897  1.00  0.00     0.171 C 
ENDROOT
BRANCH   3   7
HETATM    7  N2  UNL     1      20.388  16.419  57.488  1.00  0.00    -0.396 N 
ATOM      8  H2  UNL     1      20.256  15.506  57.052  1.00  0.00     0.159 HD
BRANCH   7   9
HETATM    9  C5  UNL     1      21.518  16.693  58.284  1.00  0.00     0.082 C 
BRANCH   9  10
HETATM   10  C6  UNL     1      22.330  15.463  58.545  1.00  0.00     0.273 C 
BRANCH  10  11
HETATM   11  N3  UNL     1      22.287  15.049  59.952  1.00  0.00    -0.075 N 
ATOM     12  H33 UNL     1      21.975  15.814  60.550  1.00  0.00     0.274 HD
ATOM     13  H32 UNL     1      21.526  14.390  60.117  1.00  0.00     0.274 HD
ATOM     14  H31 UNL     1      23.177  14.671  60.275  1.00  0.00     0.274 HD
ENDBRANCH  10  11
ENDBRANCH   9  10
ENDBRANCH   7   9
ENDBRANCH   3   7
BRANCH   1  15
HETATM   15  N1  UNL     1      18.098  15.582  54.863  1.00  0.00    -0.401 N 
HETATM   16  C1  UNL     1      18.048  14.374  55.269  1.00  0.00     0.112 C 
ATOM     17  H1  UNL     1      18.446  15.770  53.923  1.00  0.00     0.158 HD
ENDBRANCH   1  15
BRANCH   5  18
HETATM   18  N4  UNL     1      16.292  18.293  57.925  1.00  0.00    -0.072 N 
ATOM     19  H43 UNL     1      16.180  18.798  58.804  1.00  0.00     0.274 HD
ATOM     20  H42 UNL     1      16.811  18.999  57.403  1.00  0.00     0.274 HD
ATOM     21  H41 UNL     1      15.391  18.096  57.490  1.00  0.00     0.274 HD
ENDBRANCH   5  18
BRANCH   6  22
HETATM   22  O1  UNL     1      15.580  16.078  56.619  1.00  0.00    -0.391 OA
ATOM     23  H1  UNL     1      15.062  16.413  57.341  1.00  0.00     0.210 HD
ENDBRANCH   6  22
TORSDOF 7
ENDMDL
MODEL 4
REMARK VINA RESULT: -3.837828936      2.457      3.616
REMARK  7 active torsions:
REMARK  status: ('A' for Active; 'I' for Inactive)
REMARK    1  A    between atoms: N1_2  and  C2_4 
REMARK    2  A    between atoms: C4_6  and  N2_7 
REMARK    3  A    between atoms: N2_7  and  C5_9 
REMARK    4  A    between atoms: C5_9  and  C6_10 
REMARK    5  A    between atoms: C6_10  and  N3_11 
REMARK    6  A    between atoms: C8_16  and  N4_17 
REMARK    7  A    between atoms: C9_21  and  O1_22 
ROOT
HETATM    1  C2  UNL     1      18.118  16.958  56.899  1.00  0.00     0.112 C 
HETATM    2  C3  UNL     1      19.298  16.139  56.476  1.00  0.00     0.052 C 
HETATM    3  C4  UNL     1      19.123  15.369  55.217  1.00  0.00     0.084 C 
HETATM    4  C7  UNL     1      17.840  14.577  55.124  1.00  0.00     0.060 C 
HETATM    5  C8  UNL     1      16.769  14.997  56.073  1.00  0.00     0.216 C 
HETATM    6  C9  UNL     1      16.795  16.453  56.410  1.00  0.00     0.171 C 
ENDROOT
BRANCH   3   7
HETATM    7  N2  UNL     1      19.300  16.038  54.000  1.00  0.00    -0.396 N 
ATOM      8  H2  UNL     1      19.969  16.803  53.908  1.00  0.00     0.159 HD
BRANCH   7   9
HETATM    9  C5  UNL     1      18.518  15.616  52.905  1.00  0.00     0.082 C 
BRANCH   9  10
HETATM   10  C6  UNL     1      17.867  16.767  52.206  1.00  0.00     0.273 C 
BRANCH  10  11
HETATM   11  N3  UNL     1      17.151  16.356  50.992  1.00  0.00    -0.075 N 
ATOM     12  H33 UNL     1      16.163  16.193  51.186  1.00  0.00     0.274 HD
ATOM     13  H32 UNL     1      17.064  17.133  50.337  1.00  0.00     0.274 HD
ATOM     14  H31 UNL     1      17.576  15.544  50.545  1.00  0.00     0.274 HD
ENDBRANCH  10  11
ENDBRANCH   9  10
ENDBRANCH   7   9
ENDBRANCH   3   7
BRANCH   1  15
HETATM   15  N1  UNL     1      18.292  18.351  56.542  1.00  0.00    -0.401 N 
HETATM   16  C1  UNL     1      17.726  18.872  55.524  1.00  0.00     0.112 C 
ATOM     17  H1  UNL     1      18.888  18.937  57.126  1.00  0.00     0.158 HD
ENDBRANCH   1  15
BRANCH   5  18
HETATM   18  N4  UNL     1      16.799  14.205  57.295  1.00  0.00    -0.072 N 
ATOM     19  H43 UNL     1      15.982  13.598  57.367  1.00  0.00     0.274 HD
ATOM     20  H42 UNL     1      17.524  13.488  57.258  1.00  0.00     0.274 HD
ATOM     21  H41 UNL     1      16.900  14.796  58.120  1.00  0.00     0.274 HD
ENDBRANCH   5  18
BRANCH   6  22
HETATM   22  O1  UNL     1      15.803  16.679  57.368  1.00  0.00    -0.391 OA
ATOM     23  H1  UNL     1      15.219  15.932  57.422  1.00  0.00     0.210 HD
ENDBRANCH   6  22
TORSDOF 7
ENDMDL
MODEL 5
REMARK VINA RESULT: -3.789651822      1.835      4.442
REMARK  7 active torsions:
REMARK  status: ('A' for Active; 'I' for Inactive)
REMARK    1  A    between atoms: N1_2  and  C2_4 
REMARK    2  A    between atoms: C4_6  and  N2_7 
REMARK    3  A    between atoms: N2_7  and  C5_9 
REMARK    4  A    between atoms: C5_9  and  C6_10 
REMARK    5  A    between atoms: C6_10  and  N3_11 
REMARK    6  A    between atoms: C8_16  and  N4_17 
REMARK    7  A    between atoms: C9_21  and  O1_22 
ROOT
HETATM    1  C2  UNL     1      17.303  16.086  56.264  1.00  0.00     0.112 C 
HETATM    2  C3  UNL     1      17.644  17.208  55.334  1.00  0.00     0.052 C 
HETATM    3  C4  UNL     1      18.693  18.143  55.820  1.00  0.00     0.084 C 
HETATM    4  C7  UNL     1      18.505  18.637  57.235  1.00  0.00     0.060 C 
HETATM    5  C8  UNL     1      17.577  17.821  58.070  1.00  0.00     0.216 C 
HETATM    6  C9  UNL     1      17.558  16.370  57.713  1.00  0.00     0.171 C 
ENDROOT
BRANCH   3   7
HETATM    7  N2  UNL     1      20.035  17.770  55.673  1.00  0.00    -0.396 N 
ATOM      8  H2  UNL     1      20.471  17.714  54.753  1.00  0.00     0.159 HD
BRANCH   7   9
HETATM    9  C5  UNL     1      20.761  17.474  56.845  1.00  0.00     0.082 C 
BRANCH   9  10
HETATM   10  C6  UNL     1      21.252  16.061  56.858  1.00  0.00     0.273 C 
BRANCH  10  11
HETATM   11  N3  UNL     1      21.433  15.517  55.507  1.00  0.00    -0.075 N 
ATOM     12  H33 UNL     1      21.245  16.226  54.798  1.00  0.00     0.274 HD
ATOM     13  H32 UNL     1      22.419  15.345  55.311  1.00  0.00     0.274 HD
ATOM     14  H31 UNL     1      20.874  14.679  55.346  1.00  0.00     0.274 HD
ENDBRANCH  10  11
ENDBRANCH   9  10
ENDBRANCH   7   9
ENDBRANCH   3   7
BRANCH   1  15
HETATM   15  N1  UNL     1      17.959  14.857  55.866  1.00  0.00    -0.401 N 
HETATM   16  C1  UNL     1      18.004  14.467  54.652  1.00  0.00     0.112 C 
ATOM     17  H1  UNL     1      18.402  14.282  56.583  1.00  0.00     0.158 HD
ENDBRANCH   1  15
BRANCH   5  18
HETATM   18  N4  UNL     1      16.223  18.357  58.039  1.00  0.00    -0.072 N 
ATOM     19  H43 UNL     1      15.982  18.713  57.114  1.00  0.00     0.274 HD
ATOM     20  H42 UNL     1      15.526  17.616  58.109  1.00  0.00     0.274 HD
ATOM     21  H41 UNL     1      16.086  19.067  58.759  1.00  0.00     0.274 HD
ENDBRANCH   5  18
BRANCH   6  22
HETATM   22  O1  UNL     1      16.587  15.755  58.508  1.00  0.00    -0.391 OA
ATOM     23  H1  UNL     1      16.742  15.946  59.426  1.00  0.00     0.210 HD
ENDBRANCH   6  22
TORSDOF 7
ENDMDL
