MODEL 1
REMARK VINA RESULT: -4.621401181      0.000      0.000
REMARK  6 active torsions:
REMARK  status: ('A' for Active; 'I' for Inactive)
REMARK    1  A    between atoms: C3_3  and  N1_4 
REMARK    2  A    between atoms: N1_4  and  C4_7 
REMARK    3  A    between atoms: C4_7  and  C5_8 
REMARK    4  A    between atoms: C5_8  and  N2_9 
REMARK    5  A    between atoms: C6_10  and  N3_11 
REMARK    6  A    between atoms: C7_16  and  N5_17 
ROOT
HETATM    1  C1  UNL     1      17.799  14.377  54.875  1.00  0.00     0.013 C 
HETATM    2  C2  UNL     1      18.319  14.911  53.952  1.00  0.00    -0.090 C 
HETATM    3  C3  UNL     1      18.936  15.580  52.795  1.00  0.00     0.324 C 
ENDROOT
BRANCH   3   4
HETATM    4  N1  UNL     1      17.932  15.939  51.822  1.00  0.00    -0.064 N 
ATOM      5  H12 UNL     1      18.339  16.030  50.892  1.00  0.00     0.278 HD
ATOM      6  H11 UNL     1      17.296  15.162  51.647  1.00  0.00     0.278 HD
BRANCH   4   7
HETATM    7  C4  UNL     1      17.208  17.130  52.192  1.00  0.00     0.254 C 
BRANCH   7   8
HETATM    8  C5  UNL     1      17.118  18.057  51.003  1.00  0.00     0.180 C 
BRANCH   8   9
HETATM    9  N2  UNL     1      16.035  17.690  50.117  1.00  0.00    -0.130 N 
HETATM   10  C6  UNL     1      16.233  17.195  48.874  1.00  0.00     0.696 A 
HETATM   11  N4  UNL     1      15.209  16.867  48.068  1.00  0.00    -0.022 N 
HETATM   12  C7  UNL     1      13.956  17.026  48.482  1.00  0.00     0.694 A 
ATOM     13  H4  UNL     1      15.394  16.496  47.136  1.00  0.00     0.203 HD
HETATM   14  N6  UNL     1      13.721  17.511  49.700  1.00  0.00    -0.140 N 
HETATM   15  C8  UNL     1      14.760  17.842  50.513  1.00  0.00     0.355 A 
ATOM     16  H6  UNL     1      12.761  17.636  50.022  1.00  0.00     0.189 HD
HETATM   17  O1  UNL     1      14.440  18.292  51.646  1.00  0.00    -0.245 OA
BRANCH  10  18
HETATM   18  N3  UNL     1      17.451  17.043  48.474  1.00  0.00    -0.234 N 
ATOM     19  H32 UNL     1      17.929  16.152  48.609  1.00  0.00     0.174 HD
ATOM     20  H31 UNL     1      17.907  17.837  48.026  1.00  0.00     0.174 HD
ENDBRANCH  10  18
BRANCH  12  21
HETATM   21  N5  UNL     1      12.953  16.721  47.730  1.00  0.00    -0.234 N 
ATOM     22  H52 UNL     1      12.906  17.113  46.790  1.00  0.00     0.174 HD
ATOM     23  H51 UNL     1      12.211  16.100  48.055  1.00  0.00     0.174 HD
ENDBRANCH  12  21
ENDBRANCH   8   9
ENDBRANCH   7   8
ENDBRANCH   4   7
ENDBRANCH   3   4
TORSDOF 6
ENDMDL
MODEL 2
REMARK VINA RESULT: -4.569814695      6.395      8.069
REMARK  6 active torsions:
REMARK  status: ('A' for Active; 'I' for Inactive)
REMARK    1  A    between atoms: C3_3  and  N1_4 
REMARK    2  A    between atoms: N1_4  and  C4_7 
REMARK    3  A    between atoms: C4_7  and  C5_8 
REMARK    4  A    between atoms: C5_8  and  N2_9 
REMARK    5  A    between atoms: C6_10  and  N3_11 
REMARK    6  A    between atoms: C7_16  and  N5_17 
ROOT
HETATM    1  C1  UNL     1      17.149  19.531  62.624  1.00  0.00     0.013 C 
HETATM    2  C2  UNL     1      16.940  19.567  61.457  1.00  0.00    -0.090 C 
HETATM    3  C3  UNL     1      16.680  19.582  60.008  1.00  0.00     0.324 C 
ENDROOT
BRANCH   3   4
HETATM    4  N1  UNL     1      16.841  18.260  59.451  1.00  0.00    -0.064 N 
ATOM      5  H12 UNL     1      16.553  17.543  60.116  1.00  0.00     0.278 HD
ATOM      6  H11 UNL     1      16.157  18.085  58.716  1.00  0.00     0.278 HD
BRANCH   4   7
HETATM    7  C4  UNL     1      18.183  18.021  58.979  1.00  0.00     0.254 C 
BRANCH   7   8
HETATM    8  C5  UNL     1      18.215  18.115  57.473  1.00  0.00     0.180 C 
BRANCH   8   9
HETATM    9  N2  UNL     1      18.194  16.809  56.852  1.00  0.00    -0.130 N 
HETATM   10  C6  UNL     1      19.315  16.138  56.505  1.00  0.00     0.696 A 
HETATM   11  N4  UNL     1      19.268  14.927  55.923  1.00  0.00    -0.022 N 
HETATM   12  C7  UNL     1      18.096  14.352  55.671  1.00  0.00     0.694 A 
ATOM     13  H4  UNL     1      20.133  14.448  55.674  1.00  0.00     0.203 HD
HETATM   14  N6  UNL     1      16.969  14.983  55.999  1.00  0.00    -0.140 N 
HETATM   15  C8  UNL     1      17.021  16.208  56.587  1.00  0.00     0.355 A 
ATOM     16  H6  UNL     1      16.068  14.547  55.807  1.00  0.00     0.189 HD
HETATM   17  O1  UNL     1      15.905  16.726  56.861  1.00  0.00    -0.245 OA
BRANCH  10  18
HETATM   18  N3  UNL     1      20.451  16.699  56.750  1.00  0.00    -0.234 N 
ATOM     19  H32 UNL     1      21.270  16.471  56.185  1.00  0.00     0.174 HD
ATOM     20  H31 UNL     1      20.495  17.368  57.518  1.00  0.00     0.174 HD
ENDBRANCH  10  18
BRANCH  12  21
HETATM   21  N5  UNL     1      18.019  13.192  55.113  1.00  0.00    -0.234 N 
ATOM     22  H52 UNL     1      18.395  12.383  55.608  1.00  0.00     0.174 HD
ATOM     23  H51 UNL     1      17.592  13.068  54.195  1.00  0.00     0.174 HD
ENDBRANCH  12  21
ENDBRANCH   8   9
ENDBRANCH   7   8
ENDBRANCH   4   7
ENDBRANCH   3   4
TORSDOF 6
ENDMDL
MODEL 3
REMARK VINA RESULT: -4.536753196      6.125      9.651
REMARK  6 active torsions:
REMARK  status: ('A' for Active; 'I' for Inactive)
REMARK    1  A    between atoms: C3_3  and  N1_4 
REMARK    2  A    between atoms: N1_4  and  C4_7 
REMARK    3  A    between atoms: C4_7  and  C5_8 
REMARK    4  A    between atoms: C5_8  and  N2_9 
REMARK    5  A    between atoms: C6_10  and  N3_11 
REMARK    6  A    between atoms: C7_16  and  N5_17 
ROOT
HETATM    1  C1  UNL     1      16.899  13.640  55.804  1.00  0.00     0.013 C 
HETATM    2  C2  UNL     1      17.517  14.333  55.065  1.00  0.00    -0.090 C 
HETATM    3  C3  UNL     1      18.309  15.182  54.162  1.00  0.00     0.324 C 
ENDROOT
BRANCH   3   4
HETATM    4  N1  UNL     1      19.697  15.190  54.560  1.00  0.00    -0.064 N 
ATOM      5  H12 UNL     1      20.129  14.280  54.401  1.00  0.00     0.278 HD
ATOM      6  H11 UNL     1      20.259  15.752  53.922  1.00  0.00     0.278 HD
BRANCH   4   7
HETATM    7  C4  UNL     1      19.876  15.618  55.926  1.00  0.00     0.254 C 
BRANCH   7   8
HETATM    8  C5  UNL     1      21.074  16.532  56.016  1.00  0.00     0.180 C 
BRANCH   8   9
HETATM    9  N2  UNL     1      22.251  15.830  56.480  1.00  0.00    -0.130 N 
HETATM   10  C6  UNL     1      22.618  15.781  57.780  1.00  0.00     0.696 A 
HETATM   11  N4  UNL     1      23.720  15.126  58.184  1.00  0.00    -0.022 N 
HETATM   12  C7  UNL     1      24.488  14.501  57.297  1.00  0.00     0.694 A 
ATOM     13  H4  UNL     1      23.968  15.109  59.173  1.00  0.00     0.203 HD
HETATM   14  N6  UNL     1      24.159  14.528  56.007  1.00  0.00    -0.140 N 
HETATM   15  C8  UNL     1      23.043  15.191  55.601  1.00  0.00     0.355 A 
ATOM     16  H6  UNL     1      24.745  14.050  55.322  1.00  0.00     0.189 HD
HETATM   17  O1  UNL     1      22.813  15.160  54.363  1.00  0.00    -0.245 OA
BRANCH  10  18
HETATM   18  N3  UNL     1      21.871  16.389  58.639  1.00  0.00    -0.234 N 
ATOM     19  H32 UNL     1      21.468  15.878  59.424  1.00  0.00     0.174 HD
ATOM     20  H31 UNL     1      21.703  17.386  58.501  1.00  0.00     0.174 HD
ENDBRANCH  10  18
BRANCH  12  21
HETATM   21  N5  UNL     1      25.552  13.866  57.654  1.00  0.00    -0.234 N 
ATOM     22  H52 UNL     1      26.364  13.880  57.036  1.00  0.00     0.174 HD
ATOM     23  H51 UNL     1      25.598  13.354  58.536  1.00  0.00     0.174 HD
ENDBRANCH  12  21
ENDBRANCH   8   9
ENDBRANCH   7   8
ENDBRANCH   4   7
ENDBRANCH   3   4
TORSDOF 6
ENDMDL
MODEL 4
REMARK VINA RESULT: -4.505183849      5.391      6.446
REMARK  6 active torsions:
REMARK  status: ('A' for Active; 'I' for Inactive)
REMARK    1  A    between atoms: C3_3  and  N1_4 
REMARK    2  A    between atoms: N1_4  and  C4_7 
REMARK    3  A    between atoms: C4_7  and  C5_8 
REMARK    4  A    between atoms: C5_8  and  N2_9 
REMARK    5  A    between atoms: C6_10  and  N3_11 
REMARK    6  A    between atoms: C7_16  and  N5_17 
ROOT
HETATM    1  C1  UNL     1      16.827  13.618  55.846  1.00  0.00     0.013 C 
HETATM    2  C2  UNL     1      17.540  14.190  55.089  1.00  0.00    -0.090 C 
HETATM    3  C3  UNL     1      18.443  14.904  54.173  1.00  0.00     0.324 C 
ENDROOT
BRANCH   3   4
HETATM    4  N1  UNL     1      19.522  15.523  54.906  1.00  0.00    -0.064 N 
ATOM      5  H12 UNL     1      20.398  15.022  54.763  1.00  0.00     0.278 HD
ATOM      6  H11 UNL     1      19.778  16.421  54.494  1.00  0.00     0.278 HD
BRANCH   4   7
HETATM    7  C4  UNL     1      19.225  15.662  56.310  1.00  0.00     0.254 C 
BRANCH   7   8
HETATM    8  C5  UNL     1      19.189  17.125  56.678  1.00  0.00     0.180 C 
BRANCH   8   9
HETATM    9  N2  UNL     1      17.862  17.684  56.528  1.00  0.00    -0.130 N 
HETATM   10  C6  UNL     1      16.917  17.612  57.493  1.00  0.00     0.696 A 
HETATM   11  N4  UNL     1      15.690  18.135  57.326  1.00  0.00    -0.022 N 
HETATM   12  C7  UNL     1      15.373  18.746  56.188  1.00  0.00     0.694 A 
ATOM     13  H4  UNL     1      15.001  18.064  58.074  1.00  0.00     0.203 HD
HETATM   14  N6  UNL     1      16.278  18.836  55.215  1.00  0.00    -0.140 N 
HETATM   15  C8  UNL     1      17.519  18.306  55.387  1.00  0.00     0.355 A 
ATOM     16  H6  UNL     1      16.040  19.302  54.340  1.00  0.00     0.189 HD
HETATM   17  O1  UNL     1      18.306  18.440  54.412  1.00  0.00    -0.245 OA
BRANCH  10  18
HETATM   18  N3  UNL     1      17.228  17.019  58.595  1.00  0.00    -0.234 N 
ATOM     19  H32 UNL     1      17.140  16.006  58.677  1.00  0.00     0.174 HD
ATOM     20  H31 UNL     1      17.559  17.596  59.369  1.00  0.00     0.174 HD
ENDBRANCH  10  18
BRANCH  12  21
HETATM   21  N5  UNL     1      14.204  19.256  55.999  1.00  0.00    -0.234 N 
ATOM     22  H52 UNL     1      13.404  18.846  56.482  1.00  0.00     0.174 HD
ATOM     23  H51 UNL     1      14.064  20.056  55.382  1.00  0.00     0.174 HD
ENDBRANCH  12  21
ENDBRANCH   8   9
ENDBRANCH   7   8
ENDBRANCH   4   7
ENDBRANCH   3   4
TORSDOF 6
ENDMDL
MODEL 5
REMARK VINA RESULT: -4.372528749      6.615      7.807
REMARK  6 active torsions:
REMARK  status: ('A' for Active; 'I' for Inactive)
REMARK    1  A    between atoms: C3_3  and  N1_4 
REMARK    2  A    between atoms: N1_4  and  C4_7 
REMARK    3  A    between atoms: C4_7  and  C5_8 
REMARK    4  A    between atoms: C5_8  and  N2_9 
REMARK    5  A    between atoms: C6_10  and  N3_11 
REMARK    6  A    between atoms: C7_16  and  N5_17 
ROOT
HETATM    1  C1  UNL     1      22.077  15.475  58.744  1.00  0.00     0.013 C 
HETATM    2  C2  UNL     1      21.738  16.545  59.127  1.00  0.00    -0.090 C 
HETATM    3  C3  UNL     1      21.296  17.874  59.580  1.00  0.00     0.324 C 
ENDROOT
BRANCH   3   4
HETATM    4  N1  UNL     1      20.375  18.452  58.631  1.00  0.00    -0.064 N 
ATOM      5  H12 UNL     1      20.408  19.471  58.661  1.00  0.00     0.278 HD
ATOM      6  H11 UNL     1      20.693  18.307  57.673  1.00  0.00     0.278 HD
BRANCH   4   7
HETATM    7  C4  UNL     1      19.027  17.971  58.809  1.00  0.00     0.254 C 
BRANCH   7   8
HETATM    8  C5  UNL     1      18.290  18.033  57.493  1.00  0.00     0.180 C 
BRANCH   8   9
HETATM    9  N2  UNL     1      18.189  16.731  56.871  1.00  0.00    -0.130 N 
HETATM   10  C6  UNL     1      17.102  15.935  56.995  1.00  0.00     0.696 A 
HETATM   11  N4  UNL     1      17.037  14.726  56.411  1.00  0.00    -0.022 N 
HETATM   12  C7  UNL     1      18.057  14.278  55.686  1.00  0.00     0.694 A 
ATOM     13  H4  UNL     1      16.202  14.151  56.524  1.00  0.00     0.203 HD
HETATM   14  N6  UNL     1      19.144  15.034  55.542  1.00  0.00    -0.140 N 
HETATM   15  C8  UNL     1      19.208  16.256  56.134  1.00  0.00     0.355 A 
ATOM     16  H6  UNL     1      19.931  14.694  54.987  1.00  0.00     0.189 HD
HETATM   17  O1  UNL     1      20.275  16.898  55.941  1.00  0.00    -0.245 OA
BRANCH  10  18
HETATM   18  N3  UNL     1      16.114  16.372  57.700  1.00  0.00    -0.234 N 
ATOM     19  H32 UNL     1      15.471  17.063  57.312  1.00  0.00     0.174 HD
ATOM     20  H31 UNL     1      16.005  16.005  58.645  1.00  0.00     0.174 HD
ENDBRANCH  10  18
BRANCH  12  21
HETATM   21  N5  UNL     1      18.023  13.122  55.115  1.00  0.00    -0.234 N 
ATOM     22  H52 UNL     1      17.275  12.474  55.360  1.00  0.00     0.174 HD
ATOM     23  H51 UNL     1      18.724  12.846  54.427  1.00  0.00     0.174 HD
ENDBRANCH  12  21
ENDBRANCH   8   9
ENDBRANCH   7   8
ENDBRANCH   4   7
ENDBRANCH   3   4
TORSDOF 6
ENDMDL
