MODEL 1
REMARK VINA RESULT: -4.250085549      0.000      0.000
REMARK  4 active torsions:
REMARK  status: ('A' for Active; 'I' for Inactive)
REMARK    1  A    between atoms: C2_3  and  C3_4 
REMARK    2  A    between atoms: C2_3  and  N5_18 
REMARK    3  A    between atoms: C3_4  and  C4_5 
REMARK    4  A    between atoms: N5_18  and  C8_20 
ROOT
HETATM    1  N1  UNL     1      21.188  14.642  52.235  1.00  0.00    -0.195 NA
HETATM    2  C1  UNL     1      20.158  15.124  52.556  1.00  0.00     0.084 C 
HETATM    3  C2  UNL     1      18.915  15.695  52.993  1.00  0.00     0.192 C 
ENDROOT
BRANCH   3   4
HETATM    4  C3  UNL     1      18.266  14.800  54.070  1.00  0.00     0.141 C 
BRANCH   4   5
HETATM    5  C4  UNL     1      18.168  15.423  55.394  1.00  0.00     0.451 C 
HETATM    6  N2  UNL     1      17.070  14.960  56.222  1.00  0.00    -0.013 N 
HETATM    7  C5  UNL     1      16.848  16.025  57.214  1.00  0.00     0.272 C 
ATOM      8  H22 UNL     1      16.233  14.712  55.692  1.00  0.00     0.282 HD
ATOM      9  H21 UNL     1      17.226  14.041  56.635  1.00  0.00     0.282 HD
HETATM   10  C6  UNL     1      17.776  17.096  56.743  1.00  0.00     0.242 C 
HETATM   11  C7  UNL     1      19.191  16.688  57.064  1.00  0.00     0.272 C 
HETATM   12  N4  UNL     1      17.783  16.853  55.300  1.00  0.00    -0.008 N 
HETATM   13  N3  UNL     1      19.340  15.503  56.198  1.00  0.00    -0.013 N 
ATOM     14  H32 UNL     1      19.527  14.647  56.719  1.00  0.00     0.282 HD
ATOM     15  H31 UNL     1      20.201  15.513  55.650  1.00  0.00     0.282 HD
ATOM     16  H42 UNL     1      18.362  17.461  54.721  1.00  0.00     0.282 HD
ATOM     17  H41 UNL     1      16.937  17.080  54.778  1.00  0.00     0.282 HD
ENDBRANCH   4   5
ENDBRANCH   3   4
BRANCH   3  18
HETATM   18  N5  UNL     1      17.951  15.896  52.009  1.00  0.00    -0.378 N 
ATOM     19  H5  UNL     1      17.452  15.079  51.658  1.00  0.00     0.156 HD
BRANCH  18  20
HETATM   20  C8  UNL     1      17.622  17.137  51.473  1.00  0.00     0.306 A 
HETATM   21  C9  UNL     1      16.437  17.288  50.566  1.00  0.00     0.288 A 
HETATM   22  N6  UNL     1      17.760  17.392  50.047  1.00  0.00    -0.049 N 
ATOM     23  H62 UNL     1      18.247  18.106  49.506  1.00  0.00     0.279 HD
ATOM     24  H61 UNL     1      18.257  16.915  49.294  1.00  0.00     0.279 HD
ENDBRANCH  18  20
ENDBRANCH   3  18
TORSDOF 4
ENDMDL
MODEL 2
REMARK VINA RESULT: -4.237741974      1.436      1.810
REMARK  4 active torsions:
REMARK  status: ('A' for Active; 'I' for Inactive)
REMARK    1  A    between atoms: C2_3  and  C3_4 
REMARK    2  A    between atoms: C2_3  and  N5_18 
REMARK    3  A    between atoms: C3_4  and  C4_5 
REMARK    4  A    between atoms: N5_18  and  C8_20 
ROOT
HETATM    1  N1  UNL     1      20.312  18.034  51.339  1.00  0.00    -0.195 NA
HETATM    2  C1  UNL     1      19.394  17.404  51.732  1.00  0.00     0.084 C 
HETATM    3  C2  UNL     1      18.305  16.620  52.246  1.00  0.00     0.192 C 
ENDROOT
BRANCH   3   4
HETATM    4  C3  UNL     1      18.824  15.261  52.761  1.00  0.00     0.141 C 
BRANCH   4   5
HETATM    5  C4  UNL     1      18.784  15.113  54.219  1.00  0.00     0.451 C 
HETATM    6  N2  UNL     1      18.144  13.906  54.707  1.00  0.00    -0.013 N 
HETATM    7  C5  UNL     1      17.756  14.199  56.096  1.00  0.00     0.272 C 
ATOM      8  H22 UNL     1      17.369  13.588  54.123  1.00  0.00     0.282 HD
ATOM      9  H21 UNL     1      18.718  13.069  54.610  1.00  0.00     0.282 HD
HETATM   10  C6  UNL     1      18.090  15.649  56.220  1.00  0.00     0.242 C 
HETATM   11  C7  UNL     1      19.588  15.797  56.298  1.00  0.00     0.272 C 
HETATM   12  N4  UNL     1      17.880  16.108  54.846  1.00  0.00    -0.008 N 
HETATM   13  N3  UNL     1      19.982  15.322  54.958  1.00  0.00    -0.013 N 
ATOM     14  H32 UNL     1      20.583  14.499  54.986  1.00  0.00     0.282 HD
ATOM     15  H31 UNL     1      20.638  15.947  54.489  1.00  0.00     0.282 HD
ATOM     16  H42 UNL     1      18.050  17.094  54.646  1.00  0.00     0.282 HD
ATOM     17  H41 UNL     1      16.920  16.155  54.506  1.00  0.00     0.282 HD
ENDBRANCH   4   5
ENDBRANCH   3   4
BRANCH   3  18
HETATM   18  N5  UNL     1      17.274  16.341  51.353  1.00  0.00    -0.378 N 
ATOM     19  H5  UNL     1      16.821  15.430  51.421  1.00  0.00     0.156 HD
BRANCH  18  20
HETATM   20  C8  UNL     1      16.820  17.221  50.377  1.00  0.00     0.306 A 
HETATM   21  C9  UNL     1      15.583  16.913  49.585  1.00  0.00     0.288 A 
HETATM   22  N6  UNL     1      16.866  16.859  48.968  1.00  0.00    -0.049 N 
ATOM     23  H62 UNL     1      17.267  17.304  48.142  1.00  0.00     0.279 HD
ATOM     24  H61 UNL     1      17.363  16.136  48.446  1.00  0.00     0.279 HD
ENDBRANCH  18  20
ENDBRANCH   3  18
TORSDOF 4
ENDMDL
MODEL 3
REMARK VINA RESULT: -4.142638928      2.614      5.774
REMARK  4 active torsions:
REMARK  status: ('A' for Active; 'I' for Inactive)
REMARK    1  A    between atoms: C2_3  and  C3_4 
REMARK    2  A    between atoms: C2_3  and  N5_18 
REMARK    3  A    between atoms: C3_4  and  C4_5 
REMARK    4  A    between atoms: N5_18  and  C8_20 
ROOT
HETATM    1  N1  UNL     1      20.705  17.298  60.051  1.00  0.00    -0.195 NA
HETATM    2  C1  UNL     1      19.823  17.359  59.268  1.00  0.00     0.084 C 
HETATM    3  C2  UNL     1      18.769  17.393  58.292  1.00  0.00     0.192 C 
ENDROOT
BRANCH   3   4
HETATM    4  C3  UNL     1      19.328  17.062  56.892  1.00  0.00     0.141 C 
BRANCH   4   5
HETATM    5  C4  UNL     1      18.506  16.126  56.119  1.00  0.00     0.451 C 
HETATM    6  N2  UNL     1      17.303  15.658  56.784  1.00  0.00    -0.013 N 
HETATM    7  C5  UNL     1      16.940  14.404  56.104  1.00  0.00     0.272 C 
ATOM      8  H22 UNL     1      17.404  15.562  57.795  1.00  0.00     0.282 HD
ATOM      9  H21 UNL     1      16.551  16.347  56.803  1.00  0.00     0.282 HD
HETATM   10  C6  UNL     1      18.098  14.194  55.184  1.00  0.00     0.242 C 
HETATM   11  C7  UNL     1      18.002  15.180  54.049  1.00  0.00     0.272 C 
HETATM   12  N4  UNL     1      19.182  14.817  55.945  1.00  0.00    -0.008 N 
HETATM   13  N3  UNL     1      18.183  16.453  54.773  1.00  0.00    -0.013 N 
ATOM     14  H32 UNL     1      17.380  17.076  54.694  1.00  0.00     0.282 HD
ATOM     15  H31 UNL     1      18.869  17.068  54.335  1.00  0.00     0.282 HD
ATOM     16  H42 UNL     1      20.113  14.818  55.528  1.00  0.00     0.282 HD
ATOM     17  H41 UNL     1      19.505  14.337  56.785  1.00  0.00     0.282 HD
ENDBRANCH   4   5
ENDBRANCH   3   4
BRANCH   3  18
HETATM   18  N5  UNL     1      18.081  18.597  58.172  1.00  0.00    -0.378 N 
ATOM     19  H5  UNL     1      18.521  19.344  57.634  1.00  0.00     0.156 HD
BRANCH  18  20
HETATM   20  C8  UNL     1      16.836  18.850  58.736  1.00  0.00     0.306 A 
HETATM   21  C9  UNL     1      16.600  20.092  59.545  1.00  0.00     0.288 A 
HETATM   22  N6  UNL     1      16.651  18.817  60.179  1.00  0.00    -0.049 N 
ATOM     23  H62 UNL     1      16.010  18.313  60.793  1.00  0.00     0.279 HD
ATOM     24  H61 UNL     1      17.203  18.438  60.949  1.00  0.00     0.279 HD
ENDBRANCH  18  20
ENDBRANCH   3  18
TORSDOF 4
ENDMDL
MODEL 4
REMARK VINA RESULT: -4.090051284      4.088      7.460
REMARK  4 active torsions:
REMARK  status: ('A' for Active; 'I' for Inactive)
REMARK    1  A    between atoms: C2_3  and  C3_4 
REMARK    2  A    between atoms: C2_3  and  N5_18 
REMARK    3  A    between atoms: C3_4  and  C4_5 
REMARK    4  A    between atoms: N5_18  and  C8_20 
ROOT
HETATM    1  N1  UNL     1      17.072  21.973  58.912  1.00  0.00    -0.195 NA
HETATM    2  C1  UNL     1      17.141  20.800  59.038  1.00  0.00     0.084 C 
HETATM    3  C2  UNL     1      17.231  19.371  59.142  1.00  0.00     0.192 C 
ENDROOT
BRANCH   3   4
HETATM    4  C3  UNL     1      16.473  18.703  57.974  1.00  0.00     0.141 C 
BRANCH   4   5
HETATM    5  C4  UNL     1      17.094  17.469  57.479  1.00  0.00     0.451 C 
HETATM    6  N2  UNL     1      18.522  17.354  57.711  1.00  0.00    -0.013 N 
HETATM    7  C5  UNL     1      19.001  16.369  56.728  1.00  0.00     0.272 C 
ATOM      8  H22 UNL     1      19.017  18.245  57.674  1.00  0.00     0.282 HD
ATOM      9  H21 UNL     1      18.764  17.122  58.675  1.00  0.00     0.282 HD
HETATM   10  C6  UNL     1      17.781  16.123  55.902  1.00  0.00     0.242 C 
HETATM   11  C7  UNL     1      16.814  15.289  56.702  1.00  0.00     0.272 C 
HETATM   12  N4  UNL     1      17.108  17.419  55.997  1.00  0.00    -0.008 N 
HETATM   13  N3  UNL     1      16.480  16.225  57.794  1.00  0.00    -0.013 N 
ATOM     14  H32 UNL     1      16.738  15.873  58.715  1.00  0.00     0.282 HD
ATOM     15  H31 UNL     1      15.477  16.304  57.960  1.00  0.00     0.282 HD
ATOM     16  H42 UNL     1      16.217  17.526  55.512  1.00  0.00     0.282 HD
ATOM     17  H41 UNL     1      17.527  18.206  55.502  1.00  0.00     0.282 HD
ENDBRANCH   4   5
ENDBRANCH   3   4
BRANCH   3  18
HETATM   18  N5  UNL     1      16.734  18.807  60.313  1.00  0.00    -0.378 N 
ATOM     19  H5  UNL     1      16.669  17.790  60.361  1.00  0.00     0.156 HD
BRANCH  18  20
HETATM   20  C8  UNL     1      16.319  19.537  61.422  1.00  0.00     0.306 A 
HETATM   21  C9  UNL     1      17.073  19.455  62.717  1.00  0.00     0.288 A 
HETATM   22  N6  UNL     1      15.780  18.866  62.596  1.00  0.00    -0.049 N 
ATOM     23  H62 UNL     1      14.913  18.965  63.123  1.00  0.00     0.279 HD
ATOM     24  H61 UNL     1      15.419  17.927  62.763  1.00  0.00     0.279 HD
ENDBRANCH  18  20
ENDBRANCH   3  18
TORSDOF 4
ENDMDL
MODEL 5
REMARK VINA RESULT: -4.060056540      2.663      6.002
REMARK  4 active torsions:
REMARK  status: ('A' for Active; 'I' for Inactive)
REMARK    1  A    between atoms: C2_3  and  C3_4 
REMARK    2  A    between atoms: C2_3  and  N5_18 
REMARK    3  A    between atoms: C3_4  and  C4_5 
REMARK    4  A    between atoms: N5_18  and  C8_20 
ROOT
HETATM    1  N1  UNL     1      14.837  18.531  56.089  1.00  0.00    -0.195 NA
HETATM    2  C1  UNL     1      15.789  18.115  56.650  1.00  0.00     0.084 C 
HETATM    3  C2  UNL     1      16.957  17.582  57.293  1.00  0.00     0.192 C 
ENDROOT
BRANCH   3   4
HETATM    4  C3  UNL     1      17.105  16.079  56.970  1.00  0.00     0.141 C 
BRANCH   4   5
HETATM    5  C4  UNL     1      18.105  15.779  55.940  1.00  0.00     0.451 C 
HETATM    6  N2  UNL     1      19.463  15.606  56.422  1.00  0.00    -0.013 N 
HETATM    7  C5  UNL     1      20.328  15.838  55.254  1.00  0.00     0.272 C 
ATOM      8  H22 UNL     1      19.692  16.193  57.225  1.00  0.00     0.282 HD
ATOM      9  H21 UNL     1      19.624  14.709  56.880  1.00  0.00     0.282 HD
HETATM   10  C6  UNL     1      19.350  16.285  54.218  1.00  0.00     0.242 C 
HETATM   11  C7  UNL     1      18.552  15.093  53.757  1.00  0.00     0.272 C 
HETATM   12  N4  UNL     1      18.338  16.941  55.047  1.00  0.00    -0.008 N 
HETATM   13  N3  UNL     1      17.824  14.753  54.995  1.00  0.00    -0.013 N 
ATOM     14  H32 UNL     1      18.040  13.819  55.343  1.00  0.00     0.282 HD
ATOM     15  H31 UNL     1      16.825  14.609  54.846  1.00  0.00     0.282 HD
ATOM     16  H42 UNL     1      17.528  17.343  54.574  1.00  0.00     0.282 HD
ATOM     17  H41 UNL     1      18.586  17.829  55.482  1.00  0.00     0.282 HD
ENDBRANCH   4   5
ENDBRANCH   3   4
BRANCH   3  18
HETATM   18  N5  UNL     1      17.002  17.696  58.679  1.00  0.00    -0.378 N 
ATOM     19  H5  UNL     1      17.098  16.840  59.225  1.00  0.00     0.156 HD
BRANCH  18  20
HETATM   20  C8  UNL     1      16.926  18.900  59.371  1.00  0.00     0.306 A 
HETATM   21  C9  UNL     1      17.918  19.229  60.448  1.00  0.00     0.288 A 
HETATM   22  N6  UNL     1      16.565  18.928  60.781  1.00  0.00    -0.049 N 
ATOM     23  H62 UNL     1      15.847  19.421  61.312  1.00  0.00     0.279 HD
ATOM     24  H61 UNL     1      16.131  18.249  61.407  1.00  0.00     0.279 HD
ENDBRANCH  18  20
ENDBRANCH   3  18
TORSDOF 4
ENDMDL
