MODEL 1
REMARK VINA RESULT: -5.032635897      0.000      0.000
REMARK  6 active torsions:
REMARK  status: ('A' for Active; 'I' for Inactive)
REMARK    1  A    between atoms: N1_1  and  N2_4 
REMARK    2  A    between atoms: N2_4  and  C1_6 
REMARK    3  A    between atoms: C1_6  and  N3_7 
REMARK       I    between atoms: N3_7  and  C2_9 
REMARK       I    between atoms: C2_9  and  N5_11 
REMARK    4  A    between atoms: N5_11  and  N6_13 
REMARK    5  A    between atoms: N6_13  and  C3_15 
REMARK    6  A    between atoms: C3_15  and  C4_16 
ROOT
HETATM    1  N3  UNL     1      16.195  18.112  58.009  1.00  0.00    -0.324 N 
ATOM      2  H3  UNL     1      15.300  18.339  57.577  1.00  0.00     0.169 HD
HETATM    3  C2  UNL     1      16.763  16.836  57.824  1.00  0.00     0.208 C 
HETATM    4  N4  UNL     1      17.993  16.527  58.437  1.00  0.00    -0.062 NA
HETATM    5  N5  UNL     1      16.143  15.979  57.096  1.00  0.00    -0.274 N 
ATOM      6  H5  UNL     1      15.253  16.230  56.666  1.00  0.00     0.189 HD
ENDROOT
BRANCH   5   7
HETATM    7  N6  UNL     1      16.667  14.722  56.892  1.00  0.00    -0.307 N 
ATOM      8  H6  UNL     1      16.620  14.059  57.665  1.00  0.00     0.186 HD
BRANCH   7   9
HETATM    9  C3  UNL     1      17.211  14.327  55.801  1.00  0.00     0.140 C 
BRANCH   9  10
HETATM   10  C4  UNL     1      18.406  14.997  55.313  1.00  0.00     0.091 A 
HETATM   11  N7  UNL     1      19.583  15.118  55.909  1.00  0.00    -0.348 N 
HETATM   12  C5  UNL     1      20.455  15.804  55.158  1.00  0.00     0.182 A 
ATOM     13  H7  UNL     1      19.799  14.736  56.830  1.00  0.00     0.167 HD
HETATM   14  N8  UNL     1      19.789  16.127  54.036  1.00  0.00    -0.339 N 
HETATM   15  C6  UNL     1      18.535  15.652  54.092  1.00  0.00     0.145 A 
ATOM     16  H8  UNL     1      20.180  16.655  53.255  1.00  0.00     0.167 HD
HETATM   17  N9  UNL     1      17.514  15.778  53.110  1.00  0.00    -0.080 NA
ENDBRANCH   9  10
ENDBRANCH   7   9
ENDBRANCH   5   7
BRANCH   1  18
HETATM   18  C1  UNL     1      16.803  18.986  58.722  1.00  0.00     0.199 C 
BRANCH  18  19
HETATM   19  N2  UNL     1      16.806  18.801  60.143  1.00  0.00    -0.303 N 
ATOM     20  H2  UNL     1      15.937  18.737  60.674  1.00  0.00     0.187 HD
BRANCH  19  21
HETATM   21  N1  UNL     1      18.046  18.712  60.768  1.00  0.00    -0.344 N 
ATOM     22  H12 UNL     1      18.856  19.199  60.383  1.00  0.00     0.176 HD
ATOM     23  H11 UNL     1      18.100  18.145  61.614  1.00  0.00     0.176 HD
ENDBRANCH  19  21
ENDBRANCH  18  19
ENDBRANCH   1  18
TORSDOF 6
ENDMDL
MODEL 2
REMARK VINA RESULT: -4.901540761      2.206      4.909
REMARK  6 active torsions:
REMARK  status: ('A' for Active; 'I' for Inactive)
REMARK    1  A    between atoms: N1_1  and  N2_4 
REMARK    2  A    between atoms: N2_4  and  C1_6 
REMARK    3  A    between atoms: C1_6  and  N3_7 
REMARK       I    between atoms: N3_7  and  C2_9 
REMARK       I    between atoms: C2_9  and  N5_11 
REMARK    4  A    between atoms: N5_11  and  N6_13 
REMARK    5  A    between atoms: N6_13  and  C3_15 
REMARK    6  A    between atoms: C3_15  and  C4_16 
ROOT
HETATM    1  N3  UNL     1      16.717  14.429  56.884  1.00  0.00    -0.324 N 
ATOM      2  H3  UNL     1      16.617  13.788  57.670  1.00  0.00     0.169 HD
HETATM    3  C2  UNL     1      16.802  15.816  57.112  1.00  0.00     0.208 C 
HETATM    4  N4  UNL     1      16.926  16.695  56.018  1.00  0.00    -0.062 NA
HETATM    5  N5  UNL     1      16.765  16.252  58.320  1.00  0.00    -0.274 N 
ATOM      6  H5  UNL     1      16.674  15.592  59.093  1.00  0.00     0.189 HD
ENDROOT
BRANCH   5   7
HETATM    7  N6  UNL     1      16.847  17.601  58.582  1.00  0.00    -0.307 N 
ATOM      8  H6  UNL     1      16.020  18.169  58.397  1.00  0.00     0.186 HD
BRANCH   7   9
HETATM    9  C3  UNL     1      17.886  18.194  59.041  1.00  0.00     0.140 C 
BRANCH   9  10
HETATM   10  C4  UNL     1      19.188  17.908  58.461  1.00  0.00     0.091 A 
HETATM   11  N7  UNL     1      19.635  18.213  57.253  1.00  0.00    -0.348 N 
HETATM   12  C5  UNL     1      20.893  17.789  57.064  1.00  0.00     0.182 A 
ATOM     13  H7  UNL     1      19.088  18.710  56.550  1.00  0.00     0.167 HD
HETATM   14  N8  UNL     1      21.248  17.191  58.213  1.00  0.00    -0.339 N 
HETATM   15  C6  UNL     1      20.235  17.242  59.091  1.00  0.00     0.145 A 
ATOM     16  H8  UNL     1      22.155  16.760  58.393  1.00  0.00     0.167 HD
HETATM   17  N9  UNL     1      20.206  16.725  60.417  1.00  0.00    -0.080 NA
ENDBRANCH   9  10
ENDBRANCH   7   9
ENDBRANCH   5   7
BRANCH   1  18
HETATM   18  C1  UNL     1      16.764  13.973  55.687  1.00  0.00     0.199 C 
BRANCH  18  19
HETATM   19  N2  UNL     1      18.053  13.654  55.147  1.00  0.00    -0.303 N 
ATOM     20  H2  UNL     1      18.558  12.814  55.432  1.00  0.00     0.187 HD
BRANCH  19  21
HETATM   21  N1  UNL     1      18.587  14.542  54.218  1.00  0.00    -0.344 N 
ATOM     22  H12 UNL     1      18.578  15.546  54.397  1.00  0.00     0.176 HD
ATOM     23  H11 UNL     1      18.980  14.142  53.366  1.00  0.00     0.176 HD
ENDBRANCH  19  21
ENDBRANCH  18  19
ENDBRANCH   1  18
TORSDOF 6
ENDMDL
MODEL 3
REMARK VINA RESULT: -4.748365172      1.906      6.444
REMARK  6 active torsions:
REMARK  status: ('A' for Active; 'I' for Inactive)
REMARK    1  A    between atoms: N1_1  and  N2_4 
REMARK    2  A    between atoms: N2_4  and  C1_6 
REMARK    3  A    between atoms: C1_6  and  N3_7 
REMARK       I    between atoms: N3_7  and  C2_9 
REMARK       I    between atoms: C2_9  and  N5_11 
REMARK    4  A    between atoms: N5_11  and  N6_13 
REMARK    5  A    between atoms: N6_13  and  C3_15 
REMARK    6  A    between atoms: C3_15  and  C4_16 
ROOT
HETATM    1  N3  UNL     1      16.736  14.562  56.968  1.00  0.00    -0.324 N 
ATOM      2  H3  UNL     1      16.696  13.999  57.817  1.00  0.00     0.169 HD
HETATM    3  C2  UNL     1      16.751  15.967  57.054  1.00  0.00     0.208 C 
HETATM    4  N4  UNL     1      16.792  16.737  55.875  1.00  0.00    -0.062 NA
HETATM    5  N5  UNL     1      16.726  16.520  58.214  1.00  0.00    -0.274 N 
ATOM      6  H5  UNL     1      16.695  15.937  59.051  1.00  0.00     0.189 HD
ENDROOT
BRANCH   5   7
HETATM    7  N6  UNL     1      16.739  17.891  58.338  1.00  0.00    -0.307 N 
ATOM      8  H6  UNL     1      16.210  18.433  57.655  1.00  0.00     0.186 HD
BRANCH   7   9
HETATM    9  C3  UNL     1      17.369  18.535  59.249  1.00  0.00     0.140 C 
BRANCH   9  10
HETATM   10  C4  UNL     1      16.622  19.321  60.217  1.00  0.00     0.091 A 
HETATM   11  N7  UNL     1      16.436  19.079  61.506  1.00  0.00    -0.348 N 
HETATM   12  C5  UNL     1      15.688  20.026  62.089  1.00  0.00     0.182 A 
ATOM     13  H7  UNL     1      16.815  18.269  61.996  1.00  0.00     0.167 HD
HETATM   14  N8  UNL     1      15.394  20.904  61.115  1.00  0.00    -0.339 N 
HETATM   15  C6  UNL     1      15.945  20.509  59.958  1.00  0.00     0.145 A 
ATOM     16  H8  UNL     1      14.834  21.747  61.238  1.00  0.00     0.167 HD
HETATM   17  N9  UNL     1      15.870  21.158  58.693  1.00  0.00    -0.080 NA
ENDBRANCH   9  10
ENDBRANCH   7   9
ENDBRANCH   5   7
BRANCH   1  18
HETATM   18  C1  UNL     1      16.772  13.990  55.821  1.00  0.00     0.199 C 
BRANCH  18  19
HETATM   19  N2  UNL     1      18.060  13.671  55.278  1.00  0.00    -0.303 N 
ATOM     20  H2  UNL     1      18.586  12.856  55.595  1.00  0.00     0.187 HD
BRANCH  19  21
HETATM   21  N1  UNL     1      18.562  14.523  54.298  1.00  0.00    -0.344 N 
ATOM     22  H12 UNL     1      19.476  14.350  53.880  1.00  0.00     0.176 HD
ATOM     23  H11 UNL     1      17.977  15.314  54.027  1.00  0.00     0.176 HD
ENDBRANCH  19  21
ENDBRANCH  18  19
ENDBRANCH   1  18
TORSDOF 6
ENDMDL
MODEL 4
REMARK VINA RESULT: -4.697589326      2.240      3.661
REMARK  6 active torsions:
REMARK  status: ('A' for Active; 'I' for Inactive)
REMARK    1  A    between atoms: N1_1  and  N2_4 
REMARK    2  A    between atoms: N2_4  and  C1_6 
REMARK    3  A    between atoms: C1_6  and  N3_7 
REMARK       I    between atoms: N3_7  and  C2_9 
REMARK       I    between atoms: C2_9  and  N5_11 
REMARK    4  A    between atoms: N5_11  and  N6_13 
REMARK    5  A    between atoms: N6_13  and  C3_15 
REMARK    6  A    between atoms: C3_15  and  C4_16 
ROOT
HETATM    1  N3  UNL     1      15.260  20.088  57.245  1.00  0.00    -0.324 N 
ATOM      2  H3  UNL     1      15.515  20.737  57.988  1.00  0.00     0.169 HD
HETATM    3  C2  UNL     1      15.735  18.762  57.274  1.00  0.00     0.208 C 
HETATM    4  N4  UNL     1      15.389  17.876  56.236  1.00  0.00    -0.062 NA
HETATM    5  N5  UNL     1      16.480  18.390  58.252  1.00  0.00    -0.274 N 
ATOM      6  H5  UNL     1      16.716  19.054  58.990  1.00  0.00     0.189 HD
ENDROOT
BRANCH   5   7
HETATM    7  N6  UNL     1      16.964  17.102  58.315  1.00  0.00    -0.307 N 
ATOM      8  H6  UNL     1      16.495  16.451  58.945  1.00  0.00     0.186 HD
BRANCH   7   9
HETATM    9  C3  UNL     1      17.960  16.663  57.639  1.00  0.00     0.140 C 
BRANCH   9  10
HETATM   10  C4  UNL     1      17.772  15.541  56.734  1.00  0.00     0.091 A 
HETATM   11  N7  UNL     1      16.664  14.858  56.489  1.00  0.00    -0.348 N 
HETATM   12  C5  UNL     1      16.866  13.884  55.591  1.00  0.00     0.182 A 
ATOM     13  H7  UNL     1      15.765  15.051  56.930  1.00  0.00     0.167 HD
HETATM   14  N8  UNL     1      18.165  13.963  55.259  1.00  0.00    -0.339 N 
HETATM   15  C6  UNL     1      18.753  14.962  55.935  1.00  0.00     0.145 A 
ATOM     16  H8  UNL     1      18.636  13.354  54.590  1.00  0.00     0.167 HD
HETATM   17  N9  UNL     1      20.114  15.372  55.870  1.00  0.00    -0.080 NA
ENDBRANCH   9  10
ENDBRANCH   7   9
ENDBRANCH   5   7
BRANCH   1  18
HETATM   18  C1  UNL     1      14.506  20.477  56.285  1.00  0.00     0.199 C 
BRANCH  18  19
HETATM   19  N2  UNL     1      13.239  19.824  56.128  1.00  0.00    -0.303 N 
ATOM     20  H2  UNL     1      13.143  18.973  55.573  1.00  0.00     0.187 HD
BRANCH  19  21
HETATM   21  N1  UNL     1      12.146  20.403  56.765  1.00  0.00    -0.344 N 
ATOM     22  H12 UNL     1      11.438  19.821  57.212  1.00  0.00     0.176 HD
ATOM     23  H11 UNL     1      12.091  21.422  56.759  1.00  0.00     0.176 HD
ENDBRANCH  19  21
ENDBRANCH  18  19
ENDBRANCH   1  18
TORSDOF 6
ENDMDL
MODEL 5
REMARK VINA RESULT: -4.678272192      1.266      2.188
REMARK  6 active torsions:
REMARK  status: ('A' for Active; 'I' for Inactive)
REMARK    1  A    between atoms: N1_1  and  N2_4 
REMARK    2  A    between atoms: N2_4  and  C1_6 
REMARK    3  A    between atoms: C1_6  and  N3_7 
REMARK       I    between atoms: N3_7  and  C2_9 
REMARK       I    between atoms: C2_9  and  N5_11 
REMARK    4  A    between atoms: N5_11  and  N6_13 
REMARK    5  A    between atoms: N6_13  and  C3_15 
REMARK    6  A    between atoms: C3_15  and  C4_16 
ROOT
HETATM    1  N3  UNL     1      16.847  17.957  58.744  1.00  0.00    -0.324 N 
ATOM      2  H3  UNL     1      16.948  17.521  59.660  1.00  0.00     0.169 HD
HETATM    3  C2  UNL     1      16.629  17.160  57.604  1.00  0.00     0.208 C 
HETATM    4  N4  UNL     1      16.505  17.770  56.341  1.00  0.00    -0.062 NA
HETATM    5  N5  UNL     1      16.549  15.885  57.742  1.00  0.00    -0.274 N 
ATOM      6  H5  UNL     1      16.644  15.470  58.670  1.00  0.00     0.189 HD
ENDROOT
BRANCH   5   7
HETATM    7  N6  UNL     1      16.336  15.073  56.651  1.00  0.00    -0.307 N 
ATOM      8  H6  UNL     1      15.431  15.135  56.185  1.00  0.00     0.186 HD
BRANCH   7   9
HETATM    9  C3  UNL     1      17.193  14.245  56.179  1.00  0.00     0.140 C 
BRANCH   9  10
HETATM   10  C4  UNL     1      18.264  14.732  55.325  1.00  0.00     0.091 A 
HETATM   11  N7  UNL     1      18.362  14.662  54.007  1.00  0.00    -0.348 N 
HETATM   12  C5  UNL     1      19.495  15.220  53.559  1.00  0.00     0.182 A 
ATOM     13  H7  UNL     1      17.659  14.234  53.404  1.00  0.00     0.167 HD
HETATM   14  N8  UNL     1      20.136  15.662  54.654  1.00  0.00    -0.339 N 
HETATM   15  C6  UNL     1      19.418  15.383  55.752  1.00  0.00     0.145 A 
ATOM     16  H8  UNL     1      21.038  16.139  54.651  1.00  0.00     0.167 HD
HETATM   17  N9  UNL     1      19.746  15.682  57.104  1.00  0.00    -0.080 NA
ENDBRANCH   9  10
ENDBRANCH   7   9
ENDBRANCH   5   7
BRANCH   1  18
HETATM   18  C1  UNL     1      16.918  19.232  58.630  1.00  0.00     0.199 C 
BRANCH  18  19
HETATM   19  N2  UNL     1      15.692  19.973  58.676  1.00  0.00    -0.303 N 
ATOM     20  H2  UNL     1      15.241  20.203  59.562  1.00  0.00     0.187 HD
BRANCH  19  21
HETATM   21  N1  UNL     1      15.143  20.365  57.459  1.00  0.00    -0.344 N 
ATOM     22  H12 UNL     1      15.698  20.895  56.787  1.00  0.00     0.176 HD
ATOM     23  H11 UNL     1      14.175  20.099  57.279  1.00  0.00     0.176 HD
ENDBRANCH  19  21
ENDBRANCH  18  19
ENDBRANCH   1  18
TORSDOF 6
ENDMDL
