MODEL 1
REMARK VINA RESULT: -6.224096178      0.000      0.000
REMARK  5 active torsions:
REMARK  status: ('A' for Active; 'I' for Inactive)
REMARK    1  A    between atoms: N4_10  and  C4_11 
REMARK    2  A    between atoms: C4_11  and  O1_12 
REMARK    3  A    between atoms: C4_11  and  C5_14 
REMARK    4  A    between atoms: C5_14  and  N5_15 
REMARK    5  A    between atoms: N5_15  and  N6_16 
REMARK       I    between atoms: N6_16  and  C6_18 
ROOT
HETATM    1  C1  UNL     1      -5.100  14.200   3.331  1.00  0.00     0.158 C 
HETATM    2  N1  UNL     1      -4.109  13.852   4.307  1.00  0.00    -0.330 N 
HETATM    3  C2  UNL     1      -3.723  14.664   5.304  1.00  0.00     0.141 A 
HETATM    4  N2  UNL     1      -4.079  15.899   5.743  1.00  0.00    -0.175 N 
ATOM      5  H2  UNL     1      -4.783  16.420   5.219  1.00  0.00     0.186 HD
HETATM    6  C3  UNL     1      -3.548  16.459   6.830  1.00  0.00     0.688 A 
HETATM    7  N3  UNL     1      -3.933  17.623   7.173  1.00  0.00    -0.234 N 
ATOM      8  H31 UNL     1      -3.527  18.051   8.004  1.00  0.00     0.174 HD
ATOM      9  H32 UNL     1      -4.636  18.122   6.627  1.00  0.00     0.174 HD
HETATM   10  N4  UNL     1      -2.583  15.774   7.580  1.00  0.00    -0.092 N 
HETATM   11  C7  UNL     1      -2.237  14.566   7.135  1.00  0.00     0.284 A 
HETATM   12  O2  UNL     1      -1.345  13.897   7.761  1.00  0.00    -0.266 OA
HETATM   13  C8  UNL     1      -2.770  13.981   6.029  1.00  0.00     0.107 A 
HETATM   14  C9  UNL     1      -2.592  12.730   5.442  1.00  0.00     0.085 A 
HETATM   15  N9  UNL     1      -1.833  11.653   5.717  1.00  0.00    -0.349 N 
ATOM     16  H9  UNL     1      -1.199  11.691   6.515  1.00  0.00     0.166 HD
HETATM   17  C10 UNL     1      -1.880  10.515   4.973  1.00  0.00     0.184 A 
HETATM   18  N10 UNL     1      -2.713  10.428   3.891  1.00  0.00    -0.318 N 
ATOM     19  H10 UNL     1      -2.758   9.583   3.322  1.00  0.00     0.169 HD
HETATM   20  C11 UNL     1      -3.471  11.501   3.606  1.00  0.00     0.275 A 
HETATM   21  O3  UNL     1      -4.251  11.453   2.616  1.00  0.00    -0.266 OA
HETATM   22  C12 UNL     1      -3.444  12.674   4.359  1.00  0.00     0.132 A 
ENDROOT
BRANCH  10  23
HETATM   23  C4  UNL     1      -2.120  16.410   8.740  1.00  0.00     0.159 C 
BRANCH  23  24
HETATM   24  O1  UNL     1      -2.900  16.292   9.805  1.00  0.00    -0.347 OA
ATOM     25  H1  UNL     1      -2.842  17.001  10.435  1.00  0.00     0.219 HD
ENDBRANCH  23  24
BRANCH  23  26
HETATM   26  C5  UNL     1      -0.936  17.190   9.012  1.00  0.00     0.220 C 
BRANCH  26  27
HETATM   27  N5  UNL     1      -0.654  18.091   7.910  1.00  0.00    -0.131 NA
BRANCH  27  28
HETATM   28  N6  UNL     1       0.503  17.767   7.204  1.00  0.00    -0.277 N 
HETATM   29  C6  UNL     1       1.271  16.598   7.377  1.00  0.00     0.197 C 
HETATM   30  N7  UNL     1       0.954  15.567   6.733  1.00  0.00    -0.373 N 
HETATM   31  N8  UNL     1       2.404  16.532   8.244  1.00  0.00    -0.063 NA
ATOM     32  H72 UNL     1       0.145  15.615   6.113  1.00  0.00     0.158 HD
ATOM     33  H71 UNL     1       1.510  14.721   6.858  1.00  0.00     0.158 HD
ATOM     34  H6  UNL     1       0.821  18.434   6.501  1.00  0.00     0.185 HD
ENDBRANCH  27  28
ENDBRANCH  26  27
ENDBRANCH  23  26
ENDBRANCH  10  23
TORSDOF 5
ENDMDL
MODEL 2
REMARK VINA RESULT: -6.029169303      3.873      5.966
REMARK  5 active torsions:
REMARK  status: ('A' for Active; 'I' for Inactive)
REMARK    1  A    between atoms: N4_10  and  C4_11 
REMARK    2  A    between atoms: C4_11  and  O1_12 
REMARK    3  A    between atoms: C4_11  and  C5_14 
REMARK    4  A    between atoms: C5_14  and  N5_15 
REMARK    5  A    between atoms: N5_15  and  N6_16 
REMARK       I    between atoms: N6_16  and  C6_18 
ROOT
HETATM    1  C1  UNL     1      -7.682  13.849   8.787  1.00  0.00     0.158 C 
HETATM    2  N1  UNL     1      -6.937  14.905   9.410  1.00  0.00    -0.330 N 
HETATM    3  C2  UNL     1      -5.787  15.397   8.923  1.00  0.00     0.141 A 
HETATM    4  N2  UNL     1      -5.024  15.171   7.823  1.00  0.00    -0.175 N 
ATOM      5  H2  UNL     1      -5.307  14.437   7.173  1.00  0.00     0.186 HD
HETATM    6  C3  UNL     1      -3.919  15.869   7.556  1.00  0.00     0.688 A 
HETATM    7  N3  UNL     1      -3.256  15.593   6.505  1.00  0.00    -0.234 N 
ATOM      8  H31 UNL     1      -2.412  16.127   6.301  1.00  0.00     0.174 HD
ATOM      9  H32 UNL     1      -3.562  14.851   5.876  1.00  0.00     0.174 HD
HETATM   10  N4  UNL     1      -3.500  16.889   8.420  1.00  0.00    -0.092 N 
HETATM   11  C7  UNL     1      -4.254  17.096   9.500  1.00  0.00     0.284 A 
HETATM   12  O2  UNL     1      -3.915  17.998  10.341  1.00  0.00    -0.266 OA
HETATM   13  C8  UNL     1      -5.384  16.393   9.786  1.00  0.00     0.107 A 
HETATM   14  C9  UNL     1      -6.325  16.491  10.808  1.00  0.00     0.085 A 
HETATM   15  N9  UNL     1      -6.472  17.279  11.890  1.00  0.00    -0.349 N 
ATOM     16  H9  UNL     1      -5.757  17.980  12.086  1.00  0.00     0.166 HD
HETATM   17  C10 UNL     1      -7.536  17.176  12.731  1.00  0.00     0.184 A 
HETATM   18  N10 UNL     1      -8.511  16.244  12.504  1.00  0.00    -0.318 N 
ATOM     19  H10 UNL     1      -9.314  16.154  13.127  1.00  0.00     0.169 HD
HETATM   20  C11 UNL     1      -8.370  15.450  11.428  1.00  0.00     0.275 A 
HETATM   21  O3  UNL     1      -9.252  14.581  11.190  1.00  0.00    -0.266 OA
HETATM   22  C12 UNL     1      -7.292  15.543  10.550  1.00  0.00     0.132 A 
ENDROOT
BRANCH  10  23
HETATM   23  C4  UNL     1      -2.363  17.612   8.034  1.00  0.00     0.159 C 
BRANCH  23  24
HETATM   24  O1  UNL     1      -2.555  18.513   7.082  1.00  0.00    -0.347 OA
ATOM     25  H1  UNL     1      -1.831  19.109   6.930  1.00  0.00     0.219 HD
ENDBRANCH  23  24
BRANCH  23  26
HETATM   26  C5  UNL     1      -0.989  17.567   8.476  1.00  0.00     0.220 C 
BRANCH  26  27
HETATM   27  N5  UNL     1      -0.152  18.391   7.624  1.00  0.00    -0.131 NA
BRANCH  27  28
HETATM   28  N6  UNL     1       1.037  17.773   7.239  1.00  0.00    -0.277 N 
HETATM   29  C6  UNL     1       1.437  16.469   7.595  1.00  0.00     0.197 C 
HETATM   30  N7  UNL     1       1.059  15.506   6.882  1.00  0.00    -0.373 N 
HETATM   31  N8  UNL     1       2.263  16.189   8.726  1.00  0.00    -0.063 NA
ATOM     32  H72 UNL     1       0.469  15.706   6.074  1.00  0.00     0.158 HD
ATOM     33  H71 UNL     1       1.349  14.562   7.140  1.00  0.00     0.158 HD
ATOM     34  H6  UNL     1       1.671  18.310   6.648  1.00  0.00     0.185 HD
ENDBRANCH  27  28
ENDBRANCH  26  27
ENDBRANCH  23  26
ENDBRANCH  10  23
TORSDOF 5
ENDMDL
MODEL 3
REMARK VINA RESULT: -6.025691489      3.017      4.136
REMARK  5 active torsions:
REMARK  status: ('A' for Active; 'I' for Inactive)
REMARK    1  A    between atoms: N4_10  and  C4_11 
REMARK    2  A    between atoms: C4_11  and  O1_12 
REMARK    3  A    between atoms: C4_11  and  C5_14 
REMARK    4  A    between atoms: C5_14  and  N5_15 
REMARK    5  A    between atoms: N5_15  and  N6_16 
REMARK       I    between atoms: N6_16  and  C6_18 
ROOT
HETATM    1  C1  UNL     1       2.699  11.271   4.441  1.00  0.00     0.158 C 
HETATM    2  N1  UNL     1       1.425  11.908   4.274  1.00  0.00    -0.330 N 
HETATM    3  C2  UNL     1       0.747  12.498   5.270  1.00  0.00     0.141 A 
HETATM    4  N2  UNL     1       0.969  12.733   6.590  1.00  0.00    -0.175 N 
ATOM      5  H2  UNL     1       1.824  12.372   7.013  1.00  0.00     0.186 HD
HETATM    6  C3  UNL     1       0.116  13.415   7.354  1.00  0.00     0.688 A 
HETATM    7  N3  UNL     1       0.395  13.588   8.584  1.00  0.00    -0.234 N 
ATOM      8  H31 UNL     1      -0.257  14.110   9.169  1.00  0.00     0.174 HD
ATOM      9  H32 UNL     1       1.256  13.212   8.981  1.00  0.00     0.174 HD
HETATM   10  N4  UNL     1      -1.067  13.932   6.808  1.00  0.00    -0.092 N 
HETATM   11  C7  UNL     1      -1.276  13.689   5.515  1.00  0.00     0.284 A 
HETATM   12  O2  UNL     1      -2.347  14.115   4.960  1.00  0.00    -0.266 OA
HETATM   13  C8  UNL     1      -0.415  12.996   4.721  1.00  0.00     0.107 A 
HETATM   14  C9  UNL     1      -0.420  12.690   3.362  1.00  0.00     0.085 A 
HETATM   15  N9  UNL     1      -1.258  12.935   2.338  1.00  0.00    -0.349 N 
ATOM     16  H9  UNL     1      -2.125  13.440   2.524  1.00  0.00     0.166 HD
HETATM   17  C10 UNL     1      -0.994  12.536   1.065  1.00  0.00     0.184 A 
HETATM   18  N10 UNL     1       0.155  11.850   0.778  1.00  0.00    -0.318 N 
ATOM     19  H10 UNL     1       0.365  11.543  -0.172  1.00  0.00     0.169 HD
HETATM   20  C11 UNL     1       0.995  11.598   1.795  1.00  0.00     0.275 A 
HETATM   21  O3  UNL     1       2.064  10.969   1.564  1.00  0.00    -0.266 OA
HETATM   22  C12 UNL     1       0.748  12.004   3.106  1.00  0.00     0.132 A 
ENDROOT
BRANCH  10  23
HETATM   23  C4  UNL     1      -1.878  14.687   7.667  1.00  0.00     0.159 C 
BRANCH  23  24
HETATM   24  O1  UNL     1      -2.567  13.991   8.559  1.00  0.00    -0.347 OA
ATOM     25  H1  UNL     1      -3.245  14.473   9.018  1.00  0.00     0.219 HD
ENDBRANCH  23  24
BRANCH  23  26
HETATM   26  C5  UNL     1      -2.121  16.107   7.773  1.00  0.00     0.220 C 
BRANCH  26  27
HETATM   27  N5  UNL     1      -1.086  16.854   7.083  1.00  0.00    -0.131 NA
BRANCH  27  28
HETATM   28  N6  UNL     1      -0.118  17.387   7.933  1.00  0.00    -0.277 N 
HETATM   29  C6  UNL     1       1.275  17.345   7.721  1.00  0.00     0.197 C 
HETATM   30  N7  UNL     1       1.808  18.256   7.039  1.00  0.00    -0.373 N 
HETATM   31  N8  UNL     1       2.114  16.321   8.254  1.00  0.00    -0.063 NA
ATOM     32  H72 UNL     1       1.208  18.988   6.658  1.00  0.00     0.158 HD
ATOM     33  H71 UNL     1       2.816  18.226   6.884  1.00  0.00     0.158 HD
ATOM     34  H6  UNL     1      -0.447  17.846   8.782  1.00  0.00     0.185 HD
ENDBRANCH  27  28
ENDBRANCH  26  27
ENDBRANCH  23  26
ENDBRANCH  10  23
TORSDOF 5
ENDMDL
MODEL 4
REMARK VINA RESULT: -5.997389814      3.179      6.532
REMARK  5 active torsions:
REMARK  status: ('A' for Active; 'I' for Inactive)
REMARK    1  A    between atoms: N4_10  and  C4_11 
REMARK    2  A    between atoms: C4_11  and  O1_12 
REMARK    3  A    between atoms: C4_11  and  C5_14 
REMARK    4  A    between atoms: C5_14  and  N5_15 
REMARK    5  A    between atoms: N5_15  and  N6_16 
REMARK       I    between atoms: N6_16  and  C6_18 
ROOT
HETATM    1  C1  UNL     1      -1.942  13.966  11.056  1.00  0.00     0.158 C 
HETATM    2  N1  UNL     1      -1.497  14.404   9.765  1.00  0.00    -0.330 N 
HETATM    3  C2  UNL     1      -0.911  13.602   8.863  1.00  0.00     0.141 A 
HETATM    4  N2  UNL     1      -0.598  12.281   8.798  1.00  0.00    -0.175 N 
ATOM      5  H2  UNL     1      -0.793  11.692   9.607  1.00  0.00     0.186 HD
HETATM    6  C3  UNL     1      -0.048  11.723   7.719  1.00  0.00     0.688 A 
HETATM    7  N3  UNL     1       0.218  10.479   7.737  1.00  0.00    -0.234 N 
ATOM      8  H31 UNL     1       0.639  10.052   6.913  1.00  0.00     0.174 HD
ATOM      9  H32 UNL     1       0.016   9.915   8.563  1.00  0.00     0.174 HD
HETATM   10  N4  UNL     1       0.229  12.499   6.584  1.00  0.00    -0.092 N 
HETATM   11  C7  UNL     1      -0.075  13.793   6.665  1.00  0.00     0.284 A 
HETATM   12  O2  UNL     1       0.173  14.561   5.672  1.00  0.00    -0.266 OA
HETATM   13  C8  UNL     1      -0.638  14.377   7.757  1.00  0.00     0.107 A 
HETATM   14  C9  UNL     1      -1.078  15.673   8.016  1.00  0.00     0.085 A 
HETATM   15  N9  UNL     1      -1.101  16.824   7.317  1.00  0.00    -0.349 N 
ATOM     16  H9  UNL     1      -0.704  16.835   6.378  1.00  0.00     0.166 HD
HETATM   17  C10 UNL     1      -1.635  17.972   7.815  1.00  0.00     0.184 A 
HETATM   18  N10 UNL     1      -2.172  17.997   9.074  1.00  0.00    -0.318 N 
ATOM     19  H10 UNL     1      -2.573  18.851   9.461  1.00  0.00     0.169 HD
HETATM   20  C11 UNL     1      -2.149  16.853   9.780  1.00  0.00     0.275 A 
HETATM   21  O3  UNL     1      -2.637  16.843  10.943  1.00  0.00    -0.266 OA
HETATM   22  C12 UNL     1      -1.613  15.665   9.286  1.00  0.00     0.132 A 
ENDROOT
BRANCH  10  23
HETATM   23  C4  UNL     1       0.753  11.822   5.473  1.00  0.00     0.159 C 
BRANCH  23  24
HETATM   24  O1  UNL     1      -0.140  11.235   4.691  1.00  0.00    -0.347 OA
ATOM     25  H1  UNL     1       0.210  10.604   4.072  1.00  0.00     0.219 HD
ENDBRANCH  23  24
BRANCH  23  26
HETATM   26  C5  UNL     1       2.104  11.629   5.003  1.00  0.00     0.220 C 
BRANCH  26  27
HETATM   27  N5  UNL     1       2.269  12.195   3.677  1.00  0.00    -0.131 NA
BRANCH  27  28
HETATM   28  N6  UNL     1       1.689  13.454   3.530  1.00  0.00    -0.277 N 
HETATM   29  C6  UNL     1       0.812  13.839   2.496  1.00  0.00     0.197 C 
HETATM   30  N7  UNL     1      -0.418  13.624   2.637  1.00  0.00    -0.373 N 
HETATM   31  N8  UNL     1       1.253  14.473   1.295  1.00  0.00    -0.063 NA
ATOM     32  H72 UNL     1      -0.733  13.171   3.495  1.00  0.00     0.158 HD
ATOM     33  H71 UNL     1      -1.054  13.902   1.889  1.00  0.00     0.158 HD
ATOM     34  H6  UNL     1       1.920  14.158   4.231  1.00  0.00     0.185 HD
ENDBRANCH  27  28
ENDBRANCH  26  27
ENDBRANCH  23  26
ENDBRANCH  10  23
TORSDOF 5
ENDMDL
MODEL 5
REMARK VINA RESULT: -5.985550223      2.106      2.622
REMARK  5 active torsions:
REMARK  status: ('A' for Active; 'I' for Inactive)
REMARK    1  A    between atoms: N4_10  and  C4_11 
REMARK    2  A    between atoms: C4_11  and  O1_12 
REMARK    3  A    between atoms: C4_11  and  C5_14 
REMARK    4  A    between atoms: C5_14  and  N5_15 
REMARK    5  A    between atoms: N5_15  and  N6_16 
REMARK       I    between atoms: N6_16  and  C6_18 
ROOT
HETATM    1  C1  UNL     1      -7.642  13.832   6.456  1.00  0.00     0.158 C 
HETATM    2  N1  UNL     1      -6.294  14.257   6.211  1.00  0.00    -0.330 N 
HETATM    3  C2  UNL     1      -5.557  14.951   7.092  1.00  0.00     0.141 A 
HETATM    4  N2  UNL     1      -5.735  15.410   8.358  1.00  0.00    -0.175 N 
ATOM      5  H2  UNL     1      -6.637  15.262   8.810  1.00  0.00     0.186 HD
HETATM    6  C3  UNL     1      -4.778  16.045   9.036  1.00  0.00     0.688 A 
HETATM    7  N3  UNL     1      -5.025  16.448  10.218  1.00  0.00    -0.234 N 
ATOM      8  H31 UNL     1      -4.294  16.934  10.736  1.00  0.00     0.174 HD
ATOM      9  H32 UNL     1      -5.939  16.289  10.642  1.00  0.00     0.174 HD
HETATM   10  N4  UNL     1      -3.523  16.263   8.453  1.00  0.00    -0.092 N 
HETATM   11  C7  UNL     1      -3.363  15.814   7.208  1.00  0.00     0.284 A 
HETATM   12  O2  UNL     1      -2.248  16.000   6.610  1.00  0.00    -0.266 OA
HETATM   13  C8  UNL     1      -4.329  15.164   6.504  1.00  0.00     0.107 A 
HETATM   14  C9  UNL     1      -4.344  14.576   5.241  1.00  0.00     0.085 A 
HETATM   15  N9  UNL     1      -3.447  14.442   4.246  1.00  0.00    -0.349 N 
ATOM     16  H9  UNL     1      -2.523  14.859   4.360  1.00  0.00     0.166 HD
HETATM   17  C10 UNL     1      -3.725  13.772   3.095  1.00  0.00     0.184 A 
HETATM   18  N10 UNL     1      -4.955  13.205   2.903  1.00  0.00    -0.318 N 
ATOM     19  H10 UNL     1      -5.179  12.701   2.045  1.00  0.00     0.169 HD
HETATM   20  C11 UNL     1      -5.858  13.337   3.890  1.00  0.00     0.275 A 
HETATM   21  O3  UNL     1      -7.001  12.825   3.745  1.00  0.00    -0.266 OA
HETATM   22  C12 UNL     1      -5.593  14.014   5.079  1.00  0.00     0.132 A 
ENDROOT
BRANCH  10  23
HETATM   23  C4  UNL     1      -2.556  16.885   9.255  1.00  0.00     0.159 C 
BRANCH  23  24
HETATM   24  O1  UNL     1      -2.455  18.198   9.112  1.00  0.00    -0.347 OA
ATOM     25  H1  UNL     1      -1.868  18.491   8.424  1.00  0.00     0.219 HD
ENDBRANCH  23  24
BRANCH  23  26
HETATM   26  C5  UNL     1      -1.623  16.367  10.228  1.00  0.00     0.220 C 
BRANCH  26  27
HETATM   27  N5  UNL     1      -0.470  15.783   9.568  1.00  0.00    -0.131 NA
BRANCH  27  28
HETATM   28  N6  UNL     1       0.006  16.540   8.499  1.00  0.00    -0.277 N 
HETATM   29  C6  UNL     1       1.104  16.206   7.680  1.00  0.00     0.197 C 
HETATM   30  N7  UNL     1       0.909  15.471   6.679  1.00  0.00    -0.373 N 
HETATM   31  N8  UNL     1       2.431  16.672   7.928  1.00  0.00    -0.063 NA
ATOM     32  H72 UNL     1      -0.039  15.138   6.503  1.00  0.00     0.158 HD
ATOM     33  H71 UNL     1       1.704  15.229   6.087  1.00  0.00     0.158 HD
ATOM     34  H6  UNL     1      -0.483  17.410   8.290  1.00  0.00     0.185 HD
ENDBRANCH  27  28
ENDBRANCH  26  27
ENDBRANCH  23  26
ENDBRANCH  10  23
TORSDOF 5
ENDMDL
