MODEL 1
REMARK VINA RESULT: -6.772225900      0.000      0.000
REMARK  9 active torsions:
REMARK  status: ('A' for Active; 'I' for Inactive)
REMARK    1  A    between atoms: N1_1  and  C1_4 
REMARK    2  A    between atoms: C4_9  and  S1_10 
REMARK    3  A    between atoms: C5_16  and  N4_17 
REMARK    4  A    between atoms: C7_23  and  N6_24 
REMARK    5  A    between atoms: N6_24  and  O4_25 
REMARK    6  A    between atoms: N6_24  and  O5_27 
REMARK    7  A    between atoms: C8_29  and  C9_30 
REMARK    8  A    between atoms: C9_30  and  C10_31 
REMARK    9  A    between atoms: C10_31  and  O6_32 
ROOT
HETATM    1  C1  UNL     1      -2.494  11.608   5.224  1.00  0.00     0.678 A 
HETATM    2  N2  UNL     1      -2.215  12.615   6.051  1.00  0.00    -0.174 N 
ATOM      3  H2  UNL     1      -2.863  12.838   6.807  1.00  0.00     0.186 HD
HETATM    4  C2  UNL     1      -1.096  13.342   5.907  1.00  0.00     0.161 A 
HETATM    5  C3  UNL     1      -0.215  13.033   4.873  1.00  0.00     0.096 A 
HETATM    6  C4  UNL     1      -0.472  11.990   3.988  1.00  0.00     0.183 A 
HETATM    7  N3  UNL     1      -1.645  11.319   4.235  1.00  0.00    -0.177 N 
ATOM      8  H3  UNL     1      -1.885  10.543   3.618  1.00  0.00     0.185 HD
HETATM    9  C5  UNL     1       0.923  13.783   4.766  1.00  0.00     0.117 A 
HETATM   10  N5  UNL     1       1.135  14.782   5.657  1.00  0.00    -0.325 N 
ATOM     11  H5  UNL     1       1.983  15.342   5.575  1.00  0.00     0.169 HD
HETATM   12  C6  UNL     1       0.269  15.060   6.645  1.00  0.00     0.159 A 
HETATM   13  C7  UNL     1       0.228  15.993   7.669  1.00  0.00     0.135 A 
HETATM   14  C8  UNL     1      -0.924  15.824   8.407  1.00  0.00     0.058 A 
HETATM   15  N7  UNL     1      -1.565  14.785   7.814  1.00  0.00    -0.293 N 
ATOM     16  H7  UNL     1      -2.459  14.398   8.115  1.00  0.00     0.187 HD
HETATM   17  N8  UNL     1      -0.856  14.349   6.787  1.00  0.00    -0.220 N 
ENDROOT
BRANCH  13  18
HETATM   18  N6  UNL     1       1.241  16.972   7.897  1.00  0.00    -0.030 NA
BRANCH  18  19
HETATM   19  O4  UNL     1       1.209  17.950   6.935  1.00  0.00    -0.284 OA
ATOM     20  H4  UNL     1       1.782  18.673   7.163  1.00  0.00     0.240 HD
ENDBRANCH  18  19
BRANCH  18  21
HETATM   21  O5  UNL     1       2.454  16.390   7.949  1.00  0.00    -0.284 OA
ATOM     22  H5  UNL     1       2.787  16.394   8.838  1.00  0.00     0.240 HD
ENDBRANCH  18  21
ENDBRANCH  13  18
BRANCH  14  23
HETATM   23  C9  UNL     1      -1.382  16.600   9.597  1.00  0.00     0.086 C 
BRANCH  23  24
HETATM   24  C10 UNL     1      -2.274  17.745   9.224  1.00  0.00     0.170 C 
BRANCH  24  25
HETATM   25  O6  UNL     1      -1.527  18.613   8.419  1.00  0.00    -0.400 OA
ATOM     26  H6  UNL     1      -0.998  19.151   8.996  1.00  0.00     0.209 HD
ENDBRANCH  24  25
ENDBRANCH  23  24
ENDBRANCH  14  23
BRANCH   9  27
HETATM   27  N4  UNL     1       1.765  13.523   3.856  1.00  0.00    -0.385 N 
ATOM     28  H42 UNL     1       1.530  13.631   2.869  1.00  0.00     0.157 HD
ATOM     29  H41 UNL     1       2.704  13.214   4.108  1.00  0.00     0.157 HD
ENDBRANCH   9  27
BRANCH   6  30
HETATM   30  S1  UNL     1       0.548  11.618   2.686  1.00  0.00     0.156 S 
HETATM   31  O1  UNL     1      -0.200  10.496   1.920  1.00  0.00    -0.590 OA
HETATM   32  O2  UNL     1       1.802  10.843   2.966  1.00  0.00    -0.590 OA
HETATM   33  O3  UNL     1       0.651  12.704   1.415  1.00  0.00    -0.590 OA
ENDBRANCH   6  30
BRANCH   1  34
HETATM   34  N1  UNL     1      -3.577  10.905   5.364  1.00  0.00    -0.234 N 
ATOM     35  H12 UNL     1      -3.803  10.504   6.275  1.00  0.00     0.174 HD
ATOM     36  H11 UNL     1      -4.207  10.744   4.577  1.00  0.00     0.174 HD
ENDBRANCH   1  34
TORSDOF 9
ENDMDL
MODEL 2
REMARK VINA RESULT: -6.150110139      1.538      1.904
REMARK  9 active torsions:
REMARK  status: ('A' for Active; 'I' for Inactive)
REMARK    1  A    between atoms: N1_1  and  C1_4 
REMARK    2  A    between atoms: C4_9  and  S1_10 
REMARK    3  A    between atoms: C5_16  and  N4_17 
REMARK    4  A    between atoms: C7_23  and  N6_24 
REMARK    5  A    between atoms: N6_24  and  O4_25 
REMARK    6  A    between atoms: N6_24  and  O5_27 
REMARK    7  A    between atoms: C8_29  and  C9_30 
REMARK    8  A    between atoms: C9_30  and  C10_31 
REMARK    9  A    between atoms: C10_31  and  O6_32 
ROOT
HETATM    1  C1  UNL     1      -1.032  10.461   5.553  1.00  0.00     0.678 A 
HETATM    2  N2  UNL     1      -0.781  11.443   6.419  1.00  0.00    -0.174 N 
ATOM      3  H2  UNL     1      -1.083  11.346   7.388  1.00  0.00     0.186 HD
HETATM    4  C2  UNL     1      -0.137  12.556   6.036  1.00  0.00     0.161 A 
HETATM    5  C3  UNL     1       0.273  12.682   4.711  1.00  0.00     0.096 A 
HETATM    6  C4  UNL     1       0.027  11.679   3.777  1.00  0.00     0.183 A 
HETATM    7  N3  UNL     1      -0.637  10.590   4.285  1.00  0.00    -0.177 N 
ATOM      8  H3  UNL     1      -0.843   9.822   3.645  1.00  0.00     0.185 HD
HETATM    9  C5  UNL     1       0.941  13.823   4.361  1.00  0.00     0.117 A 
HETATM   10  N5  UNL     1       1.165  14.766   5.307  1.00  0.00    -0.325 N 
ATOM     11  H5  UNL     1       1.661  15.617   5.044  1.00  0.00     0.169 HD
HETATM   12  C6  UNL     1       0.759  14.622   6.578  1.00  0.00     0.159 A 
HETATM   13  C7  UNL     1       0.847  15.398   7.723  1.00  0.00     0.135 A 
HETATM   14  C8  UNL     1       0.242  14.745   8.776  1.00  0.00     0.058 A 
HETATM   15  N7  UNL     1      -0.206  13.578   8.247  1.00  0.00    -0.293 N 
ATOM     16  H7  UNL     1      -0.706  12.855   8.763  1.00  0.00     0.187 HD
HETATM   17  N8  UNL     1       0.104  13.519   6.964  1.00  0.00    -0.220 N 
ENDROOT
BRANCH  13  18
HETATM   18  N6  UNL     1       1.476  16.678   7.772  1.00  0.00    -0.030 NA
BRANCH  18  19
HETATM   19  O4  UNL     1       0.947  17.524   6.829  1.00  0.00    -0.284 OA
ATOM     20  H4  UNL     1       1.555  18.223   6.617  1.00  0.00     0.240 HD
ENDBRANCH  18  19
BRANCH  18  21
HETATM   21  O5  UNL     1       2.807  16.555   7.613  1.00  0.00    -0.284 OA
ATOM     22  H5  UNL     1       3.021  15.706   7.244  1.00  0.00     0.240 HD
ENDBRANCH  18  21
ENDBRANCH  13  18
BRANCH  14  23
HETATM   23  C9  UNL     1       0.100  15.204  10.189  1.00  0.00     0.086 C 
BRANCH  23  24
HETATM   24  C10 UNL     1       1.288  14.842  11.030  1.00  0.00     0.170 C 
BRANCH  24  25
HETATM   25  O6  UNL     1       2.420  15.386  10.412  1.00  0.00    -0.400 OA
ATOM     26  H6  UNL     1       2.848  14.684   9.936  1.00  0.00     0.209 HD
ENDBRANCH  24  25
ENDBRANCH  23  24
ENDBRANCH  14  23
BRANCH   9  27
HETATM   27  N4  UNL     1       1.354  13.970   3.173  1.00  0.00    -0.385 N 
ATOM     28  H42 UNL     1       1.099  13.311   2.436  1.00  0.00     0.157 HD
ATOM     29  H41 UNL     1       1.940  14.771   2.936  1.00  0.00     0.157 HD
ENDBRANCH   9  27
BRANCH   6  30
HETATM   30  S1  UNL     1       0.463  11.820   2.144  1.00  0.00     0.156 S 
HETATM   31  O1  UNL     1      -0.097  10.531   1.486  1.00  0.00    -0.590 OA
HETATM   32  O2  UNL     1       1.900  11.604   1.773  1.00  0.00    -0.590 OA
HETATM   33  O3  UNL     1      -0.364  12.917   1.188  1.00  0.00    -0.590 OA
ENDBRANCH   6  30
BRANCH   1  34
HETATM   34  N1  UNL     1      -1.656   9.382   5.923  1.00  0.00    -0.234 N 
ATOM     35  H12 UNL     1      -2.490   9.086   5.417  1.00  0.00     0.174 HD
ATOM     36  H11 UNL     1      -1.325   8.827   6.712  1.00  0.00     0.174 HD
ENDBRANCH   1  34
TORSDOF 9
ENDMDL
MODEL 3
REMARK VINA RESULT: -6.053733602      0.975      1.043
REMARK  9 active torsions:
REMARK  status: ('A' for Active; 'I' for Inactive)
REMARK    1  A    between atoms: N1_1  and  C1_4 
REMARK    2  A    between atoms: C4_9  and  S1_10 
REMARK    3  A    between atoms: C5_16  and  N4_17 
REMARK    4  A    between atoms: C7_23  and  N6_24 
REMARK    5  A    between atoms: N6_24  and  O4_25 
REMARK    6  A    between atoms: N6_24  and  O5_27 
REMARK    7  A    between atoms: C8_29  and  C9_30 
REMARK    8  A    between atoms: C9_30  and  C10_31 
REMARK    9  A    between atoms: C10_31  and  O6_32 
ROOT
HETATM    1  C1  UNL     1      -3.078  12.803   4.531  1.00  0.00     0.678 A 
HETATM    2  N2  UNL     1      -2.652  13.509   5.578  1.00  0.00    -0.174 N 
ATOM      3  H2  UNL     1      -3.313  13.771   6.309  1.00  0.00     0.186 HD
HETATM    4  C2  UNL     1      -1.367  13.882   5.686  1.00  0.00     0.161 A 
HETATM    5  C3  UNL     1      -0.469  13.522   4.684  1.00  0.00     0.096 A 
HETATM    6  C4  UNL     1      -0.876  12.786   3.575  1.00  0.00     0.183 A 
HETATM    7  N3  UNL     1      -2.211  12.463   3.574  1.00  0.00    -0.177 N 
ATOM      8  H3  UNL     1      -2.566  11.923   2.785  1.00  0.00     0.185 HD
HETATM    9  C5  UNL     1       0.835  13.904   4.836  1.00  0.00     0.117 A 
HETATM   10  N5  UNL     1       1.186  14.610   5.938  1.00  0.00    -0.325 N 
ATOM     11  H5  UNL     1       2.158  14.897   6.049  1.00  0.00     0.169 HD
HETATM   12  C6  UNL     1       0.300  14.946   6.890  1.00  0.00     0.159 A 
HETATM   13  C7  UNL     1       0.374  15.642   8.086  1.00  0.00     0.135 A 
HETATM   14  C8  UNL     1      -0.873  15.690   8.674  1.00  0.00     0.058 A 
HETATM   15  N7  UNL     1      -1.684  15.019   7.818  1.00  0.00    -0.293 N 
ATOM     16  H7  UNL     1      -2.684  14.868   7.954  1.00  0.00     0.187 HD
HETATM   17  N8  UNL     1      -0.986  14.590   6.782  1.00  0.00    -0.220 N 
ENDROOT
BRANCH  13  18
HETATM   18  N6  UNL     1       1.574  16.213   8.604  1.00  0.00    -0.030 NA
BRANCH  18  19
HETATM   19  O4  UNL     1       2.459  16.503   7.594  1.00  0.00    -0.284 OA
ATOM     20  H4  UNL     1       2.018  16.923   6.865  1.00  0.00     0.240 HD
ENDBRANCH  18  19
BRANCH  18  21
HETATM   21  O5  UNL     1       2.135  15.390   9.510  1.00  0.00    -0.284 OA
ATOM     22  H5  UNL     1       2.868  14.924   9.126  1.00  0.00     0.240 HD
ENDBRANCH  18  21
ENDBRANCH  13  18
BRANCH  14  23
HETATM   23  C9  UNL     1      -1.262  16.332   9.964  1.00  0.00     0.086 C 
BRANCH  23  24
HETATM   24  C10 UNL     1      -2.474  17.204   9.826  1.00  0.00     0.170 C 
BRANCH  24  25
HETATM   25  O6  UNL     1      -2.281  18.013   8.700  1.00  0.00    -0.400 OA
ATOM     26  H6  UNL     1      -3.133  18.157   8.305  1.00  0.00     0.209 HD
ENDBRANCH  24  25
ENDBRANCH  23  24
ENDBRANCH  14  23
BRANCH   9  27
HETATM   27  N4  UNL     1       1.692  13.578   3.962  1.00  0.00    -0.385 N 
ATOM     28  H42 UNL     1       1.758  12.621   3.615  1.00  0.00     0.157 HD
ATOM     29  H41 UNL     1       2.321  14.285   3.581  1.00  0.00     0.157 HD
ENDBRANCH   9  27
BRANCH   6  30
HETATM   30  S1  UNL     1       0.175  12.376   2.310  1.00  0.00     0.156 S 
HETATM   31  O1  UNL     1      -0.736  11.682   1.263  1.00  0.00    -0.590 OA
HETATM   32  O2  UNL     1       1.121  11.229   2.517  1.00  0.00    -0.590 OA
HETATM   33  O3  UNL     1       0.742  13.597   1.314  1.00  0.00    -0.590 OA
ENDBRANCH   6  30
BRANCH   1  34
HETATM   34  N1  UNL     1      -4.322  12.442   4.425  1.00  0.00    -0.234 N 
ATOM     35  H12 UNL     1      -4.912  12.873   3.713  1.00  0.00     0.174 HD
ATOM     36  H11 UNL     1      -4.719  11.735   5.043  1.00  0.00     0.174 HD
ENDBRANCH   1  34
TORSDOF 9
ENDMDL
MODEL 4
REMARK VINA RESULT: -6.047524368      1.433      1.504
REMARK  9 active torsions:
REMARK  status: ('A' for Active; 'I' for Inactive)
REMARK    1  A    between atoms: N1_1  and  C1_4 
REMARK    2  A    between atoms: C4_9  and  S1_10 
REMARK    3  A    between atoms: C5_16  and  N4_17 
REMARK    4  A    between atoms: C7_23  and  N6_24 
REMARK    5  A    between atoms: N6_24  and  O4_25 
REMARK    6  A    between atoms: N6_24  and  O5_27 
REMARK    7  A    between atoms: C8_29  and  C9_30 
REMARK    8  A    between atoms: C9_30  and  C10_31 
REMARK    9  A    between atoms: C10_31  and  O6_32 
ROOT
HETATM    1  C1  UNL     1      -0.708  10.542   6.858  1.00  0.00     0.678 A 
HETATM    2  N2  UNL     1      -0.835  11.748   7.409  1.00  0.00    -0.174 N 
ATOM      3  H2  UNL     1      -1.377  11.853   8.267  1.00  0.00     0.186 HD
HETATM    4  C2  UNL     1      -0.263  12.828   6.854  1.00  0.00     0.161 A 
HETATM    5  C3  UNL     1       0.475  12.677   5.682  1.00  0.00     0.096 A 
HETATM    6  C4  UNL     1       0.629  11.434   5.075  1.00  0.00     0.183 A 
HETATM    7  N3  UNL     1      -0.001  10.406   5.734  1.00  0.00    -0.177 N 
ATOM      8  H3  UNL     1       0.079   9.471   5.335  1.00  0.00     0.185 HD
HETATM    9  C5  UNL     1       1.057  13.796   5.154  1.00  0.00     0.117 A 
HETATM   10  N5  UNL     1       0.887  14.983   5.785  1.00  0.00    -0.325 N 
ATOM     11  H5  UNL     1       1.320  15.817   5.389  1.00  0.00     0.169 HD
HETATM   12  C6  UNL     1       0.170  15.102   6.914  1.00  0.00     0.159 A 
HETATM   13  C7  UNL     1      -0.162  16.156   7.750  1.00  0.00     0.135 A 
HETATM   14  C8  UNL     1      -0.942  15.696   8.790  1.00  0.00     0.058 A 
HETATM   15  N7  UNL     1      -1.070  14.365   8.564  1.00  0.00    -0.293 N 
ATOM     16  H7  UNL     1      -1.593  13.717   9.154  1.00  0.00     0.187 HD
HETATM   17  N8  UNL     1      -0.415  14.031   7.466  1.00  0.00    -0.220 N 
ENDROOT
BRANCH  13  18
HETATM   18  N6  UNL     1       0.255  17.503   7.538  1.00  0.00    -0.030 NA
BRANCH  18  19
HETATM   19  O4  UNL     1      -0.612  18.163   6.704  1.00  0.00    -0.284 OA
ATOM     20  H4  UNL     1      -0.700  19.076   6.954  1.00  0.00     0.240 HD
ENDBRANCH  18  19
BRANCH  18  21
HETATM   21  O5  UNL     1       1.509  17.537   7.050  1.00  0.00    -0.284 OA
ATOM     22  H5  UNL     1       1.561  17.056   6.232  1.00  0.00     0.240 HD
ENDBRANCH  18  21
ENDBRANCH  13  18
BRANCH  14  23
HETATM   23  C9  UNL     1      -1.525  16.475   9.922  1.00  0.00     0.086 C 
BRANCH  23  24
HETATM   24  C10 UNL     1      -2.757  17.230   9.523  1.00  0.00     0.170 C 
BRANCH  24  25
HETATM   25  O6  UNL     1      -2.342  18.447   8.969  1.00  0.00    -0.400 OA
ATOM     26  H6  UNL     1      -3.070  18.794   8.469  1.00  0.00     0.209 HD
ENDBRANCH  24  25
ENDBRANCH  23  24
ENDBRANCH  14  23
BRANCH   9  27
HETATM   27  N4  UNL     1       1.757  13.704   4.102  1.00  0.00    -0.385 N 
ATOM     28  H42 UNL     1       1.397  14.004   3.196  1.00  0.00     0.157 HD
ATOM     29  H41 UNL     1       2.707  13.337   4.157  1.00  0.00     0.157 HD
ENDBRANCH   9  27
BRANCH   6  30
HETATM   30  S1  UNL     1       1.473  11.221   3.621  1.00  0.00     0.156 S 
HETATM   31  O1  UNL     1       1.276   9.720   3.280  1.00  0.00    -0.590 OA
HETATM   32  O2  UNL     1       2.973  11.203   3.668  1.00  0.00    -0.590 OA
HETATM   33  O3  UNL     1       0.811  11.842   2.214  1.00  0.00    -0.590 OA
ENDBRANCH   6  30
BRANCH   1  34
HETATM   34  N1  UNL     1      -1.262   9.496   7.395  1.00  0.00    -0.234 N 
ATOM     35  H12 UNL     1      -2.099   9.608   7.967  1.00  0.00     0.174 HD
ATOM     36  H11 UNL     1      -0.873   8.563   7.256  1.00  0.00     0.174 HD
ENDBRANCH   1  34
TORSDOF 9
ENDMDL
MODEL 5
REMARK VINA RESULT: -5.794304034      4.869      7.383
REMARK  9 active torsions:
REMARK  status: ('A' for Active; 'I' for Inactive)
REMARK    1  A    between atoms: N1_1  and  C1_4 
REMARK    2  A    between atoms: C4_9  and  S1_10 
REMARK    3  A    between atoms: C5_16  and  N4_17 
REMARK    4  A    between atoms: C7_23  and  N6_24 
REMARK    5  A    between atoms: N6_24  and  O4_25 
REMARK    6  A    between atoms: N6_24  and  O5_27 
REMARK    7  A    between atoms: C8_29  and  C9_30 
REMARK    8  A    between atoms: C9_30  and  C10_31 
REMARK    9  A    between atoms: C10_31  and  O6_32 
ROOT
HETATM    1  C1  UNL     1      -1.084  14.711  13.742  1.00  0.00     0.678 A 
HETATM    2  N2  UNL     1      -1.142  15.216  12.511  1.00  0.00    -0.174 N 
ATOM      3  H2  UNL     1      -2.018  15.613  12.172  1.00  0.00     0.186 HD
HETATM    4  C2  UNL     1      -0.066  15.210  11.708  1.00  0.00     0.161 A 
HETATM    5  C3  UNL     1       1.127  14.666  12.176  1.00  0.00     0.096 A 
HETATM    6  C4  UNL     1       1.226  14.127  13.456  1.00  0.00     0.183 A 
HETATM    7  N3  UNL     1       0.063  14.190  14.183  1.00  0.00    -0.177 N 
ATOM      8  H3  UNL     1       0.077  13.811  15.130  1.00  0.00     0.185 HD
HETATM    9  C5  UNL     1       2.206  14.692  11.337  1.00  0.00     0.117 A 
HETATM   10  N5  UNL     1       2.064  15.236  10.104  1.00  0.00    -0.325 N 
ATOM     11  H5  UNL     1       2.869  15.253   9.478  1.00  0.00     0.169 HD
HETATM   12  C6  UNL     1       0.902  15.754   9.676  1.00  0.00     0.159 A 
HETATM   13  C7  UNL     1       0.478  16.357   8.502  1.00  0.00     0.135 A 
HETATM   14  C8  UNL     1      -0.852  16.704   8.611  1.00  0.00     0.058 A 
HETATM   15  N7  UNL     1      -1.213  16.303   9.855  1.00  0.00    -0.293 N 
ATOM     16  H7  UNL     1      -2.143  16.411  10.260  1.00  0.00     0.187 HD
HETATM   17  N8  UNL     1      -0.180  15.750  10.466  1.00  0.00    -0.220 N 
ENDROOT
BRANCH  13  18
HETATM   18  N6  UNL     1       1.316  16.570   7.367  1.00  0.00    -0.030 NA
BRANCH  18  19
HETATM   19  O4  UNL     1       1.116  15.601   6.416  1.00  0.00    -0.284 OA
ATOM     20  H4  UNL     1       1.075  15.979   5.546  1.00  0.00     0.240 HD
ENDBRANCH  18  19
BRANCH  18  21
HETATM   21  O5  UNL     1       2.609  16.616   7.740  1.00  0.00    -0.284 OA
ATOM     22  H5  UNL     1       3.112  17.143   7.130  1.00  0.00     0.240 HD
ENDBRANCH  18  21
ENDBRANCH  13  18
BRANCH  14  23
HETATM   23  C9  UNL     1      -1.718  17.373   7.596  1.00  0.00     0.086 C 
BRANCH  23  24
HETATM   24  C10 UNL     1      -2.971  16.599   7.313  1.00  0.00     0.170 C 
BRANCH  24  25
HETATM   25  O6  UNL     1      -3.000  16.337   5.938  1.00  0.00    -0.400 OA
ATOM     26  H6  UNL     1      -3.861  15.992   5.733  1.00  0.00     0.209 HD
ENDBRANCH  24  25
ENDBRANCH  23  24
ENDBRANCH  14  23
BRANCH   9  27
HETATM   27  N4  UNL     1       3.319  14.230  11.729  1.00  0.00    -0.385 N 
ATOM     28  H42 UNL     1       3.368  13.461  12.397  1.00  0.00     0.157 HD
ATOM     29  H41 UNL     1       4.187  14.620  11.361  1.00  0.00     0.157 HD
ENDBRANCH   9  27
BRANCH   6  30
HETATM   30  S1  UNL     1       2.646  13.408  14.041  1.00  0.00     0.156 S 
HETATM   31  O1  UNL     1       2.251  12.861  15.438  1.00  0.00    -0.590 OA
HETATM   32  O2  UNL     1       3.756  14.304  14.503  1.00  0.00    -0.590 OA
HETATM   33  O3  UNL     1       3.134  11.950  13.378  1.00  0.00    -0.590 OA
ENDBRANCH   6  30
BRANCH   1  34
HETATM   34  N1  UNL     1      -2.125  14.716  14.520  1.00  0.00    -0.234 N 
ATOM     35  H12 UNL     1      -2.374  15.570  15.021  1.00  0.00     0.174 HD
ATOM     36  H11 UNL     1      -2.698  13.881  14.640  1.00  0.00     0.174 HD
ENDBRANCH   1  34
TORSDOF 9
ENDMDL
