MODEL 1
REMARK VINA RESULT: -7.014552419      0.000      0.000
REMARK  8 active torsions:
REMARK  status: ('A' for Active; 'I' for Inactive)
REMARK    1  A    between atoms: N4_7  and  N5_8 
REMARK    2  A    between atoms: C3_11  and  N6_12 
REMARK    3  A    between atoms: N6_12  and  N7_14 
REMARK    4  A    between atoms: N7_14  and  C4_16 
REMARK    5  A    between atoms: C6_18  and  C7_19 
REMARK    6  A    between atoms: C7_19  and  N8_20 
REMARK    7  A    between atoms: C7_19  and  C8_24 
REMARK    8  A    between atoms: C8_24  and  N9_25 
ROOT
HETATM    1  N1  UNL     1     -11.203 -15.047  10.983  1.00  0.00    -0.190 NA
HETATM    2  C1  UNL     1     -10.510 -14.475  10.270  1.00  0.00     0.123 C 
HETATM    3  C2  UNL     1      -9.628 -13.770   9.360  1.00  0.00     0.175 A 
HETATM    4  N2  UNL     1      -8.983 -14.322   8.311  1.00  0.00    -0.270 N 
ATOM      5  H2  UNL     1      -9.036 -15.301   8.027  1.00  0.00     0.185 HD
HETATM    6  N3  UNL     1      -8.263 -13.369   7.702  1.00  0.00     0.003 NA
HETATM    7  N4  UNL     1      -8.435 -12.224   8.342  1.00  0.00    -0.166 N 
HETATM    8  C3  UNL     1      -9.274 -12.439   9.373  1.00  0.00     0.196 A 
ENDROOT
BRANCH   8   9
HETATM    9  N6  UNL     1      -9.707 -11.594  10.249  1.00  0.00    -0.279 N 
ATOM     10  H6  UNL     1     -10.606 -11.142  10.082  1.00  0.00     0.189 HD
BRANCH   9  11
HETATM   11  N7  UNL     1      -9.011 -11.271  11.406  1.00  0.00    -0.284 N 
ATOM     12  H7  UNL     1      -9.146 -11.870  12.221  1.00  0.00     0.188 HD
BRANCH  11  13
HETATM   13  C4  UNL     1      -8.216 -10.283  11.527  1.00  0.00     0.122 A 
HETATM   14  C5  UNL     1      -6.844 -10.387  11.638  1.00  0.00     0.077 A 
HETATM   15  C6  UNL     1      -6.035  -9.270  11.766  1.00  0.00     0.046 A 
HETATM   16  N10 UNL     1      -6.654  -8.065  11.777  1.00  0.00    -0.354 N 
HETATM   17  C9  UNL     1      -7.989  -7.954  11.668  1.00  0.00     0.182 A 
ATOM     18  H10 UNL     1      -6.092  -7.219  11.869  1.00  0.00     0.166 HD
HETATM   19  N11 UNL     1      -8.777  -9.044  11.543  1.00  0.00    -0.338 N 
ATOM     20  H11 UNL     1      -9.788  -8.938  11.462  1.00  0.00     0.168 HD
BRANCH  15  21
HETATM   21  C7  UNL     1      -4.567  -9.419  11.884  1.00  0.00     0.258 C 
BRANCH  21  22
HETATM   22  N8  UNL     1      -3.927  -9.698  10.625  1.00  0.00    -0.068 N 
ATOM     23  H83 UNL     1      -4.573 -10.152   9.981  1.00  0.00     0.275 HD
ATOM     24  H82 UNL     1      -3.751  -8.837  10.107  1.00  0.00     0.275 HD
ATOM     25  H81 UNL     1      -3.070 -10.243  10.726  1.00  0.00     0.275 HD
ENDBRANCH  21  22
BRANCH  21  26
HETATM   26  C8  UNL     1      -4.225 -10.399  12.962  1.00  0.00     0.268 C 
BRANCH  26  27
HETATM   27  N9  UNL     1      -3.804  -9.673  14.139  1.00  0.00    -0.077 N 
ATOM     28  H93 UNL     1      -2.789  -9.589  14.202  1.00  0.00     0.274 HD
ATOM     29  H92 UNL     1      -4.026  -8.680  14.083  1.00  0.00     0.274 HD
ATOM     30  H91 UNL     1      -4.209 -10.117  14.964  1.00  0.00     0.274 HD
ENDBRANCH  26  27
ENDBRANCH  21  26
ENDBRANCH  15  21
ENDBRANCH  11  13
ENDBRANCH   9  11
ENDBRANCH   8   9
BRANCH   7  31
HETATM   31  N5  UNL     1      -7.842 -10.999   8.002  1.00  0.00    -0.324 N 
ATOM     32  H52 UNL     1      -7.885 -10.544   7.090  1.00  0.00     0.178 HD
ATOM     33  H51 UNL     1      -7.293 -10.410   8.628  1.00  0.00     0.178 HD
ENDBRANCH   7  31
TORSDOF 8
ENDMDL
MODEL 2
REMARK VINA RESULT: -6.951124831      1.797      6.664
REMARK  8 active torsions:
REMARK  status: ('A' for Active; 'I' for Inactive)
REMARK    1  A    between atoms: N4_7  and  N5_8 
REMARK    2  A    between atoms: C3_11  and  N6_12 
REMARK    3  A    between atoms: N6_12  and  N7_14 
REMARK    4  A    between atoms: N7_14  and  C4_16 
REMARK    5  A    between atoms: C6_18  and  C7_19 
REMARK    6  A    between atoms: C7_19  and  N8_20 
REMARK    7  A    between atoms: C7_19  and  C8_24 
REMARK    8  A    between atoms: C8_24  and  N9_25 
ROOT
HETATM    1  N1  UNL     1      -4.159  -9.148  11.339  1.00  0.00    -0.190 NA
HETATM    2  C1  UNL     1      -5.299  -9.253  11.280  1.00  0.00     0.123 C 
HETATM    3  C2  UNL     1      -6.744  -9.379  11.227  1.00  0.00     0.175 A 
HETATM    4  N2  UNL     1      -7.605  -8.899  12.148  1.00  0.00    -0.270 N 
ATOM      5  H2  UNL     1      -7.349  -8.390  12.995  1.00  0.00     0.185 HD
HETATM    6  N3  UNL     1      -8.854  -9.203  11.764  1.00  0.00     0.003 NA
HETATM    7  N4  UNL     1      -8.804  -9.865  10.621  1.00  0.00    -0.166 N 
HETATM    8  C3  UNL     1      -7.512  -9.990  10.261  1.00  0.00     0.196 A 
ENDROOT
BRANCH   8   9
HETATM    9  N6  UNL     1      -7.019 -10.567   9.216  1.00  0.00    -0.279 N 
ATOM     10  H6  UNL     1      -6.803  -9.991   8.402  1.00  0.00     0.189 HD
BRANCH   9  11
HETATM   11  N7  UNL     1      -6.767 -11.931   9.144  1.00  0.00    -0.284 N 
ATOM     12  H7  UNL     1      -5.821 -12.247   9.357  1.00  0.00     0.188 HD
BRANCH  11  13
HETATM   13  C4  UNL     1      -7.628 -12.815   8.832  1.00  0.00     0.122 A 
HETATM   14  C5  UNL     1      -7.845 -13.984   9.534  1.00  0.00     0.077 A 
HETATM   15  C6  UNL     1      -8.800 -14.906   9.140  1.00  0.00     0.046 A 
HETATM   16  N10 UNL     1      -9.517 -14.607   8.029  1.00  0.00    -0.354 N 
HETATM   17  C9  UNL     1      -9.313 -13.472   7.340  1.00  0.00     0.182 A 
ATOM     18  H10 UNL     1     -10.230 -15.262   7.707  1.00  0.00     0.166 HD
HETATM   19  N11 UNL     1      -8.381 -12.573   7.725  1.00  0.00    -0.338 N 
ATOM     20  H11 UNL     1      -8.243 -11.717   7.188  1.00  0.00     0.168 HD
BRANCH  15  21
HETATM   21  C7  UNL     1      -9.005 -16.149   9.916  1.00  0.00     0.258 C 
BRANCH  21  22
HETATM   22  N8  UNL     1      -7.924 -17.088   9.771  1.00  0.00    -0.068 N 
ATOM     23  H83 UNL     1      -8.004 -17.602   8.894  1.00  0.00     0.275 HD
ATOM     24  H82 UNL     1      -7.042 -16.605   9.603  1.00  0.00     0.275 HD
ATOM     25  H81 UNL     1      -7.844 -17.728  10.562  1.00  0.00     0.275 HD
ENDBRANCH  21  22
BRANCH  21  26
HETATM   26  C8  UNL     1     -10.352 -16.733   9.623  1.00  0.00     0.268 C 
BRANCH  26  27
HETATM   27  N9  UNL     1     -10.180 -17.940   8.845  1.00  0.00    -0.077 N 
ATOM     28  H93 UNL     1     -10.253 -18.784   9.415  1.00  0.00     0.274 HD
ATOM     29  H92 UNL     1     -10.969 -18.119   8.225  1.00  0.00     0.274 HD
ATOM     30  H91 UNL     1      -9.294 -17.885   8.342  1.00  0.00     0.274 HD
ENDBRANCH  26  27
ENDBRANCH  21  26
ENDBRANCH  15  21
ENDBRANCH  11  13
ENDBRANCH   9  11
ENDBRANCH   8   9
BRANCH   7  31
HETATM   31  N5  UNL     1      -9.909 -10.353   9.908  1.00  0.00    -0.324 N 
ATOM     32  H52 UNL     1      -9.984 -10.428   8.894  1.00  0.00     0.178 HD
ATOM     33  H51 UNL     1     -10.778 -10.694  10.319  1.00  0.00     0.178 HD
ENDBRANCH   7  31
TORSDOF 8
ENDMDL
MODEL 3
REMARK VINA RESULT: -6.857767442      1.229      2.480
REMARK  8 active torsions:
REMARK  status: ('A' for Active; 'I' for Inactive)
REMARK    1  A    between atoms: N4_7  and  N5_8 
REMARK    2  A    between atoms: C3_11  and  N6_12 
REMARK    3  A    between atoms: N6_12  and  N7_14 
REMARK    4  A    between atoms: N7_14  and  C4_16 
REMARK    5  A    between atoms: C6_18  and  C7_19 
REMARK    6  A    between atoms: C7_19  and  N8_20 
REMARK    7  A    between atoms: C7_19  and  C8_24 
REMARK    8  A    between atoms: C8_24  and  N9_25 
ROOT
HETATM    1  N1  UNL     1      -5.793 -11.771   8.645  1.00  0.00    -0.190 NA
HETATM    2  C1  UNL     1      -6.604 -12.475   9.047  1.00  0.00     0.123 C 
HETATM    3  C2  UNL     1      -7.621 -13.382   9.546  1.00  0.00     0.175 A 
HETATM    4  N2  UNL     1      -7.534 -14.728   9.549  1.00  0.00    -0.270 N 
ATOM      5  H2  UNL     1      -6.746 -15.275   9.202  1.00  0.00     0.185 HD
HETATM    6  N3  UNL     1      -8.658 -15.227  10.086  1.00  0.00     0.003 NA
HETATM    7  N4  UNL     1      -9.455 -14.227  10.422  1.00  0.00    -0.166 N 
HETATM    8  C3  UNL     1      -8.842 -13.072  10.101  1.00  0.00     0.196 A 
ENDROOT
BRANCH   8   9
HETATM    9  N6  UNL     1      -9.269 -11.863  10.258  1.00  0.00    -0.279 N 
ATOM     10  H6  UNL     1      -9.776 -11.425   9.489  1.00  0.00     0.189 HD
BRANCH   9  11
HETATM   11  N7  UNL     1      -9.074 -11.131  11.422  1.00  0.00    -0.284 N 
ATOM     12  H7  UNL     1      -9.636 -11.380  12.236  1.00  0.00     0.188 HD
BRANCH  11  13
HETATM   13  C4  UNL     1      -8.245 -10.172  11.549  1.00  0.00     0.122 A 
HETATM   14  C5  UNL     1      -6.875 -10.322  11.631  1.00  0.00     0.077 A 
HETATM   15  C6  UNL     1      -6.029  -9.235  11.768  1.00  0.00     0.046 A 
HETATM   16  N10 UNL     1      -6.608  -8.011  11.818  1.00  0.00    -0.354 N 
HETATM   17  C9  UNL     1      -7.940  -7.855  11.738  1.00  0.00     0.182 A 
ATOM     18  H10 UNL     1      -6.017  -7.186  11.918  1.00  0.00     0.166 HD
HETATM   19  N11 UNL     1      -8.765  -8.916  11.604  1.00  0.00    -0.338 N 
ATOM     20  H11 UNL     1      -9.774  -8.776  11.544  1.00  0.00     0.168 HD
BRANCH  15  21
HETATM   21  C7  UNL     1      -4.564  -9.433  11.854  1.00  0.00     0.258 C 
BRANCH  21  22
HETATM   22  N8  UNL     1      -3.961  -9.735  10.582  1.00  0.00    -0.068 N 
ATOM     23  H83 UNL     1      -4.669 -10.000   9.898  1.00  0.00     0.275 HD
ATOM     24  H82 UNL     1      -3.608  -8.888  10.137  1.00  0.00     0.275 HD
ATOM     25  H81 UNL     1      -3.232 -10.445  10.646  1.00  0.00     0.275 HD
ENDBRANCH  21  22
BRANCH  21  26
HETATM   26  C8  UNL     1      -4.232 -10.423  12.926  1.00  0.00     0.268 C 
BRANCH  26  27
HETATM   27  N9  UNL     1      -3.867  -9.708  14.128  1.00  0.00    -0.077 N 
ATOM     28  H93 UNL     1      -4.055 -10.247  14.974  1.00  0.00     0.274 HD
ATOM     29  H92 UNL     1      -2.857  -9.621  14.237  1.00  0.00     0.274 HD
ATOM     30  H91 UNL     1      -4.339  -8.803  14.131  1.00  0.00     0.274 HD
ENDBRANCH  26  27
ENDBRANCH  21  26
ENDBRANCH  15  21
ENDBRANCH  11  13
ENDBRANCH   9  11
ENDBRANCH   8   9
BRANCH   7  31
HETATM   31  N5  UNL     1     -10.722 -14.354  11.011  1.00  0.00    -0.324 N 
ATOM     32  H52 UNL     1     -10.935 -14.252  12.003  1.00  0.00     0.178 HD
ATOM     33  H51 UNL     1     -11.590 -14.563  10.518  1.00  0.00     0.178 HD
ENDBRANCH   7  31
TORSDOF 8
ENDMDL
MODEL 4
REMARK VINA RESULT: -6.826528160      0.804      2.369
REMARK  8 active torsions:
REMARK  status: ('A' for Active; 'I' for Inactive)
REMARK    1  A    between atoms: N4_7  and  N5_8 
REMARK    2  A    between atoms: C3_11  and  N6_12 
REMARK    3  A    between atoms: N6_12  and  N7_14 
REMARK    4  A    between atoms: N7_14  and  C4_16 
REMARK    5  A    between atoms: C6_18  and  C7_19 
REMARK    6  A    between atoms: C7_19  and  N8_20 
REMARK    7  A    between atoms: C7_19  and  C8_24 
REMARK    8  A    between atoms: C8_24  and  N9_25 
ROOT
HETATM    1  N1  UNL     1      -7.905  -9.979   7.638  1.00  0.00    -0.190 NA
HETATM    2  C1  UNL     1      -8.375 -10.943   8.045  1.00  0.00     0.123 C 
HETATM    3  C2  UNL     1      -8.966 -12.172   8.539  1.00  0.00     0.175 A 
HETATM    4  N2  UNL     1      -8.937 -13.364   7.907  1.00  0.00    -0.270 N 
ATOM      5  H2  UNL     1      -8.497 -13.549   7.005  1.00  0.00     0.185 HD
HETATM    6  N3  UNL     1      -9.582 -14.264   8.663  1.00  0.00     0.003 NA
HETATM    7  N4  UNL     1     -10.020 -13.670   9.761  1.00  0.00    -0.166 N 
HETATM    8  C3  UNL     1      -9.655 -12.375   9.714  1.00  0.00     0.196 A 
ENDROOT
BRANCH   8   9
HETATM    9  N6  UNL     1      -9.880 -11.443  10.580  1.00  0.00    -0.279 N 
ATOM     10  H6  UNL     1     -10.733 -10.891  10.486  1.00  0.00     0.189 HD
BRANCH   9  11
HETATM   11  N7  UNL     1      -9.020 -11.156  11.632  1.00  0.00    -0.284 N 
ATOM     12  H7  UNL     1      -9.051 -11.767  12.447  1.00  0.00     0.188 HD
BRANCH  11  13
HETATM   13  C4  UNL     1      -8.195 -10.185  11.654  1.00  0.00     0.122 A 
HETATM   14  C5  UNL     1      -6.822 -10.321  11.705  1.00  0.00     0.077 A 
HETATM   15  C6  UNL     1      -5.980  -9.222  11.727  1.00  0.00     0.046 A 
HETATM   16  N10 UNL     1      -6.567  -8.001  11.694  1.00  0.00    -0.354 N 
HETATM   17  C9  UNL     1      -7.903  -7.859  11.644  1.00  0.00     0.182 A 
ATOM     18  H10 UNL     1      -5.980  -7.167  11.709  1.00  0.00     0.166 HD
HETATM   19  N11 UNL     1      -8.723  -8.932  11.623  1.00  0.00    -0.338 N 
ATOM     20  H11 UNL     1      -9.734  -8.802  11.584  1.00  0.00     0.168 HD
BRANCH  15  21
HETATM   21  C7  UNL     1      -4.513  -9.405  11.782  1.00  0.00     0.258 C 
BRANCH  21  22
HETATM   22  N8  UNL     1      -3.931  -9.686  10.496  1.00  0.00    -0.068 N 
ATOM     23  H83 UNL     1      -4.376  -9.131   9.766  1.00  0.00     0.275 HD
ATOM     24  H82 UNL     1      -2.983  -9.314  10.436  1.00  0.00     0.275 HD
ATOM     25  H81 UNL     1      -3.948 -10.679  10.259  1.00  0.00     0.275 HD
ENDBRANCH  21  22
BRANCH  21  26
HETATM   26  C8  UNL     1      -4.149 -10.403  12.837  1.00  0.00     0.268 C 
BRANCH  26  27
HETATM   27  N9  UNL     1      -3.894  -9.703  14.076  1.00  0.00    -0.077 N 
ATOM     28  H93 UNL     1      -4.275  -8.756  14.074  1.00  0.00     0.274 HD
ATOM     29  H92 UNL     1      -4.441 -10.075  14.852  1.00  0.00     0.274 HD
ATOM     30  H91 UNL     1      -2.891  -9.719  14.264  1.00  0.00     0.274 HD
ENDBRANCH  26  27
ENDBRANCH  21  26
ENDBRANCH  15  21
ENDBRANCH  11  13
ENDBRANCH   9  11
ENDBRANCH   8   9
BRANCH   7  31
HETATM   31  N5  UNL     1     -10.742 -14.288  10.793  1.00  0.00    -0.324 N 
ATOM     32  H52 UNL     1     -10.500 -15.165  11.253  1.00  0.00     0.178 HD
ATOM     33  H51 UNL     1     -11.601 -13.933  11.213  1.00  0.00     0.178 HD
ENDBRANCH   7  31
TORSDOF 8
ENDMDL
MODEL 5
REMARK VINA RESULT: -6.743943800      1.881      5.804
REMARK  8 active torsions:
REMARK  status: ('A' for Active; 'I' for Inactive)
REMARK    1  A    between atoms: N4_7  and  N5_8 
REMARK    2  A    between atoms: C3_11  and  N6_12 
REMARK    3  A    between atoms: N6_12  and  N7_14 
REMARK    4  A    between atoms: N7_14  and  C4_16 
REMARK    5  A    between atoms: C6_18  and  C7_19 
REMARK    6  A    between atoms: C7_19  and  N8_20 
REMARK    7  A    between atoms: C7_19  and  C8_24 
REMARK    8  A    between atoms: C8_24  and  N9_25 
ROOT
HETATM    1  N1  UNL     1      -5.543 -12.667   9.795  1.00  0.00    -0.190 NA
HETATM    2  C1  UNL     1      -5.733 -11.600  10.170  1.00  0.00     0.123 C 
HETATM    3  C2  UNL     1      -5.953 -10.244  10.636  1.00  0.00     0.175 A 
HETATM    4  N2  UNL     1      -5.163  -9.185  10.364  1.00  0.00    -0.270 N 
ATOM      5  H2  UNL     1      -4.314  -9.205   9.798  1.00  0.00     0.185 HD
HETATM    6  N3  UNL     1      -5.680  -8.101  10.962  1.00  0.00     0.003 NA
HETATM    7  N4  UNL     1      -6.780  -8.449  11.607  1.00  0.00    -0.166 N 
HETATM    8  C3  UNL     1      -6.977  -9.769  11.426  1.00  0.00     0.196 A 
ENDROOT
BRANCH   8   9
HETATM    9  N6  UNL     1      -7.930 -10.512  11.882  1.00  0.00    -0.279 N 
ATOM     10  H6  UNL     1      -7.777 -11.012  12.757  1.00  0.00     0.189 HD
BRANCH   9  11
HETATM   11  N7  UNL     1      -9.153 -10.663  11.240  1.00  0.00    -0.284 N 
ATOM     12  H7  UNL     1      -9.980 -10.295  11.710  1.00  0.00     0.188 HD
BRANCH  11  13
HETATM   13  C4  UNL     1      -9.318 -11.225  10.109  1.00  0.00     0.122 A 
HETATM   14  C5  UNL     1      -9.288 -12.589   9.898  1.00  0.00     0.077 A 
HETATM   15  C6  UNL     1      -9.475 -13.137   8.640  1.00  0.00     0.046 A 
HETATM   16  N10 UNL     1      -9.691 -12.270   7.621  1.00  0.00    -0.354 N 
HETATM   17  C9  UNL     1      -9.722 -10.941   7.818  1.00  0.00     0.182 A 
ATOM     18  H10 UNL     1      -9.833 -12.635   6.680  1.00  0.00     0.166 HD
HETATM   19  N11 UNL     1      -9.539 -10.408   9.045  1.00  0.00    -0.338 N 
ATOM     20  H11 UNL     1      -9.567  -9.396   9.173  1.00  0.00     0.168 HD
BRANCH  15  21
HETATM   21  C7  UNL     1      -9.436 -14.604   8.450  1.00  0.00     0.258 C 
BRANCH  21  22
HETATM   22  N8  UNL     1     -10.743 -15.185   8.286  1.00  0.00    -0.068 N 
ATOM     23  H83 UNL     1     -10.888 -15.946   8.949  1.00  0.00     0.275 HD
ATOM     24  H82 UNL     1     -11.469 -14.544   8.605  1.00  0.00     0.275 HD
ATOM     25  H81 UNL     1     -10.925 -15.495   7.331  1.00  0.00     0.275 HD
ENDBRANCH  21  22
BRANCH  21  26
HETATM   26  C8  UNL     1      -8.623 -15.250   9.527  1.00  0.00     0.268 C 
BRANCH  26  27
HETATM   27  N9  UNL     1      -7.257 -15.376   9.071  1.00  0.00    -0.077 N 
ATOM     28  H93 UNL     1      -7.055 -16.303   8.696  1.00  0.00     0.274 HD
ATOM     29  H92 UNL     1      -7.079 -14.838   8.223  1.00  0.00     0.274 HD
ATOM     30  H91 UNL     1      -6.629 -15.120   9.834  1.00  0.00     0.274 HD
ENDBRANCH  26  27
ENDBRANCH  21  26
ENDBRANCH  15  21
ENDBRANCH  11  13
ENDBRANCH   9  11
ENDBRANCH   8   9
BRANCH   7  31
HETATM   31  N5  UNL     1      -7.599  -7.588  12.353  1.00  0.00    -0.324 N 
ATOM     32  H52 UNL     1      -7.341  -7.116  13.220  1.00  0.00     0.178 HD
ATOM     33  H51 UNL     1      -8.556  -7.326  12.119  1.00  0.00     0.178 HD
ENDBRANCH   7  31
TORSDOF 8
ENDMDL
