MODEL 1
REMARK VINA RESULT: -7.243157596      0.000      0.000
REMARK  5 active torsions:
REMARK  status: ('A' for Active; 'I' for Inactive)
REMARK    1  A    between atoms: N1_1  and  C1_4 
REMARK    2  A    between atoms: C5_15  and  N5_16 
REMARK    3  A    between atoms: N5_16  and  C6_18 
REMARK    4  A    between atoms: C6_18  and  C7_19 
REMARK    5  A    between atoms: C7_19  and  N6_20 
ROOT
HETATM    1  C1  UNL     1      -8.663 -10.367  11.104  1.00  0.00     0.680 A 
HETATM    2  N2  UNL     1      -8.879  -9.965   9.835  1.00  0.00    -0.154 N 
ATOM      3  H2  UNL     1      -8.740  -8.985   9.588  1.00  0.00     0.187 HD
HETATM    4  C2  UNL     1      -9.274 -10.836   8.890  1.00  0.00     0.292 A 
HETATM    5  O1  UNL     1      -9.456 -10.389   7.727  1.00  0.00    -0.265 OA
HETATM    6  C3  UNL     1      -9.475 -12.169   9.166  1.00  0.00     0.172 A 
HETATM    7  C4  UNL     1      -9.253 -12.577  10.472  1.00  0.00     0.157 A 
HETATM    8  N3  UNL     1      -8.861 -11.669  11.372  1.00  0.00    -0.174 N 
ATOM      9  H3  UNL     1      -8.703 -11.985  12.328  1.00  0.00     0.186 HD
HETATM   10  N4  UNL     1      -9.444 -13.878  10.766  1.00  0.00    -0.323 N 
ATOM     11  H4  UNL     1      -9.284 -14.197  11.722  1.00  0.00     0.169 HD
HETATM   12  C5  UNL     1      -9.838 -14.771   9.840  1.00  0.00     0.151 A 
HETATM   13  C8  UNL     1     -10.045 -14.310   8.559  1.00  0.00     0.189 A 
HETATM   14  N7  UNL     1     -10.442 -14.989   7.445  1.00  0.00    -0.265 N 
ATOM     15  H7  UNL     1     -10.658 -15.983   7.370  1.00  0.00     0.190 HD
HETATM   16  N8  UNL     1     -10.485 -14.084   6.482  1.00  0.00    -0.226 N 
ATOM     17  H8  UNL     1     -10.749 -14.282   5.517  1.00  0.00     0.210 HD
HETATM   18  N9  UNL     1     -10.142 -12.892   6.929  1.00  0.00    -0.219 N 
ATOM     19  H9  UNL     1     -10.097 -12.030   6.386  1.00  0.00     0.210 HD
HETATM   20  N10 UNL     1      -9.871 -13.024   8.206  1.00  0.00    -0.210 N 
ENDROOT
BRANCH  12  21
HETATM   21  N5  UNL     1     -10.015 -16.019  10.152  1.00  0.00    -0.371 N 
ATOM     22  H5  UNL     1     -10.926 -16.342  10.475  1.00  0.00     0.161 HD
BRANCH  21  23
HETATM   23  C6  UNL     1      -8.924 -16.939  10.041  1.00  0.00     0.148 C 
BRANCH  23  24
HETATM   24  C7  UNL     1      -9.524 -18.349  10.107  1.00  0.00     0.249 C 
BRANCH  24  25
HETATM   25  N6  UNL     1      -9.312 -18.917   8.766  1.00  0.00    -0.078 N 
ATOM     26  H63 UNL     1     -10.074 -18.733   8.114  1.00  0.00     0.274 HD
ATOM     27  H62 UNL     1      -8.584 -18.447   8.229  1.00  0.00     0.274 HD
ATOM     28  H61 UNL     1      -9.133 -19.909   8.925  1.00  0.00     0.274 HD
ENDBRANCH  24  25
ENDBRANCH  23  24
ENDBRANCH  21  23
ENDBRANCH  12  21
BRANCH   1  29
HETATM   29  N1  UNL     1      -8.283  -9.519  12.009  1.00  0.00    -0.234 N 
ATOM     30  H12 UNL     1      -7.666  -8.733  11.801  1.00  0.00     0.174 HD
ATOM     31  H11 UNL     1      -8.595  -9.617  12.975  1.00  0.00     0.174 HD
ENDBRANCH   1  29
TORSDOF 5
ENDMDL
MODEL 2
REMARK VINA RESULT: -6.963756150      2.989      6.526
REMARK  5 active torsions:
REMARK  status: ('A' for Active; 'I' for Inactive)
REMARK    1  A    between atoms: N1_1  and  C1_4 
REMARK    2  A    between atoms: C5_15  and  N5_16 
REMARK    3  A    between atoms: N5_16  and  C6_18 
REMARK    4  A    between atoms: C6_18  and  C7_19 
REMARK    5  A    between atoms: C7_19  and  N6_20 
ROOT
HETATM    1  C1  UNL     1      -8.291 -12.966   8.204  1.00  0.00     0.680 A 
HETATM    2  N2  UNL     1      -9.342 -12.209   8.581  1.00  0.00    -0.154 N 
ATOM      3  H2  UNL     1     -10.266 -12.405   8.196  1.00  0.00     0.187 HD
HETATM    4  C2  UNL     1      -9.190 -11.200   9.457  1.00  0.00     0.292 A 
HETATM    5  O1  UNL     1     -10.215 -10.537   9.763  1.00  0.00    -0.265 OA
HETATM    6  C3  UNL     1      -7.968 -10.892  10.009  1.00  0.00     0.172 A 
HETATM    7  C4  UNL     1      -6.891 -11.672   9.617  1.00  0.00     0.157 A 
HETATM    8  N3  UNL     1      -7.098 -12.661   8.743  1.00  0.00    -0.174 N 
ATOM      9  H3  UNL     1      -6.295 -13.225   8.465  1.00  0.00     0.186 HD
HETATM   10  N4  UNL     1      -5.684 -11.388  10.144  1.00  0.00    -0.323 N 
ATOM     11  H4  UNL     1      -4.880 -11.952   9.868  1.00  0.00     0.169 HD
HETATM   12  C5  UNL     1      -5.504 -10.384  11.023  1.00  0.00     0.151 A 
HETATM   13  C8  UNL     1      -6.609  -9.642  11.375  1.00  0.00     0.189 A 
HETATM   14  N7  UNL     1      -6.708  -8.585  12.232  1.00  0.00    -0.265 N 
ATOM     15  H7  UNL     1      -5.958  -8.153  12.771  1.00  0.00     0.190 HD
HETATM   16  N8  UNL     1      -7.984  -8.240  12.213  1.00  0.00    -0.226 N 
ATOM     17  H8  UNL     1      -8.381  -7.474  12.757  1.00  0.00     0.210 HD
HETATM   18  N9  UNL     1      -8.678  -9.013  11.401  1.00  0.00    -0.219 N 
ATOM     19  H9  UNL     1      -9.678  -8.952  11.212  1.00  0.00     0.210 HD
HETATM   20  N10 UNL     1      -7.838  -9.877  10.883  1.00  0.00    -0.210 N 
ENDROOT
BRANCH  12  21
HETATM   21  N5  UNL     1      -4.329 -10.134  11.515  1.00  0.00    -0.371 N 
ATOM     22  H5  UNL     1      -3.731  -9.432  11.080  1.00  0.00     0.161 HD
BRANCH  21  23
HETATM   23  C6  UNL     1      -3.877 -10.847  12.670  1.00  0.00     0.148 C 
BRANCH  23  24
HETATM   24  C7  UNL     1      -3.320  -9.803  13.647  1.00  0.00     0.249 C 
BRANCH  24  25
HETATM   25  N6  UNL     1      -3.858 -10.188  14.962  1.00  0.00    -0.078 N 
ATOM     26  H63 UNL     1      -4.265 -11.123  14.986  1.00  0.00     0.274 HD
ATOM     27  H62 UNL     1      -3.141 -10.355  15.668  1.00  0.00     0.274 HD
ATOM     28  H61 UNL     1      -4.514  -9.446  15.207  1.00  0.00     0.274 HD
ENDBRANCH  24  25
ENDBRANCH  23  24
ENDBRANCH  21  23
ENDBRANCH  12  21
BRANCH   1  29
HETATM   29  N1  UNL     1      -8.446 -13.936   7.357  1.00  0.00    -0.234 N 
ATOM     30  H12 UNL     1      -8.312 -13.815   6.353  1.00  0.00     0.174 HD
ATOM     31  H11 UNL     1      -8.714 -14.866   7.678  1.00  0.00     0.174 HD
ENDBRANCH   1  29
TORSDOF 5
ENDMDL
MODEL 3
REMARK VINA RESULT: -6.930560757      2.219      2.346
REMARK  5 active torsions:
REMARK  status: ('A' for Active; 'I' for Inactive)
REMARK    1  A    between atoms: N1_1  and  C1_4 
REMARK    2  A    between atoms: C5_15  and  N5_16 
REMARK    3  A    between atoms: N5_16  and  C6_18 
REMARK    4  A    between atoms: C6_18  and  C7_19 
REMARK    5  A    between atoms: C7_19  and  N6_20 
ROOT
HETATM    1  C1  UNL     1      -8.345  -9.624  10.915  1.00  0.00     0.680 A 
HETATM    2  N2  UNL     1      -7.373  -9.627   9.979  1.00  0.00    -0.154 N 
ATOM      3  H2  UNL     1      -6.904  -8.754   9.740  1.00  0.00     0.187 HD
HETATM    4  C2  UNL     1      -7.015 -10.764   9.356  1.00  0.00     0.292 A 
HETATM    5  O1  UNL     1      -6.101 -10.691   8.494  1.00  0.00    -0.265 OA
HETATM    6  C3  UNL     1      -7.615 -11.970   9.639  1.00  0.00     0.172 A 
HETATM    7  C4  UNL     1      -8.613 -11.961  10.601  1.00  0.00     0.157 A 
HETATM    8  N3  UNL     1      -8.930 -10.802  11.188  1.00  0.00    -0.174 N 
ATOM      9  H3  UNL     1      -9.667 -10.814  11.893  1.00  0.00     0.186 HD
HETATM   10  N4  UNL     1      -9.214 -13.131  10.894  1.00  0.00    -0.323 N 
ATOM     11  H4  UNL     1      -9.951 -13.144  11.600  1.00  0.00     0.169 HD
HETATM   12  C5  UNL     1      -8.874 -14.283  10.287  1.00  0.00     0.151 A 
HETATM   13  C8  UNL     1      -7.877 -14.232   9.339  1.00  0.00     0.189 A 
HETATM   14  N7  UNL     1      -7.346 -15.235   8.583  1.00  0.00    -0.265 N 
ATOM     15  H7  UNL     1      -7.606 -16.221   8.592  1.00  0.00     0.190 HD
HETATM   16  N8  UNL     1      -6.422 -14.656   7.835  1.00  0.00    -0.226 N 
ATOM     17  H8  UNL     1      -5.839 -15.146   7.157  1.00  0.00     0.210 HD
HETATM   18  N9  UNL     1      -6.348 -13.362   8.080  1.00  0.00    -0.219 N 
ATOM     19  H9  UNL     1      -5.718 -12.695   7.636  1.00  0.00     0.210 HD
HETATM   20  N10 UNL     1      -7.241 -13.096   9.004  1.00  0.00    -0.210 N 
ENDROOT
BRANCH  12  21
HETATM   21  N5  UNL     1      -9.471 -15.395  10.590  1.00  0.00    -0.371 N 
ATOM     22  H5  UNL     1      -8.964 -16.132  11.080  1.00  0.00     0.161 HD
BRANCH  21  23
HETATM   23  C6  UNL     1     -10.844 -15.583  10.233  1.00  0.00     0.148 C 
BRANCH  23  24
HETATM   24  C7  UNL     1     -10.857 -16.225   8.840  1.00  0.00     0.249 C 
BRANCH  24  25
HETATM   25  N6  UNL     1     -10.121 -17.490   8.996  1.00  0.00    -0.078 N 
ATOM     26  H63 UNL     1      -9.176 -17.375   9.363  1.00  0.00     0.274 HD
ATOM     27  H62 UNL     1     -10.468 -18.079   9.752  1.00  0.00     0.274 HD
ATOM     28  H61 UNL     1     -10.156 -17.931   8.077  1.00  0.00     0.274 HD
ENDBRANCH  24  25
ENDBRANCH  23  24
ENDBRANCH  21  23
ENDBRANCH  12  21
BRANCH   1  29
HETATM   29  N1  UNL     1      -8.685  -8.523  11.509  1.00  0.00    -0.234 N 
ATOM     30  H12 UNL     1      -8.006  -7.805  11.765  1.00  0.00     0.174 HD
ATOM     31  H11 UNL     1      -9.660  -8.339  11.744  1.00  0.00     0.174 HD
ENDBRANCH   1  29
TORSDOF 5
ENDMDL
MODEL 4
REMARK VINA RESULT: -6.863248164      1.590      5.398
REMARK  5 active torsions:
REMARK  status: ('A' for Active; 'I' for Inactive)
REMARK    1  A    between atoms: N1_1  and  C1_4 
REMARK    2  A    between atoms: C5_15  and  N5_16 
REMARK    3  A    between atoms: N5_16  and  C6_18 
REMARK    4  A    between atoms: C6_18  and  C7_19 
REMARK    5  A    between atoms: C7_19  and  N6_20 
ROOT
HETATM    1  C1  UNL     1     -10.150 -16.466   9.715  1.00  0.00     0.680 A 
HETATM    2  N2  UNL     1     -10.490 -16.138   8.452  1.00  0.00    -0.154 N 
ATOM      3  H2  UNL     1     -10.837 -16.861   7.822  1.00  0.00     0.187 HD
HETATM    4  C2  UNL     1     -10.379 -14.873   8.011  1.00  0.00     0.292 A 
HETATM    5  O1  UNL     1     -10.715 -14.641   6.820  1.00  0.00    -0.265 OA
HETATM    6  C3  UNL     1      -9.918 -13.858   8.817  1.00  0.00     0.172 A 
HETATM    7  C4  UNL     1      -9.568 -14.200  10.114  1.00  0.00     0.157 A 
HETATM    8  N3  UNL     1      -9.698 -15.474  10.500  1.00  0.00    -0.174 N 
ATOM      9  H3  UNL     1      -9.436 -15.708  11.457  1.00  0.00     0.186 HD
HETATM   10  N4  UNL     1      -9.114 -13.222  10.922  1.00  0.00    -0.323 N 
ATOM     11  H4  UNL     1      -8.852 -13.456  11.881  1.00  0.00     0.169 HD
HETATM   12  C5  UNL     1      -8.993 -11.948  10.506  1.00  0.00     0.151 A 
HETATM   13  C8  UNL     1      -9.354 -11.666   9.208  1.00  0.00     0.189 A 
HETATM   14  N7  UNL     1      -9.331 -10.477   8.539  1.00  0.00    -0.265 N 
ATOM     15  H7  UNL     1      -9.034  -9.570   8.899  1.00  0.00     0.190 HD
HETATM   16  N8  UNL     1      -9.777 -10.752   7.325  1.00  0.00    -0.226 N 
ATOM     17  H8  UNL     1      -9.880 -10.063   6.580  1.00  0.00     0.210 HD
HETATM   18  N9  UNL     1     -10.072 -12.031   7.201  1.00  0.00    -0.219 N 
ATOM     19  H9  UNL     1     -10.432 -12.493   6.366  1.00  0.00     0.210 HD
HETATM   20  N10 UNL     1      -9.813 -12.598   8.355  1.00  0.00    -0.210 N 
ENDROOT
BRANCH  12  21
HETATM   21  N5  UNL     1      -8.551 -11.027  11.307  1.00  0.00    -0.371 N 
ATOM     22  H5  UNL     1      -9.192 -10.548  11.941  1.00  0.00     0.161 HD
BRANCH  21  23
HETATM   23  C6  UNL     1      -7.162 -10.685  11.297  1.00  0.00     0.148 C 
BRANCH  23  24
HETATM   24  C7  UNL     1      -7.080  -9.155  11.369  1.00  0.00     0.249 C 
BRANCH  24  25
HETATM   25  N6  UNL     1      -8.188  -8.755  12.251  1.00  0.00    -0.078 N 
ATOM     26  H63 UNL     1      -9.113  -8.886  11.840  1.00  0.00     0.274 HD
ATOM     27  H62 UNL     1      -8.326  -9.375  13.049  1.00  0.00     0.274 HD
ATOM     28  H61 UNL     1      -7.985  -7.789  12.510  1.00  0.00     0.274 HD
ENDBRANCH  24  25
ENDBRANCH  23  24
ENDBRANCH  21  23
ENDBRANCH  12  21
BRANCH   1  29
HETATM   29  N1  UNL     1     -10.259 -17.689  10.132  1.00  0.00    -0.234 N 
ATOM     30  H12 UNL     1     -10.053 -18.492   9.537  1.00  0.00     0.174 HD
ATOM     31  H11 UNL     1     -10.563 -17.888  11.085  1.00  0.00     0.174 HD
ENDBRANCH   1  29
TORSDOF 5
ENDMDL
MODEL 5
REMARK VINA RESULT: -6.789276009      2.549      3.377
REMARK  5 active torsions:
REMARK  status: ('A' for Active; 'I' for Inactive)
REMARK    1  A    between atoms: N1_1  and  C1_4 
REMARK    2  A    between atoms: C5_15  and  N5_16 
REMARK    3  A    between atoms: N5_16  and  C6_18 
REMARK    4  A    between atoms: C6_18  and  C7_19 
REMARK    5  A    between atoms: C7_19  and  N6_20 
ROOT
HETATM    1  C1  UNL     1      -8.743 -11.137  10.197  1.00  0.00     0.680 A 
HETATM    2  N2  UNL     1      -7.555 -11.690   9.877  1.00  0.00    -0.154 N 
ATOM      3  H2  UNL     1      -6.738 -11.090   9.760  1.00  0.00     0.187 HD
HETATM    4  C2  UNL     1      -7.431 -13.018   9.711  1.00  0.00     0.292 A 
HETATM    5  O1  UNL     1      -6.291 -13.463   9.414  1.00  0.00    -0.265 OA
HETATM    6  C3  UNL     1      -8.499 -13.874   9.857  1.00  0.00     0.172 A 
HETATM    7  C4  UNL     1      -9.718 -13.301  10.184  1.00  0.00     0.157 A 
HETATM    8  N3  UNL     1      -9.785 -11.975  10.337  1.00  0.00    -0.174 N 
ATOM      9  H3  UNL     1     -10.689 -11.570  10.577  1.00  0.00     0.186 HD
HETATM   10  N4  UNL     1     -10.778 -14.120  10.333  1.00  0.00    -0.323 N 
ATOM     11  H4  UNL     1     -11.683 -13.716  10.574  1.00  0.00     0.169 HD
HETATM   12  C5  UNL     1     -10.682 -15.452  10.173  1.00  0.00     0.151 A 
HETATM   13  C8  UNL     1      -9.447 -15.966   9.847  1.00  0.00     0.189 A 
HETATM   14  N7  UNL     1      -9.074 -17.260   9.630  1.00  0.00    -0.265 N 
ATOM     15  H7  UNL     1      -9.665 -18.090   9.673  1.00  0.00     0.190 HD
HETATM   16  N8  UNL     1      -7.782 -17.209   9.351  1.00  0.00    -0.226 N 
ATOM     17  H8  UNL     1      -7.206 -18.023   9.141  1.00  0.00     0.210 HD
HETATM   18  N9  UNL     1      -7.334 -15.969   9.382  1.00  0.00    -0.219 N 
ATOM     19  H9  UNL     1      -6.377 -15.665   9.203  1.00  0.00     0.210 HD
HETATM   20  N10 UNL     1      -8.353 -15.201   9.686  1.00  0.00    -0.210 N 
ENDROOT
BRANCH  12  21
HETATM   21  N5  UNL     1     -11.720 -16.217  10.322  1.00  0.00    -0.371 N 
ATOM     22  H5  UNL     1     -11.641 -17.223  10.177  1.00  0.00     0.161 HD
BRANCH  21  23
HETATM   23  C6  UNL     1     -12.977 -15.641  10.690  1.00  0.00     0.148 C 
BRANCH  23  24
HETATM   24  C7  UNL     1     -13.473 -16.408  11.922  1.00  0.00     0.249 C 
BRANCH  24  25
HETATM   25  N6  UNL     1     -14.940 -16.419  11.799  1.00  0.00    -0.078 N 
ATOM     26  H63 UNL     1     -15.296 -15.845  11.034  1.00  0.00     0.274 HD
ATOM     27  H62 UNL     1     -15.320 -17.305  11.465  1.00  0.00     0.274 HD
ATOM     28  H61 UNL     1     -15.285 -16.143  12.718  1.00  0.00     0.274 HD
ENDBRANCH  24  25
ENDBRANCH  23  24
ENDBRANCH  21  23
ENDBRANCH  12  21
BRANCH   1  29
HETATM   29  N1  UNL     1      -8.854  -9.855  10.354  1.00  0.00    -0.234 N 
ATOM     30  H12 UNL     1      -8.064  -9.264  10.615  1.00  0.00     0.174 HD
ATOM     31  H11 UNL     1      -9.752  -9.391  10.219  1.00  0.00     0.174 HD
ENDBRANCH   1  29
TORSDOF 5
ENDMDL
