MODEL 1
REMARK VINA RESULT: -7.304042964      0.000      0.000
REMARK  6 active torsions:
REMARK  status: ('A' for Active; 'I' for Inactive)
REMARK    1  A    between atoms: N1_2  and  N2_4 
REMARK    2  A    between atoms: N2_4  and  C2_6 
REMARK    3  A    between atoms: C5_13  and  N5_14 
REMARK    4  A    between atoms: N5_14  and  C6_16 
REMARK    5  A    between atoms: C6_16  and  N6_17 
REMARK    6  A    between atoms: C7_24  and  N10_25 
ROOT
HETATM    1  C2  UNL     1      -9.608 -13.728   8.016  1.00  0.00     0.712 A 
HETATM    2  N3  UNL     1     -10.319 -13.482   6.905  1.00  0.00    -0.178 N 
ATOM      3  H3  UNL     1     -10.724 -14.252   6.371  1.00  0.00     0.185 HD
HETATM    4  C3  UNL     1     -10.492 -12.209   6.504  1.00  0.00     0.109 A 
HETATM    5  C4  UNL     1     -11.274 -11.896   5.278  1.00  0.00     0.090 C 
HETATM    6  N4  UNL     1      -9.945 -11.213   7.233  1.00  0.00    -0.180 N 
ATOM      7  H4  UNL     1     -10.082 -10.252   6.920  1.00  0.00     0.185 HD
HETATM    8  C5  UNL     1      -9.228 -11.425   8.351  1.00  0.00     0.695 A 
HETATM    9  N11 UNL     1      -9.072 -12.725   8.728  1.00  0.00    -0.021 N 
ATOM     10  H11 UNL     1      -8.537 -12.939   9.569  1.00  0.00     0.203 HD
ENDROOT
BRANCH   8  11
HETATM   11  N5  UNL     1      -8.703 -10.471   9.050  1.00  0.00    -0.207 N 
ATOM     12  H5  UNL     1      -8.159  -9.727   8.612  1.00  0.00     0.179 HD
BRANCH  11  13
HETATM   13  C6  UNL     1      -8.923 -10.507  10.485  1.00  0.00     0.309 C 
BRANCH  13  14
HETATM   14  N6  UNL     1      -8.170  -9.512  11.183  1.00  0.00    -0.088 N 
HETATM   15  N7  UNL     1      -8.654  -8.360  11.610  1.00  0.00    -0.209 N 
HETATM   16  N8  UNL     1      -7.652  -7.737  12.196  1.00  0.00    -0.213 N 
ATOM     17  H7  UNL     1      -9.610  -8.021  11.507  1.00  0.00     0.210 HD
HETATM   18  N9  UNL     1      -6.557  -8.476  12.143  1.00  0.00    -0.115 N 
ATOM     19  H8  UNL     1      -7.711  -6.815  12.629  1.00  0.00     0.210 HD
HETATM   20  C7  UNL     1      -6.861  -9.607  11.503  1.00  0.00     0.711 A 
ATOM     21  H9  UNL     1      -5.644  -8.227  12.523  1.00  0.00     0.207 HD
BRANCH  20  22
HETATM   22  N10 UNL     1      -6.122 -10.621  11.215  1.00  0.00    -0.232 N 
ATOM     23 2H10 UNL     1      -6.357 -11.612  11.164  1.00  0.00     0.174 HD
ATOM     24 1H10 UNL     1      -5.130 -10.557  10.983  1.00  0.00     0.174 HD
ENDBRANCH  20  22
ENDBRANCH  13  14
ENDBRANCH  11  13
ENDBRANCH   8  11
BRANCH   1  25
HETATM   25  N2  UNL     1      -9.448 -14.946   8.392  1.00  0.00    -0.136 N 
ATOM     26  H2  UNL     1      -8.533 -15.214   8.754  1.00  0.00     0.205 HD
BRANCH  25  27
HETATM   27  N1  UNL     1     -10.427 -15.919   8.340  1.00  0.00    -0.327 N 
HETATM   28  C1  UNL     1     -10.440 -16.993   9.293  1.00  0.00     0.168 C 
ATOM     29  H1  UNL     1     -11.146 -15.874   7.618  1.00  0.00     0.180 HD
ENDBRANCH  25  27
ENDBRANCH   1  25
TORSDOF 6
ENDMDL
MODEL 2
REMARK VINA RESULT: -7.269180326      0.994      1.163
REMARK  6 active torsions:
REMARK  status: ('A' for Active; 'I' for Inactive)
REMARK    1  A    between atoms: N1_2  and  N2_4 
REMARK    2  A    between atoms: N2_4  and  C2_6 
REMARK    3  A    between atoms: C5_13  and  N5_14 
REMARK    4  A    between atoms: N5_14  and  C6_16 
REMARK    5  A    between atoms: C6_16  and  N6_17 
REMARK    6  A    between atoms: C7_24  and  N10_25 
ROOT
HETATM    1  C2  UNL     1      -9.631 -13.593   7.619  1.00  0.00     0.712 A 
HETATM    2  N3  UNL     1     -10.469 -13.397   6.589  1.00  0.00    -0.178 N 
ATOM      3  H3  UNL     1     -10.939 -14.188   6.149  1.00  0.00     0.185 HD
HETATM    4  C3  UNL     1     -10.682 -12.144   6.146  1.00  0.00     0.109 A 
HETATM    5  C4  UNL     1     -11.603 -11.886   5.007  1.00  0.00     0.090 C 
HETATM    6  N4  UNL     1     -10.046 -11.119   6.751  1.00  0.00    -0.180 N 
ATOM      7  H4  UNL     1     -10.214 -10.174   6.407  1.00  0.00     0.185 HD
HETATM    8  C5  UNL     1      -9.201 -11.280   7.785  1.00  0.00     0.695 A 
HETATM    9  N11 UNL     1      -9.008 -12.561   8.208  1.00  0.00    -0.021 N 
ATOM     10  H11 UNL     1      -8.378 -12.738   8.990  1.00  0.00     0.203 HD
ENDROOT
BRANCH   8  11
HETATM   11  N5  UNL     1      -8.591 -10.299   8.365  1.00  0.00    -0.207 N 
ATOM     12  H5  UNL     1      -8.644  -9.348   7.998  1.00  0.00     0.179 HD
BRANCH  11  13
HETATM   13  C6  UNL     1      -7.828 -10.610   9.560  1.00  0.00     0.309 C 
BRANCH  13  14
HETATM   14  N6  UNL     1      -7.888  -9.569  10.539  1.00  0.00    -0.088 N 
HETATM   15  N7  UNL     1      -7.479  -8.328  10.347  1.00  0.00    -0.209 N 
HETATM   16  N8  UNL     1      -7.702  -7.691  11.480  1.00  0.00    -0.213 N 
ATOM     17  H7  UNL     1      -7.074  -7.941   9.496  1.00  0.00     0.210 HD
HETATM   18  N9  UNL     1      -8.240  -8.509  12.368  1.00  0.00    -0.115 N 
ATOM     19  H8  UNL     1      -7.490  -6.707  11.647  1.00  0.00     0.210 HD
HETATM   20  C7  UNL     1      -8.366  -9.707  11.795  1.00  0.00     0.711 A 
ATOM     21  H9  UNL     1      -8.511  -8.267  13.321  1.00  0.00     0.207 HD
BRANCH  20  22
HETATM   22  N10 UNL     1      -8.835 -10.808  12.270  1.00  0.00    -0.232 N 
ATOM     23 2H10 UNL     1      -8.970 -11.713  11.819  1.00  0.00     0.174 HD
ATOM     24 1H10 UNL     1      -9.156 -10.924  13.231  1.00  0.00     0.174 HD
ENDBRANCH  20  22
ENDBRANCH  13  14
ENDBRANCH  11  13
ENDBRANCH   8  11
BRANCH   1  25
HETATM   25  N2  UNL     1      -9.434 -14.793   8.037  1.00  0.00    -0.136 N 
ATOM     26  H2  UNL     1      -8.471 -15.081   8.210  1.00  0.00     0.205 HD
BRANCH  25  27
HETATM   27  N1  UNL     1     -10.433 -15.718   8.268  1.00  0.00    -0.327 N 
HETATM   28  C1  UNL     1     -11.179 -15.697   9.494  1.00  0.00     0.168 C 
ATOM     29  H1  UNL     1     -10.641 -16.423   7.560  1.00  0.00     0.180 HD
ENDBRANCH  25  27
ENDBRANCH   1  25
TORSDOF 6
ENDMDL
MODEL 3
REMARK VINA RESULT: -7.220821523      1.761      2.791
REMARK  6 active torsions:
REMARK  status: ('A' for Active; 'I' for Inactive)
REMARK    1  A    between atoms: N1_2  and  N2_4 
REMARK    2  A    between atoms: N2_4  and  C2_6 
REMARK    3  A    between atoms: C5_13  and  N5_14 
REMARK    4  A    between atoms: N5_14  and  C6_16 
REMARK    5  A    between atoms: C6_16  and  N6_17 
REMARK    6  A    between atoms: C7_24  and  N10_25 
ROOT
HETATM    1  C2  UNL     1      -8.698 -14.008   8.211  1.00  0.00     0.712 A 
HETATM    2  N3  UNL     1      -9.463 -15.064   8.531  1.00  0.00    -0.178 N 
ATOM      3  H3  UNL     1      -9.377 -15.939   8.014  1.00  0.00     0.185 HD
HETATM    4  C3  UNL     1     -10.345 -14.953   9.541  1.00  0.00     0.109 A 
HETATM    5  C4  UNL     1     -11.211 -16.099   9.926  1.00  0.00     0.090 C 
HETATM    6  N4  UNL     1     -10.434 -13.781  10.206  1.00  0.00    -0.180 N 
ATOM      7  H4  UNL     1     -11.106 -13.708  10.971  1.00  0.00     0.185 HD
HETATM    8  C5  UNL     1      -9.682 -12.706   9.913  1.00  0.00     0.695 A 
HETATM    9  N11 UNL     1      -8.800 -12.853   8.884  1.00  0.00    -0.021 N 
ATOM     10  H11 UNL     1      -8.206 -12.067   8.621  1.00  0.00     0.203 HD
ENDROOT
BRANCH   8  11
HETATM   11  N5  UNL     1      -9.767 -11.583  10.549  1.00  0.00    -0.207 N 
ATOM     12  H5  UNL     1     -10.274 -11.509  11.431  1.00  0.00     0.179 HD
BRANCH  11  13
HETATM   13  C6  UNL     1      -9.110 -10.435   9.952  1.00  0.00     0.309 C 
BRANCH  13  14
HETATM   14  N6  UNL     1      -8.324  -9.698  10.892  1.00  0.00    -0.088 N 
HETATM   15  N7  UNL     1      -8.742  -8.639  11.560  1.00  0.00    -0.209 N 
HETATM   16  N8  UNL     1      -7.730  -8.258  12.312  1.00  0.00    -0.213 N 
ATOM     17  H7  UNL     1      -9.663  -8.204  11.505  1.00  0.00     0.210 HD
HETATM   18  N9  UNL     1      -6.693  -9.057  12.127  1.00  0.00    -0.115 N 
ATOM     19  H8  UNL     1      -7.743  -7.460  12.948  1.00  0.00     0.210 HD
HETATM   20  C7  UNL     1      -7.046  -9.978  11.228  1.00  0.00     0.711 A 
ATOM     21  H9  UNL     1      -5.787  -8.983  12.588  1.00  0.00     0.207 HD
BRANCH  20  22
HETATM   22  N10 UNL     1      -6.370 -10.958  10.737  1.00  0.00    -0.232 N 
ATOM     23 2H10 UNL     1      -5.948 -11.762  11.201  1.00  0.00     0.174 HD
ATOM     24 1H10 UNL     1      -6.157 -11.064   9.745  1.00  0.00     0.174 HD
ENDBRANCH  20  22
ENDBRANCH  13  14
ENDBRANCH  11  13
ENDBRANCH   8  11
BRANCH   1  25
HETATM   25  N2  UNL     1      -7.858 -14.123   7.245  1.00  0.00    -0.136 N 
ATOM     26  H2  UNL     1      -8.106 -13.703   6.350  1.00  0.00     0.205 HD
BRANCH  25  27
HETATM   27  N1  UNL     1      -6.644 -14.776   7.332  1.00  0.00    -0.327 N 
HETATM   28  C1  UNL     1      -5.714 -14.450   8.376  1.00  0.00     0.168 C 
ATOM     29  H1  UNL     1      -6.406 -15.495   6.649  1.00  0.00     0.180 HD
ENDBRANCH  25  27
ENDBRANCH   1  25
TORSDOF 6
ENDMDL
MODEL 4
REMARK VINA RESULT: -7.205729999      0.972      1.067
REMARK  6 active torsions:
REMARK  status: ('A' for Active; 'I' for Inactive)
REMARK    1  A    between atoms: N1_2  and  N2_4 
REMARK    2  A    between atoms: N2_4  and  C2_6 
REMARK    3  A    between atoms: C5_13  and  N5_14 
REMARK    4  A    between atoms: N5_14  and  C6_16 
REMARK    5  A    between atoms: C6_16  and  N6_17 
REMARK    6  A    between atoms: C7_24  and  N10_25 
ROOT
HETATM    1  C2  UNL     1      -9.274 -14.284   8.289  1.00  0.00     0.712 A 
HETATM    2  N3  UNL     1     -10.111 -13.893   7.315  1.00  0.00    -0.178 N 
ATOM      3  H3  UNL     1     -10.777 -14.552   6.912  1.00  0.00     0.185 HD
HETATM    4  C3  UNL     1     -10.061 -12.621   6.878  1.00  0.00     0.109 A 
HETATM    5  C4  UNL     1     -10.972 -12.150   5.801  1.00  0.00     0.090 C 
HETATM    6  N4  UNL     1      -9.170 -11.772   7.433  1.00  0.00    -0.180 N 
ATOM      7  H4  UNL     1      -9.140 -10.811   7.094  1.00  0.00     0.185 HD
HETATM    8  C5  UNL     1      -8.318 -12.131   8.410  1.00  0.00     0.695 A 
HETATM    9  N11 UNL     1      -8.395 -13.425   8.829  1.00  0.00    -0.021 N 
ATOM     10  H11 UNL     1      -7.772 -13.748   9.568  1.00  0.00     0.203 HD
ENDROOT
BRANCH   8  11
HETATM   11  N5  UNL     1      -7.464 -11.319   8.942  1.00  0.00    -0.207 N 
ATOM     12  H5  UNL     1      -6.912 -10.678   8.372  1.00  0.00     0.179 HD
BRANCH  11  13
HETATM   13  C6  UNL     1      -7.326 -11.360  10.387  1.00  0.00     0.309 C 
BRANCH  13  14
HETATM   14  N6  UNL     1      -7.665 -10.118  11.009  1.00  0.00    -0.088 N 
HETATM   15  N7  UNL     1      -8.758  -9.421  10.757  1.00  0.00    -0.209 N 
HETATM   16  N8  UNL     1      -8.696  -8.353  11.526  1.00  0.00    -0.213 N 
ATOM     17  H7  UNL     1      -9.500  -9.660  10.099  1.00  0.00     0.210 HD
HETATM   18  N9  UNL     1      -7.590  -8.372  12.251  1.00  0.00    -0.115 N 
ATOM     19  H8  UNL     1      -9.401  -7.615  11.559  1.00  0.00     0.210 HD
HETATM   20  C7  UNL     1      -6.919  -9.482  11.938  1.00  0.00     0.711 A 
ATOM     21  H9  UNL     1      -7.302  -7.665  12.927  1.00  0.00     0.207 HD
BRANCH  20  22
HETATM   22  N10 UNL     1      -5.796  -9.925  12.385  1.00  0.00    -0.232 N 
ATOM     23 2H10 UNL     1      -4.858  -9.854  11.990  1.00  0.00     0.174 HD
ATOM     24 1H10 UNL     1      -5.693 -10.442  13.259  1.00  0.00     0.174 HD
ENDBRANCH  20  22
ENDBRANCH  13  14
ENDBRANCH  11  13
ENDBRANCH   8  11
BRANCH   1  25
HETATM   25  N2  UNL     1      -9.329 -15.500   8.700  1.00  0.00    -0.136 N 
ATOM     26  H2  UNL     1      -8.478 -15.907   9.088  1.00  0.00     0.205 HD
BRANCH  25  27
HETATM   27  N1  UNL     1     -10.458 -16.294   8.656  1.00  0.00    -0.327 N 
HETATM   28  C1  UNL     1     -11.376 -16.321   9.758  1.00  0.00     0.168 C 
ATOM     29  H1  UNL     1     -10.640 -16.867   7.832  1.00  0.00     0.180 HD
ENDBRANCH  25  27
ENDBRANCH   1  25
TORSDOF 6
ENDMDL
MODEL 5
REMARK VINA RESULT: -7.118120984      1.317      1.657
REMARK  6 active torsions:
REMARK  status: ('A' for Active; 'I' for Inactive)
REMARK    1  A    between atoms: N1_2  and  N2_4 
REMARK    2  A    between atoms: N2_4  and  C2_6 
REMARK    3  A    between atoms: C5_13  and  N5_14 
REMARK    4  A    between atoms: N5_14  and  C6_16 
REMARK    5  A    between atoms: C6_16  and  N6_17 
REMARK    6  A    between atoms: C7_24  and  N10_25 
ROOT
HETATM    1  C2  UNL     1      -8.744 -13.353   7.784  1.00  0.00     0.712 A 
HETATM    2  N3  UNL     1      -9.593 -13.311   6.745  1.00  0.00    -0.178 N 
ATOM      3  H3  UNL     1      -9.699 -14.120   6.132  1.00  0.00     0.185 HD
HETATM    4  C3  UNL     1     -10.303 -12.189   6.522  1.00  0.00     0.109 A 
HETATM    5  C4  UNL     1     -11.254 -12.104   5.382  1.00  0.00     0.090 C 
HETATM    6  N4  UNL     1     -10.141 -11.137   7.352  1.00  0.00    -0.180 N 
ATOM      7  H4  UNL     1     -10.684 -10.292   7.174  1.00  0.00     0.185 HD
HETATM    8  C5  UNL     1      -9.301 -11.146   8.402  1.00  0.00     0.695 A 
HETATM    9  N11 UNL     1      -8.598 -12.296   8.598  1.00  0.00    -0.021 N 
ATOM     10  H11 UNL     1      -7.946 -12.355   9.381  1.00  0.00     0.203 HD
ENDROOT
BRANCH   8  11
HETATM   11  N5  UNL     1      -9.145 -10.138   9.197  1.00  0.00    -0.207 N 
ATOM     12  H5  UNL     1      -9.150  -9.179   8.848  1.00  0.00     0.179 HD
BRANCH  11  13
HETATM   13  C6  UNL     1      -8.963 -10.432  10.607  1.00  0.00     0.309 C 
BRANCH  13  14
HETATM   14  N6  UNL     1      -8.167  -9.451  11.277  1.00  0.00    -0.088 N 
HETATM   15  N7  UNL     1      -8.623  -8.307  11.755  1.00  0.00    -0.209 N 
HETATM   16  N8  UNL     1      -7.585  -7.696  12.290  1.00  0.00    -0.213 N 
ATOM     17  H7  UNL     1      -9.583  -7.966  11.717  1.00  0.00     0.210 HD
HETATM   18  N9  UNL     1      -6.497  -8.435  12.156  1.00  0.00    -0.115 N 
ATOM     19  H8  UNL     1      -7.617  -6.783  12.744  1.00  0.00     0.210 HD
HETATM   20  C7  UNL     1      -6.842  -9.553  11.514  1.00  0.00     0.711 A 
ATOM     21  H9  UNL     1      -5.562  -8.194  12.485  1.00  0.00     0.207 HD
BRANCH  20  22
HETATM   22  N10 UNL     1      -6.123 -10.562  11.163  1.00  0.00    -0.232 N 
ATOM     23 2H10 UNL     1      -5.206 -10.861  11.493  1.00  0.00     0.174 HD
ATOM     24 1H10 UNL     1      -6.402 -11.243  10.456  1.00  0.00     0.174 HD
ENDBRANCH  20  22
ENDBRANCH  13  14
ENDBRANCH  11  13
ENDBRANCH   8  11
BRANCH   1  25
HETATM   25  N2  UNL     1      -8.070 -14.427   7.989  1.00  0.00    -0.136 N 
ATOM     26  H2  UNL     1      -8.472 -15.126   8.615  1.00  0.00     0.205 HD
BRANCH  25  27
HETATM   27  N1  UNL     1      -6.841 -14.705   7.423  1.00  0.00    -0.327 N 
HETATM   28  C1  UNL     1      -5.651 -14.703   8.225  1.00  0.00     0.168 C 
ATOM     29  H1  UNL     1      -6.779 -14.913   6.427  1.00  0.00     0.180 HD
ENDBRANCH  25  27
ENDBRANCH   1  25
TORSDOF 6
ENDMDL
