MODEL 1
REMARK VINA RESULT: -8.293227374      0.000      0.000
REMARK  2 active torsions:
REMARK  status: ('A' for Active; 'I' for Inactive)
REMARK    1  A    between atoms: C8_11  and  O1_12 
REMARK    2  A    between atoms: O1_12  and  N3_13 
ROOT
HETATM    1  C1  UNL     1       6.613 -15.188   3.644  1.00  0.00     0.044 C 
HETATM    2  C2  UNL     1       6.250 -13.931   3.570  1.00  0.00     0.040 A 
HETATM    3  N1  UNL     1       6.595 -12.980   4.461  1.00  0.00    -0.354 N 
ATOM      4  H1  UNL     1       7.175 -13.141   5.285  1.00  0.00     0.166 HD
HETATM    5  C3  UNL     1       6.077 -11.799   4.119  1.00  0.00     0.072 A 
HETATM    6  C4  UNL     1       6.208 -10.650   4.759  1.00  0.00     0.125 C 
HETATM    7  C5  UNL     1       6.972 -10.543   5.966  1.00  0.00     0.090 C 
HETATM    8  N2  UNL     1       7.599 -10.448   6.947  1.00  0.00    -0.192 NA
HETATM    9  C6  UNL     1       5.366 -12.032   2.946  1.00  0.00     0.093 A 
HETATM   10  C7  UNL     1       5.456 -13.357   2.577  1.00  0.00     0.075 A 
HETATM   11  C8  UNL     1       4.862 -13.826   1.491  1.00  0.00     0.201 A 
HETATM   12  N6  UNL     1       4.114 -12.917   0.696  1.00  0.00    -0.263 N 
ATOM     13  H6  UNL     1       3.639 -13.229  -0.150  1.00  0.00     0.190 HD
HETATM   14  N7  UNL     1       4.049 -11.589   1.105  1.00  0.00    -0.240 N 
ATOM     15  H7  UNL     1       3.517 -10.921   0.547  1.00  0.00     0.208 HD
HETATM   16  N8  UNL     1       4.693 -11.153   2.254  1.00  0.00    -0.283 N 
ATOM     17  H8  UNL     1       4.642 -10.177   2.549  1.00  0.00     0.188 HD
ENDROOT
BRANCH  11  18
HETATM   18  O1  UNL     1       4.982 -15.167   1.161  1.00  0.00    -0.215 OA
BRANCH  18  19
HETATM   19  N3  UNL     1       5.634 -15.547  -0.005  1.00  0.00    -0.233 N 
HETATM   20  C9  UNL     1       5.474 -16.733  -0.450  1.00  0.00     0.221 C 
HETATM   21  N4  UNL     1       4.654 -17.663   0.216  1.00  0.00    -0.065 NA
HETATM   22  N5  UNL     1       6.143 -17.121  -1.643  1.00  0.00    -0.065 NA
ATOM     23  H3  UNL     1       6.232 -14.886  -0.501  1.00  0.00     0.197 HD
ENDBRANCH  18  19
ENDBRANCH  11  18
TORSDOF 2
ENDMDL
MODEL 2
REMARK VINA RESULT: -7.681594292      1.524      2.634
REMARK  2 active torsions:
REMARK  status: ('A' for Active; 'I' for Inactive)
REMARK    1  A    between atoms: C8_11  and  O1_12 
REMARK    2  A    between atoms: O1_12  and  N3_13 
ROOT
HETATM    1  C1  UNL     1       4.236 -12.215   1.194  1.00  0.00     0.044 C 
HETATM    2  C2  UNL     1       5.063 -12.576   2.145  1.00  0.00     0.040 A 
HETATM    3  N1  UNL     1       5.342 -11.838   3.238  1.00  0.00    -0.354 N 
ATOM      4  H1  UNL     1       4.939 -10.922   3.437  1.00  0.00     0.166 HD
HETATM    5  C3  UNL     1       6.218 -12.467   4.024  1.00  0.00     0.072 A 
HETATM    6  C4  UNL     1       6.715 -12.042   5.172  1.00  0.00     0.125 C 
HETATM    7  C5  UNL     1       6.343 -10.777   5.732  1.00  0.00     0.090 C 
HETATM    8  N2  UNL     1       6.037  -9.750   6.197  1.00  0.00    -0.192 NA
HETATM    9  C6  UNL     1       6.498 -13.668   3.379  1.00  0.00     0.093 A 
HETATM   10  C7  UNL     1       5.790 -13.764   2.200  1.00  0.00     0.075 A 
HETATM   11  C8  UNL     1       5.889 -14.819   1.406  1.00  0.00     0.201 A 
HETATM   12  N6  UNL     1       6.757 -15.872   1.801  1.00  0.00    -0.263 N 
ATOM     13  H6  UNL     1       6.867 -16.705   1.224  1.00  0.00     0.190 HD
HETATM   14  N7  UNL     1       7.453 -15.733   2.998  1.00  0.00    -0.240 N 
ATOM     15  H7  UNL     1       8.081 -16.478   3.298  1.00  0.00     0.208 HD
HETATM   16  N8  UNL     1       7.310 -14.603   3.791  1.00  0.00    -0.283 N 
ATOM     17  H8  UNL     1       7.823 -14.508   4.668  1.00  0.00     0.188 HD
ENDROOT
BRANCH  11  18
HETATM   18  O1  UNL     1       5.156 -14.870   0.231  1.00  0.00    -0.215 OA
BRANCH  18  19
HETATM   19  N3  UNL     1       5.801 -14.847  -1.000  1.00  0.00    -0.233 N 
HETATM   20  C9  UNL     1       6.105 -15.950  -1.565  1.00  0.00     0.221 C 
HETATM   21  N4  UNL     1       5.801 -17.188  -0.969  1.00  0.00    -0.065 NA
HETATM   22  N5  UNL     1       6.765 -15.924  -2.824  1.00  0.00    -0.065 NA
ATOM     23  H3  UNL     1       6.029 -13.958  -1.446  1.00  0.00     0.197 HD
ENDBRANCH  18  19
ENDBRANCH  11  18
TORSDOF 2
ENDMDL
MODEL 3
REMARK VINA RESULT: -7.468375997      1.479      2.617
REMARK  2 active torsions:
REMARK  status: ('A' for Active; 'I' for Inactive)
REMARK    1  A    between atoms: C8_11  and  O1_12 
REMARK    2  A    between atoms: O1_12  and  N3_13 
ROOT
HETATM    1  C1  UNL     1       3.926 -12.752   1.340  1.00  0.00     0.044 C 
HETATM    2  C2  UNL     1       4.848 -12.991   2.240  1.00  0.00     0.040 A 
HETATM    3  N1  UNL     1       5.186 -12.145   3.235  1.00  0.00    -0.354 N 
ATOM      4  H1  UNL     1       4.760 -11.231   3.388  1.00  0.00     0.166 HD
HETATM    5  C3  UNL     1       6.155 -12.665   3.991  1.00  0.00     0.072 A 
HETATM    6  C4  UNL     1       6.730 -12.117   5.047  1.00  0.00     0.125 C 
HETATM    7  C5  UNL     1       6.348 -10.822   5.525  1.00  0.00     0.090 C 
HETATM    8  N2  UNL     1       6.036  -9.768   5.923  1.00  0.00    -0.192 NA
HETATM    9  C6  UNL     1       6.434 -13.908   3.431  1.00  0.00     0.093 A 
HETATM   10  C7  UNL     1       5.632 -14.140   2.335  1.00  0.00     0.075 A 
HETATM   11  C8  UNL     1       5.711 -15.259   1.631  1.00  0.00     0.201 A 
HETATM   12  N6  UNL     1       6.658 -16.236   2.037  1.00  0.00    -0.263 N 
ATOM     13  H6  UNL     1       6.756 -17.114   1.528  1.00  0.00     0.190 HD
HETATM   14  N7  UNL     1       7.447 -15.961   3.149  1.00  0.00    -0.240 N 
ATOM     15  H7  UNL     1       8.133 -16.651   3.456  1.00  0.00     0.208 HD
HETATM   16  N8  UNL     1       7.322 -14.770   3.849  1.00  0.00    -0.283 N 
ATOM     17  H8  UNL     1       7.903 -14.574   4.664  1.00  0.00     0.188 HD
ENDROOT
BRANCH  11  18
HETATM   18  O1  UNL     1       4.882 -15.446   0.536  1.00  0.00    -0.215 OA
BRANCH  18  19
HETATM   19  N3  UNL     1       5.358 -16.084  -0.604  1.00  0.00    -0.233 N 
HETATM   20  C9  UNL     1       5.146 -17.334  -0.753  1.00  0.00     0.221 C 
HETATM   21  N4  UNL     1       4.443 -18.079   0.212  1.00  0.00    -0.065 NA
HETATM   22  N5  UNL     1       5.634 -17.984  -1.919  1.00  0.00    -0.065 NA
ATOM     23  H3  UNL     1       5.870 -15.558  -1.312  1.00  0.00     0.197 HD
ENDBRANCH  18  19
ENDBRANCH  11  18
TORSDOF 2
ENDMDL
MODEL 4
REMARK VINA RESULT: -7.355125437      1.930      6.652
REMARK  2 active torsions:
REMARK  status: ('A' for Active; 'I' for Inactive)
REMARK    1  A    between atoms: C8_11  and  O1_12 
REMARK    2  A    between atoms: O1_12  and  N3_13 
ROOT
HETATM    1  C1  UNL     1       4.829 -12.586   0.992  1.00  0.00     0.044 C 
HETATM    2  C2  UNL     1       5.491 -13.717   0.985  1.00  0.00     0.040 A 
HETATM    3  N1  UNL     1       5.653 -14.504  -0.098  1.00  0.00    -0.354 N 
ATOM      4  H1  UNL     1       5.276 -14.300  -1.024  1.00  0.00     0.166 HD
HETATM    5  C3  UNL     1       6.373 -15.586   0.205  1.00  0.00     0.072 A 
HETATM    6  C4  UNL     1       6.724 -16.569  -0.606  1.00  0.00     0.125 C 
HETATM    7  C5  UNL     1       6.346 -16.577  -1.987  1.00  0.00     0.090 C 
HETATM    8  N2  UNL     1       6.047 -16.585  -3.117  1.00  0.00    -0.192 NA
HETATM    9  C6  UNL     1       6.675 -15.463   1.558  1.00  0.00     0.093 A 
HETATM   10  C7  UNL     1       6.137 -14.303   2.074  1.00  0.00     0.075 A 
HETATM   11  C8  UNL     1       6.289 -13.962   3.344  1.00  0.00     0.201 A 
HETATM   12  N6  UNL     1       7.034 -14.834   4.183  1.00  0.00    -0.263 N 
ATOM     13  H6  UNL     1       7.179 -14.616   5.168  1.00  0.00     0.190 HD
HETATM   14  N7  UNL     1       7.558 -15.994   3.622  1.00  0.00    -0.240 N 
ATOM     15  H7  UNL     1       8.096 -16.632   4.208  1.00  0.00     0.208 HD
HETATM   16  N8  UNL     1       7.367 -16.300   2.282  1.00  0.00    -0.283 N 
ATOM     17  H8  UNL     1       7.755 -17.152   1.876  1.00  0.00     0.188 HD
ENDROOT
BRANCH  11  18
HETATM   18  O1  UNL     1       5.729 -12.786   3.816  1.00  0.00    -0.215 OA
BRANCH  18  19
HETATM   19  N3  UNL     1       6.215 -12.192   4.975  1.00  0.00    -0.233 N 
HETATM   20  C9  UNL     1       6.397 -10.929   4.999  1.00  0.00     0.221 C 
HETATM   21  N4  UNL     1       6.118 -10.126   3.878  1.00  0.00    -0.065 NA
HETATM   22  N5  UNL     1       6.895 -10.324   6.186  1.00  0.00    -0.065 NA
ATOM     23  H3  UNL     1       6.423 -12.760   5.796  1.00  0.00     0.197 HD
ENDBRANCH  18  19
ENDBRANCH  11  18
TORSDOF 2
ENDMDL
MODEL 5
REMARK VINA RESULT: -7.274380253      1.875      6.262
REMARK  2 active torsions:
REMARK  status: ('A' for Active; 'I' for Inactive)
REMARK    1  A    between atoms: C8_11  and  O1_12 
REMARK    2  A    between atoms: O1_12  and  N3_13 
ROOT
HETATM    1  C1  UNL     1       6.982 -16.503   3.724  1.00  0.00     0.044 C 
HETATM    2  C2  UNL     1       6.683 -16.026   2.540  1.00  0.00     0.040 A 
HETATM    3  N1  UNL     1       6.428 -16.780   1.451  1.00  0.00    -0.354 N 
ATOM      4  H1  UNL     1       6.444 -17.800   1.437  1.00  0.00     0.166 HD
HETATM    5  C3  UNL     1       6.155 -16.011   0.396  1.00  0.00     0.072 A 
HETATM    6  C4  UNL     1       5.861 -16.407  -0.830  1.00  0.00     0.125 C 
HETATM    7  C5  UNL     1       5.800 -17.795  -1.179  1.00  0.00     0.090 C 
HETATM    8  N2  UNL     1       5.742 -18.926  -1.467  1.00  0.00    -0.192 NA
HETATM    9  C6  UNL     1       6.245 -14.702   0.858  1.00  0.00     0.093 A 
HETATM   10  C7  UNL     1       6.574 -14.679   2.196  1.00  0.00     0.075 A 
HETATM   11  C8  UNL     1       6.718 -13.545   2.865  1.00  0.00     0.201 A 
HETATM   12  N6  UNL     1       6.523 -12.327   2.161  1.00  0.00    -0.263 N 
ATOM     13  H6  UNL     1       6.622 -11.428   2.631  1.00  0.00     0.190 HD
HETATM   14  N7  UNL     1       6.193 -12.396   0.812  1.00  0.00    -0.240 N 
ATOM     15  H7  UNL     1       6.049 -11.532   0.289  1.00  0.00     0.208 HD
HETATM   16  N8  UNL     1       6.055 -13.614   0.161  1.00  0.00    -0.283 N 
ATOM     17  H8  UNL     1       5.812 -13.658  -0.829  1.00  0.00     0.188 HD
ENDROOT
BRANCH  11  18
HETATM   18  O1  UNL     1       7.049 -13.574   4.210  1.00  0.00    -0.215 OA
BRANCH  18  19
HETATM   19  N3  UNL     1       7.618 -12.461   4.817  1.00  0.00    -0.233 N 
HETATM   20  C9  UNL     1       6.858 -11.572   5.327  1.00  0.00     0.221 C 
HETATM   21  N4  UNL     1       5.456 -11.695   5.288  1.00  0.00    -0.065 NA
HETATM   22  N5  UNL     1       7.442 -10.434   5.947  1.00  0.00    -0.065 NA
ATOM     23  H3  UNL     1       8.632 -12.356   4.854  1.00  0.00     0.197 HD
ENDBRANCH  18  19
ENDBRANCH  11  18
TORSDOF 2
ENDMDL
