MODEL 1
REMARK VINA RESULT: -6.404727188      0.000      0.000
REMARK  5 active torsions:
REMARK  status: ('A' for Active; 'I' for Inactive)
REMARK    1  A    between atoms: C1_2  and  C2_4 
REMARK    2  A    between atoms: N2_6  and  N3_7 
REMARK    3  A    between atoms: N3_7  and  N4_8 
REMARK    4  A    between atoms: N3_7  and  N5_11 
REMARK    5  A    between atoms: N8_19  and  O2_20 
ROOT
HETATM    1  C2  UNL     1       6.029 -14.695   3.005  1.00  0.00     0.099 A 
HETATM    2  C3  UNL     1       6.797 -13.926   3.845  1.00  0.00     0.143 A 
HETATM    3  N2  UNL     1       6.738 -12.585   3.850  1.00  0.00    -0.211 N 
HETATM    4  C4  UNL     1       5.909 -11.927   3.016  1.00  0.00     0.181 A 
HETATM    5  N6  UNL     1       5.614 -10.642   2.772  1.00  0.00    -0.265 N 
ATOM      6  H6  UNL     1       6.035  -9.844   3.249  1.00  0.00     0.190 HD
HETATM    7  N7  UNL     1       4.700 -10.561   1.825  1.00  0.00    -0.214 N 
ATOM      8  H7  UNL     1       4.317  -9.685   1.469  1.00  0.00     0.211 HD
HETATM    9  N8  UNL     1       4.343 -11.762   1.394  1.00  0.00    -0.141 N 
HETATM   10  C5  UNL     1       5.051 -12.681   2.081  1.00  0.00     0.180 A 
HETATM   11  C6  UNL     1       5.158 -14.055   2.125  1.00  0.00     0.223 A 
HETATM   12  O3  UNL     1       4.441 -14.730   1.341  1.00  0.00    -0.285 OA
ENDROOT
BRANCH   3  13
HETATM   13  N3  UNL     1       7.548 -11.865   4.724  1.00  0.00    -0.136 N 
BRANCH  13  14
HETATM   14  N4  UNL     1       8.935 -11.872   4.469  1.00  0.00    -0.309 N 
ATOM     15  H42 UNL     1       9.348 -11.124   3.910  1.00  0.00     0.180 HD
ATOM     16  H41 UNL     1       9.477 -12.638   4.868  1.00  0.00     0.180 HD
ENDBRANCH  13  14
BRANCH  13  17
HETATM   17  N5  UNL     1       7.055 -11.160   5.823  1.00  0.00    -0.309 N 
ATOM     18  H52 UNL     1       6.684 -11.672   6.623  1.00  0.00     0.180 HD
ATOM     19  H51 UNL     1       7.035 -10.142   5.873  1.00  0.00     0.180 HD
ENDBRANCH  13  17
ENDBRANCH   3  13
BRANCH   1  20
HETATM   20  C1  UNL     1       6.082 -16.148   3.032  1.00  0.00     0.270 C 
HETATM   21  N1  UNL     1       6.757 -16.934   2.072  1.00  0.00    -0.057 NA
HETATM   22  O1  UNL     1       5.491 -16.770   3.977  1.00  0.00    -0.271 OA
ENDBRANCH   1  20
BRANCH   9  23
HETATM   23  O2  UNL     1       3.415 -12.085   0.413  1.00  0.00    -0.266 OA
ATOM     24  H2  UNL     1       3.457 -12.782  -0.232  1.00  0.00     0.247 HD
ENDBRANCH   9  23
TORSDOF 5
ENDMDL
MODEL 2
REMARK VINA RESULT: -6.365622794      2.334      4.098
REMARK  5 active torsions:
REMARK  status: ('A' for Active; 'I' for Inactive)
REMARK    1  A    between atoms: C1_2  and  C2_4 
REMARK    2  A    between atoms: N2_6  and  N3_7 
REMARK    3  A    between atoms: N3_7  and  N4_8 
REMARK    4  A    between atoms: N3_7  and  N5_11 
REMARK    5  A    between atoms: N8_19  and  O2_20 
ROOT
HETATM    1  C2  UNL     1       6.814 -11.970   3.642  1.00  0.00     0.099 A 
HETATM    2  C3  UNL     1       7.289 -13.258   3.687  1.00  0.00     0.143 A 
HETATM    3  N2  UNL     1       6.765 -14.246   2.945  1.00  0.00    -0.211 N 
HETATM    4  C4  UNL     1       5.733 -14.010   2.110  1.00  0.00     0.181 A 
HETATM    5  N6  UNL     1       5.001 -14.741   1.257  1.00  0.00    -0.265 N 
ATOM      6  H6  UNL     1       5.129 -15.739   1.083  1.00  0.00     0.190 HD
HETATM    7  N7  UNL     1       4.093 -13.982   0.676  1.00  0.00    -0.214 N 
ATOM      8  H7  UNL     1       3.418 -14.316  -0.012  1.00  0.00     0.211 HD
HETATM    9  N8  UNL     1       4.168 -12.728   1.101  1.00  0.00    -0.141 N 
HETATM   10  C5  UNL     1       5.166 -12.651   2.004  1.00  0.00     0.180 A 
HETATM   11  C6  UNL     1       5.748 -11.681   2.793  1.00  0.00     0.223 A 
HETATM   12  O3  UNL     1       5.288 -10.511   2.728  1.00  0.00    -0.285 OA
ENDROOT
BRANCH   3  13
HETATM   13  N3  UNL     1       7.290 -15.533   3.042  1.00  0.00    -0.136 N 
BRANCH  13  14
HETATM   14  N4  UNL     1       8.187 -15.938   2.032  1.00  0.00    -0.309 N 
ATOM     15  H42 UNL     1       8.238 -15.408   1.161  1.00  0.00     0.180 HD
ATOM     16  H41 UNL     1       8.763 -16.757   2.224  1.00  0.00     0.180 HD
ENDBRANCH  13  14
BRANCH  13  17
HETATM   17  N5  UNL     1       6.964 -16.419   4.069  1.00  0.00    -0.309 N 
ATOM     18  H52 UNL     1       7.683 -17.033   4.451  1.00  0.00     0.180 HD
ATOM     19  H51 UNL     1       6.028 -16.496   4.467  1.00  0.00     0.180 HD
ENDBRANCH  13  17
ENDBRANCH   3  13
BRANCH   1  20
HETATM   20  C1  UNL     1       7.412 -10.906   4.432  1.00  0.00     0.270 C 
HETATM   21  N1  UNL     1       7.058 -10.615   5.768  1.00  0.00    -0.057 NA
HETATM   22  O1  UNL     1       8.317 -10.178   3.903  1.00  0.00    -0.271 OA
ENDBRANCH   1  20
BRANCH   9  23
HETATM   23  O2  UNL     1       3.387 -11.643   0.725  1.00  0.00    -0.266 OA
ATOM     24  H2  UNL     1       3.542 -10.721   0.891  1.00  0.00     0.247 HD
ENDBRANCH   9  23
TORSDOF 5
ENDMDL
MODEL 3
REMARK VINA RESULT: -6.078603595      1.342      4.003
REMARK  5 active torsions:
REMARK  status: ('A' for Active; 'I' for Inactive)
REMARK    1  A    between atoms: C1_2  and  C2_4 
REMARK    2  A    between atoms: N2_6  and  N3_7 
REMARK    3  A    between atoms: N3_7  and  N4_8 
REMARK    4  A    between atoms: N3_7  and  N5_11 
REMARK    5  A    between atoms: N8_19  and  O2_20 
ROOT
HETATM    1  C2  UNL     1       5.033 -12.194   2.190  1.00  0.00     0.099 A 
HETATM    2  C3  UNL     1       5.832 -11.722   3.203  1.00  0.00     0.143 A 
HETATM    3  N2  UNL     1       6.612 -12.527   3.941  1.00  0.00    -0.211 N 
HETATM    4  C4  UNL     1       6.644 -13.856   3.715  1.00  0.00     0.181 A 
HETATM    5  N6  UNL     1       7.288 -14.905   4.246  1.00  0.00    -0.265 N 
ATOM      6  H6  UNL     1       7.950 -14.854   5.020  1.00  0.00     0.190 HD
HETATM    7  N7  UNL     1       6.939 -16.012   3.620  1.00  0.00    -0.214 N 
ATOM      8  H7  UNL     1       7.298 -16.939   3.847  1.00  0.00     0.211 HD
HETATM    9  N8  UNL     1       6.062 -15.767   2.656  1.00  0.00    -0.141 N 
HETATM   10  C5  UNL     1       5.814 -14.441   2.643  1.00  0.00     0.180 A 
HETATM   11  C6  UNL     1       5.036 -13.562   1.921  1.00  0.00     0.223 A 
HETATM   12  O3  UNL     1       4.315 -14.028   1.000  1.00  0.00    -0.285 OA
ENDROOT
BRANCH   3  13
HETATM   13  N3  UNL     1       7.394 -11.984   4.958  1.00  0.00    -0.136 N 
BRANCH  13  14
HETATM   14  N4  UNL     1       6.763 -11.086   5.843  1.00  0.00    -0.309 N 
ATOM     15  H42 UNL     1       6.165 -11.448   6.587  1.00  0.00     0.180 HD
ATOM     16  H41 UNL     1       6.943 -10.092   5.702  1.00  0.00     0.180 HD
ENDBRANCH  13  14
BRANCH  13  17
HETATM   17  N5  UNL     1       8.747 -12.280   5.126  1.00  0.00    -0.309 N 
ATOM     18  H52 UNL     1       9.285 -12.639   4.337  1.00  0.00     0.180 HD
ATOM     19  H51 UNL     1       9.241 -12.164   6.011  1.00  0.00     0.180 HD
ENDBRANCH  13  17
ENDBRANCH   3  13
BRANCH   1  20
HETATM   20  C1  UNL     1       4.217 -11.305   1.380  1.00  0.00     0.270 C 
HETATM   21  N1  UNL     1       2.839 -11.499   1.133  1.00  0.00    -0.057 NA
HETATM   22  O1  UNL     1       4.759 -10.277   0.853  1.00  0.00    -0.271 OA
ENDBRANCH   1  20
BRANCH   9  23
HETATM   23  O2  UNL     1       5.465 -16.668   1.785  1.00  0.00    -0.266 OA
ATOM     24  H2  UNL     1       4.540 -16.860   1.678  1.00  0.00     0.247 HD
ENDBRANCH   9  23
TORSDOF 5
ENDMDL
MODEL 4
REMARK VINA RESULT: -6.013373197      2.563      4.192
REMARK  5 active torsions:
REMARK  status: ('A' for Active; 'I' for Inactive)
REMARK    1  A    between atoms: C1_2  and  C2_4 
REMARK    2  A    between atoms: N2_6  and  N3_7 
REMARK    3  A    between atoms: N3_7  and  N4_8 
REMARK    4  A    between atoms: N3_7  and  N5_11 
REMARK    5  A    between atoms: N8_19  and  O2_20 
ROOT
HETATM    1  C2  UNL     1       6.533 -11.849   4.603  1.00  0.00     0.099 A 
HETATM    2  C3  UNL     1       6.758 -13.204   4.587  1.00  0.00     0.143 A 
HETATM    3  N2  UNL     1       6.453 -13.972   3.530  1.00  0.00    -0.211 N 
HETATM    4  C4  UNL     1       5.902 -13.437   2.422  1.00  0.00     0.181 A 
HETATM    5  N6  UNL     1       5.491 -13.901   1.233  1.00  0.00    -0.265 N 
ATOM      6  H6  UNL     1       5.536 -14.877   0.939  1.00  0.00     0.190 HD
HETATM    7  N7  UNL     1       5.022 -12.910   0.500  1.00  0.00    -0.214 N 
ATOM      8  H7  UNL     1       4.651 -13.019  -0.444  1.00  0.00     0.211 HD
HETATM    9  N8  UNL     1       5.092 -11.755   1.146  1.00  0.00    -0.141 N 
HETATM   10  C5  UNL     1       5.629 -11.987   2.361  1.00  0.00     0.180 A 
HETATM   11  C6  UNL     1       5.965 -11.253   3.478  1.00  0.00     0.223 A 
HETATM   12  O3  UNL     1       5.745 -10.014   3.461  1.00  0.00    -0.285 OA
ENDROOT
BRANCH   3  13
HETATM   13  N3  UNL     1       6.702 -15.342   3.580  1.00  0.00    -0.136 N 
BRANCH  13  14
HETATM   14  N4  UNL     1       5.793 -16.134   4.311  1.00  0.00    -0.309 N 
ATOM     15  H42 UNL     1       4.873 -15.759   4.545  1.00  0.00     0.180 HD
ATOM     16  H41 UNL     1       6.100 -17.070   4.575  1.00  0.00     0.180 HD
ENDBRANCH  13  14
BRANCH  13  17
HETATM   17  N5  UNL     1       7.795 -15.946   2.957  1.00  0.00    -0.309 N 
ATOM     18  H52 UNL     1       7.923 -16.955   3.033  1.00  0.00     0.180 HD
ATOM     19  H51 UNL     1       8.493 -15.428   2.425  1.00  0.00     0.180 HD
ENDBRANCH  13  17
ENDBRANCH   3  13
BRANCH   1  20
HETATM   20  C1  UNL     1       6.897 -11.026   5.745  1.00  0.00     0.270 C 
HETATM   21  N1  UNL     1       6.053 -10.049   6.320  1.00  0.00    -0.057 NA
HETATM   22  O1  UNL     1       8.047 -11.181   6.277  1.00  0.00    -0.271 OA
ENDBRANCH   1  20
BRANCH   9  23
HETATM   23  O2  UNL     1       4.699 -10.498   0.708  1.00  0.00    -0.266 OA
ATOM     24  H2  UNL     1       4.623 -10.181  -0.185  1.00  0.00     0.247 HD
ENDBRANCH   9  23
TORSDOF 5
ENDMDL
MODEL 5
REMARK VINA RESULT: -5.805350608      3.124      4.973
REMARK  5 active torsions:
REMARK  status: ('A' for Active; 'I' for Inactive)
REMARK    1  A    between atoms: C1_2  and  C2_4 
REMARK    2  A    between atoms: N2_6  and  N3_7 
REMARK    3  A    between atoms: N3_7  and  N4_8 
REMARK    4  A    between atoms: N3_7  and  N5_11 
REMARK    5  A    between atoms: N8_19  and  O2_20 
ROOT
HETATM    1  C2  UNL     1       6.978 -15.783  -0.489  1.00  0.00     0.099 A 
HETATM    2  C3  UNL     1       6.488 -14.523  -0.248  1.00  0.00     0.143 A 
HETATM    3  N2  UNL     1       6.376 -14.017   0.990  1.00  0.00    -0.211 N 
HETATM    4  C4  UNL     1       6.746 -14.739   2.067  1.00  0.00     0.181 A 
HETATM    5  N6  UNL     1       6.766 -14.543   3.393  1.00  0.00    -0.265 N 
ATOM      6  H6  UNL     1       6.457 -13.692   3.864  1.00  0.00     0.190 HD
HETATM    7  N7  UNL     1       7.244 -15.612   4.000  1.00  0.00    -0.214 N 
ATOM      8  H7  UNL     1       7.355 -15.698   5.010  1.00  0.00     0.211 HD
HETATM    9  N8  UNL     1       7.563 -16.559   3.129  1.00  0.00    -0.141 N 
HETATM   10  C5  UNL     1       7.282 -16.103   1.892  1.00  0.00     0.180 A 
HETATM   11  C6  UNL     1       7.372 -16.564   0.596  1.00  0.00     0.223 A 
HETATM   12  O3  UNL     1       7.825 -17.724   0.410  1.00  0.00    -0.285 OA
ENDROOT
BRANCH   3  13
HETATM   13  N3  UNL     1       5.865 -12.733   1.165  1.00  0.00    -0.136 N 
BRANCH  13  14
HETATM   14  N4  UNL     1       4.462 -12.593   1.154  1.00  0.00    -0.309 N 
ATOM     15  H42 UNL     1       3.946 -12.763   0.290  1.00  0.00     0.180 HD
ATOM     16  H41 UNL     1       4.015 -12.328   2.031  1.00  0.00     0.180 HD
ENDBRANCH  13  14
BRANCH  13  17
HETATM   17  N5  UNL     1       6.669 -11.606   1.338  1.00  0.00    -0.309 N 
ATOM     18  H52 UNL     1       6.234 -10.692   1.462  1.00  0.00     0.180 HD
ATOM     19  H51 UNL     1       7.688 -11.639   1.342  1.00  0.00     0.180 HD
ENDBRANCH  13  17
ENDBRANCH   3  13
BRANCH   1  20
HETATM   20  C1  UNL     1       7.121 -16.305  -1.839  1.00  0.00     0.270 C 
HETATM   21  N1  UNL     1       6.115 -17.027  -2.520  1.00  0.00    -0.057 NA
HETATM   22  O1  UNL     1       8.215 -16.107  -2.465  1.00  0.00    -0.271 OA
ENDBRANCH   1  20
BRANCH   9  23
HETATM   23  O2  UNL     1       8.092 -17.818   3.381  1.00  0.00    -0.266 OA
ATOM     24  H2  UNL     1       8.213 -18.539   2.775  1.00  0.00     0.247 HD
ENDBRANCH   9  23
TORSDOF 5
ENDMDL
