MODEL 1
REMARK VINA RESULT: -8.122758801      0.000      0.000
REMARK  4 active torsions:
REMARK  status: ('A' for Active; 'I' for Inactive)
REMARK    1  A    between atoms: N3_4  and  C2_6 
REMARK    2  A    between atoms: C2_6  and  N4_7 
REMARK    3  A    between atoms: C2_6  and  C3_11 
REMARK    4  A    between atoms: N6_14  and  O1_15 
ROOT
HETATM    1  C3  UNL     1       6.915 -12.393   3.533  1.00  0.00     0.097 A 
HETATM    2  N5  UNL     1       7.424 -13.412   4.236  1.00  0.00    -0.272 N 
ATOM      3  H5  UNL     1       8.029 -13.301   5.051  1.00  0.00     0.189 HD
HETATM    4  N6  UNL     1       7.045 -14.578   3.744  1.00  0.00    -0.145 N 
HETATM    5  C4  UNL     1       6.244 -14.360   2.661  1.00  0.00     0.173 A 
HETATM    6  N7  UNL     1       5.588 -15.147   1.789  1.00  0.00    -0.290 N 
ATOM      7  H7  UNL     1       5.652 -16.159   1.892  1.00  0.00     0.172 HD
HETATM    8  C5  UNL     1       4.845 -14.635   0.779  1.00  0.00     0.328 A 
HETATM    9  O2  UNL     1       4.235 -15.365  -0.031  1.00  0.00    -0.247 OA
HETATM   10  N8  UNL     1       4.756 -13.306   0.636  1.00  0.00    -0.275 N 
ATOM     11  H8  UNL     1       4.199 -12.907  -0.120  1.00  0.00     0.173 HD
HETATM   12  C6  UNL     1       5.410 -12.494   1.505  1.00  0.00     0.265 A 
HETATM   13  O3  UNL     1       5.302 -11.274   1.338  1.00  0.00    -0.267 OA
HETATM   14  C7  UNL     1       6.167 -12.989   2.534  1.00  0.00     0.108 A 
ENDROOT
BRANCH   1  15
HETATM   15  C2  UNL     1       7.125 -10.952   3.794  1.00  0.00     0.337 C 
BRANCH  15  16
HETATM   16  N3  UNL     1       7.682 -10.747   5.120  1.00  0.00    -0.335 N 
HETATM   17  C1  UNL     1       7.051 -10.349   6.131  1.00  0.00     0.198 C 
HETATM   18  N1  UNL     1       5.680 -10.051   6.062  1.00  0.00    -0.067 NA
HETATM   19  N2  UNL     1       7.732 -10.197   7.352  1.00  0.00    -0.067 NA
ATOM     20  H3  UNL     1       8.675 -10.945   5.241  1.00  0.00     0.164 HD
ENDBRANCH  15  16
BRANCH  15  21
HETATM   21  N4  UNL     1       7.977 -10.371   2.759  1.00  0.00    -0.053 N 
ATOM     22  H43 UNL     1       8.532 -11.086   2.289  1.00  0.00     0.277 HD
ATOM     23  H42 UNL     1       7.429 -10.047   1.963  1.00  0.00     0.277 HD
ATOM     24  H41 UNL     1       8.566  -9.627   3.134  1.00  0.00     0.277 HD
ENDBRANCH  15  21
ENDBRANCH   1  15
BRANCH   4  25
HETATM   25  O1  UNL     1       7.381 -15.822   4.218  1.00  0.00    -0.266 OA
ATOM     26  H1  UNL     1       7.771 -16.535   3.725  1.00  0.00     0.247 HD
ENDBRANCH   4  25
TORSDOF 4
ENDMDL
MODEL 2
REMARK VINA RESULT: -7.475856293      2.291      6.024
REMARK  4 active torsions:
REMARK  status: ('A' for Active; 'I' for Inactive)
REMARK    1  A    between atoms: N3_4  and  C2_6 
REMARK    2  A    between atoms: C2_6  and  N4_7 
REMARK    3  A    between atoms: C2_6  and  C3_11 
REMARK    4  A    between atoms: N6_14  and  O1_15 
ROOT
HETATM    1  C3  UNL     1       6.437 -13.101   1.629  1.00  0.00     0.097 A 
HETATM    2  N5  UNL     1       6.584 -12.108   0.744  1.00  0.00    -0.272 N 
ATOM      3  H5  UNL     1       6.702 -12.246  -0.260  1.00  0.00     0.189 HD
HETATM    4  N6  UNL     1       6.557 -10.926   1.334  1.00  0.00    -0.145 N 
HETATM    5  C4  UNL     1       6.384 -11.106   2.676  1.00  0.00     0.173 A 
HETATM    6  N7  UNL     1       6.285 -10.291   3.741  1.00  0.00    -0.290 N 
ATOM      7  H7  UNL     1       6.342  -9.283   3.598  1.00  0.00     0.172 HD
HETATM    8  C5  UNL     1       6.112 -10.767   4.996  1.00  0.00     0.328 A 
HETATM    9  O2  UNL     1       6.019 -10.010   5.987  1.00  0.00    -0.247 OA
HETATM   10  N8  UNL     1       6.037 -12.091   5.193  1.00  0.00    -0.275 N 
ATOM     11  H8  UNL     1       5.906 -12.464   6.134  1.00  0.00     0.173 HD
HETATM   12  C6  UNL     1       6.135 -12.931   4.132  1.00  0.00     0.265 A 
HETATM   13  O3  UNL     1       6.061 -14.145   4.357  1.00  0.00    -0.267 OA
HETATM   14  C7  UNL     1       6.310 -12.472   2.854  1.00  0.00     0.108 A 
ENDROOT
BRANCH   1  15
HETATM   15  C2  UNL     1       6.416 -14.550   1.329  1.00  0.00     0.337 C 
BRANCH  15  16
HETATM   16  N3  UNL     1       6.448 -14.777  -0.105  1.00  0.00    -0.335 N 
HETATM   17  C1  UNL     1       6.055 -15.814  -0.696  1.00  0.00     0.198 C 
HETATM   18  N1  UNL     1       5.524 -16.901   0.018  1.00  0.00    -0.067 NA
HETATM   19  N2  UNL     1       6.151 -15.888  -2.097  1.00  0.00    -0.067 NA
ATOM     20  H3  UNL     1       6.822 -14.027  -0.685  1.00  0.00     0.164 HD
ENDBRANCH  15  16
BRANCH  15  21
HETATM   21  N4  UNL     1       7.527 -15.219   2.002  1.00  0.00    -0.053 N 
ATOM     22  H43 UNL     1       7.941 -14.625   2.720  1.00  0.00     0.277 HD
ATOM     23  H42 UNL     1       7.199 -15.981   2.596  1.00  0.00     0.277 HD
ATOM     24  H41 UNL     1       8.228 -15.543   1.335  1.00  0.00     0.277 HD
ENDBRANCH  15  21
ENDBRANCH   1  15
BRANCH   4  25
HETATM   25  O1  UNL     1       6.678  -9.699   0.730  1.00  0.00    -0.266 OA
ATOM     26  H1  UNL     1       5.973  -9.148   0.411  1.00  0.00     0.247 HD
ENDBRANCH   4  25
TORSDOF 4
ENDMDL
MODEL 3
REMARK VINA RESULT: -7.409938833      2.357      5.568
REMARK  4 active torsions:
REMARK  status: ('A' for Active; 'I' for Inactive)
REMARK    1  A    between atoms: N3_4  and  C2_6 
REMARK    2  A    between atoms: C2_6  and  N4_7 
REMARK    3  A    between atoms: C2_6  and  C3_11 
REMARK    4  A    between atoms: N6_14  and  O1_15 
ROOT
HETATM    1  C3  UNL     1       6.184 -15.226   2.864  1.00  0.00     0.097 A 
HETATM    2  N5  UNL     1       7.027 -14.787   3.807  1.00  0.00    -0.272 N 
ATOM      3  H5  UNL     1       7.587 -15.396   4.404  1.00  0.00     0.189 HD
HETATM    4  N6  UNL     1       7.041 -13.467   3.867  1.00  0.00    -0.145 N 
HETATM    5  C4  UNL     1       6.179 -12.974   2.931  1.00  0.00     0.173 A 
HETATM    6  N7  UNL     1       5.794 -11.744   2.547  1.00  0.00    -0.290 N 
ATOM      7  H7  UNL     1       6.194 -10.932   3.016  1.00  0.00     0.172 HD
HETATM    8  C5  UNL     1       4.890 -11.551   1.557  1.00  0.00     0.328 A 
HETATM    9  O2  UNL     1       4.532 -10.408   1.199  1.00  0.00    -0.247 OA
HETATM   10  N8  UNL     1       4.358 -12.613   0.936  1.00  0.00    -0.275 N 
ATOM     11  H8  UNL     1       3.676 -12.482   0.189  1.00  0.00     0.173 HD
HETATM   12  C6  UNL     1       4.733 -13.862   1.308  1.00  0.00     0.265 A 
HETATM   13  O3  UNL     1       4.218 -14.815   0.711  1.00  0.00    -0.267 OA
HETATM   14  C7  UNL     1       5.645 -14.082   2.307  1.00  0.00     0.108 A 
ENDROOT
BRANCH   1  15
HETATM   15  C2  UNL     1       5.913 -16.639   2.516  1.00  0.00     0.337 C 
BRANCH  15  16
HETATM   16  N3  UNL     1       6.399 -16.940   1.181  1.00  0.00    -0.335 N 
HETATM   17  C1  UNL     1       5.929 -17.809   0.404  1.00  0.00     0.198 C 
HETATM   18  N1  UNL     1       4.836 -18.607   0.781  1.00  0.00    -0.067 NA
HETATM   19  N2  UNL     1       6.511 -17.986  -0.864  1.00  0.00    -0.067 NA
ATOM     20  H3  UNL     1       7.193 -16.396   0.843  1.00  0.00     0.164 HD
ENDBRANCH  15  16
BRANCH  15  21
HETATM   21  N4  UNL     1       6.506 -17.526   3.514  1.00  0.00    -0.053 N 
ATOM     22  H43 UNL     1       6.176 -18.485   3.404  1.00  0.00     0.277 HD
ATOM     23  H42 UNL     1       7.498 -17.679   3.336  1.00  0.00     0.277 HD
ATOM     24  H41 UNL     1       6.346 -17.183   4.461  1.00  0.00     0.277 HD
ENDBRANCH  15  21
ENDBRANCH   1  15
BRANCH   4  25
HETATM   25  O1  UNL     1       7.789 -12.688   4.715  1.00  0.00    -0.266 OA
ATOM     26  H1  UNL     1       8.644 -12.314   4.541  1.00  0.00     0.247 HD
ENDBRANCH   4  25
TORSDOF 4
ENDMDL
MODEL 4
REMARK VINA RESULT: -7.297420773      2.077      3.656
REMARK  4 active torsions:
REMARK  status: ('A' for Active; 'I' for Inactive)
REMARK    1  A    between atoms: N3_4  and  C2_6 
REMARK    2  A    between atoms: C2_6  and  N4_7 
REMARK    3  A    between atoms: C2_6  and  C3_11 
REMARK    4  A    between atoms: N6_14  and  O1_15 
ROOT
HETATM    1  C3  UNL     1       5.844 -13.462   1.444  1.00  0.00     0.097 A 
HETATM    2  N5  UNL     1       5.612 -13.899   0.200  1.00  0.00    -0.272 N 
ATOM      3  H5  UNL     1       5.231 -13.321  -0.549  1.00  0.00     0.189 HD
HETATM    4  N6  UNL     1       5.939 -15.172   0.065  1.00  0.00    -0.145 N 
HETATM    5  C4  UNL     1       6.416 -15.634   1.257  1.00  0.00     0.173 A 
HETATM    6  N7  UNL     1       6.883 -16.814   1.701  1.00  0.00    -0.290 N 
ATOM      7  H7  UNL     1       6.924 -17.604   1.057  1.00  0.00     0.172 HD
HETATM    8  C5  UNL     1       7.301 -16.986   2.978  1.00  0.00     0.328 A 
HETATM    9  O2  UNL     1       7.736 -18.082   3.392  1.00  0.00    -0.247 OA
HETATM   10  N8  UNL     1       7.250 -15.954   3.831  1.00  0.00    -0.275 N 
ATOM     11  H8  UNL     1       7.561 -16.069   4.796  1.00  0.00     0.173 HD
HETATM   12  C6  UNL     1       6.781 -14.755   3.403  1.00  0.00     0.265 A 
HETATM   13  O3  UNL     1       6.750 -13.829   4.222  1.00  0.00    -0.267 OA
HETATM   14  C7  UNL     1       6.354 -14.558   2.116  1.00  0.00     0.108 A 
ENDROOT
BRANCH   1  15
HETATM   15  C2  UNL     1       5.601 -12.095   1.956  1.00  0.00     0.337 C 
BRANCH  15  16
HETATM   16  N3  UNL     1       6.856 -11.434   2.267  1.00  0.00    -0.335 N 
HETATM   17  C1  UNL     1       7.050 -10.627   3.211  1.00  0.00     0.198 C 
HETATM   18  N1  UNL     1       6.014 -10.276   4.092  1.00  0.00    -0.067 NA
HETATM   19  N2  UNL     1       8.327 -10.064   3.386  1.00  0.00    -0.067 NA
ATOM     20  H3  UNL     1       7.652 -11.644   1.666  1.00  0.00     0.164 HD
ENDBRANCH  15  16
BRANCH  15  21
HETATM   21  N4  UNL     1       4.817 -11.329   0.991  1.00  0.00    -0.053 N 
ATOM     22  H43 UNL     1       3.948 -11.807   0.752  1.00  0.00     0.277 HD
ATOM     23  H42 UNL     1       4.423 -10.488   1.414  1.00  0.00     0.277 HD
ATOM     24  H41 UNL     1       5.362 -11.106   0.158  1.00  0.00     0.277 HD
ENDBRANCH  15  21
ENDBRANCH   1  15
BRANCH   4  25
HETATM   25  O1  UNL     1       5.831 -15.935  -1.072  1.00  0.00    -0.266 OA
ATOM     26  H1  UNL     1       6.509 -16.474  -1.464  1.00  0.00     0.247 HD
ENDBRANCH   4  25
TORSDOF 4
ENDMDL
MODEL 5
REMARK VINA RESULT: -7.170658640      2.365      4.975
REMARK  4 active torsions:
REMARK  status: ('A' for Active; 'I' for Inactive)
REMARK    1  A    between atoms: N3_4  and  C2_6 
REMARK    2  A    between atoms: C2_6  and  N4_7 
REMARK    3  A    between atoms: C2_6  and  C3_11 
REMARK    4  A    between atoms: N6_14  and  O1_15 
ROOT
HETATM    1  C3  UNL     1       6.634 -14.509   3.354  1.00  0.00     0.097 A 
HETATM    2  N5  UNL     1       7.419 -13.816   4.188  1.00  0.00    -0.272 N 
ATOM      3  H5  UNL     1       8.057 -14.240   4.861  1.00  0.00     0.189 HD
HETATM    4  N6  UNL     1       7.262 -12.513   4.029  1.00  0.00    -0.145 N 
HETATM    5  C4  UNL     1       6.338 -12.296   3.049  1.00  0.00     0.173 A 
HETATM    6  N7  UNL     1       5.794 -11.206   2.479  1.00  0.00    -0.290 N 
ATOM      7  H7  UNL     1       6.089 -10.283   2.796  1.00  0.00     0.172 HD
HETATM    8  C5  UNL     1       4.867 -11.297   1.495  1.00  0.00     0.328 A 
HETATM    9  O2  UNL     1       4.362 -10.285   0.964  1.00  0.00    -0.247 OA
HETATM   10  N8  UNL     1       4.474 -12.507   1.073  1.00  0.00    -0.275 N 
ATOM     11  H8  UNL     1       3.776 -12.590   0.332  1.00  0.00     0.173 HD
HETATM   12  C6  UNL     1       5.010 -13.619   1.635  1.00  0.00     0.265 A 
HETATM   13  O3  UNL     1       4.619 -14.715   1.217  1.00  0.00    -0.267 OA
HETATM   14  C7  UNL     1       5.949 -13.551   2.630  1.00  0.00     0.108 A 
ENDROOT
BRANCH   1  15
HETATM   15  C2  UNL     1       6.547 -15.983   3.250  1.00  0.00     0.337 C 
BRANCH  15  16
HETATM   16  N3  UNL     1       7.863 -16.584   3.370  1.00  0.00    -0.335 N 
HETATM   17  C1  UNL     1       8.123 -17.811   3.291  1.00  0.00     0.198 C 
HETATM   18  N1  UNL     1       7.108 -18.757   3.068  1.00  0.00    -0.067 NA
HETATM   19  N2  UNL     1       9.453 -18.245   3.429  1.00  0.00    -0.067 NA
ATOM     20  H3  UNL     1       8.648 -15.954   3.533  1.00  0.00     0.164 HD
ENDBRANCH  15  16
BRANCH  15  21
HETATM   21  N4  UNL     1       5.626 -16.504   4.258  1.00  0.00    -0.053 N 
ATOM     22  H43 UNL     1       5.748 -17.507   4.391  1.00  0.00     0.277 HD
ATOM     23  H42 UNL     1       5.880 -16.189   5.194  1.00  0.00     0.277 HD
ATOM     24  H41 UNL     1       4.658 -16.271   4.037  1.00  0.00     0.277 HD
ENDBRANCH  15  21
ENDBRANCH   1  15
BRANCH   4  25
HETATM   25  O1  UNL     1       7.907 -11.515   4.716  1.00  0.00    -0.266 OA
ATOM     26  H1  UNL     1       7.562 -11.005   5.440  1.00  0.00     0.247 HD
ENDBRANCH   4  25
TORSDOF 4
ENDMDL
