MODEL 1
REMARK VINA RESULT: -7.052684890      0.000      0.000
REMARK  3 active torsions:
REMARK  status: ('A' for Active; 'I' for Inactive)
REMARK    1  A    between atoms: N1_1  and  C1_4 
REMARK    2  A    between atoms: C6_16  and  C7_17 
REMARK    3  A    between atoms: N6_19  and  N7_21 
ROOT
HETATM    1  C1  UNL     1     -16.174   7.274   0.757  1.00  0.00     0.116 A 
HETATM    2  C2  UNL     1     -16.305   7.363  -0.606  1.00  0.00     0.136 A 
HETATM    3  N2  UNL     1     -16.101   6.277  -1.370  1.00  0.00    -0.358 N 
ATOM      4  H2  UNL     1     -16.204   6.360  -2.382  1.00  0.00     0.165 HD
HETATM    5  C3  UNL     1     -15.761   5.070  -0.842  1.00  0.00     0.096 A 
HETATM    6  C4  UNL     1     -15.633   4.998   0.530  1.00  0.00     0.138 A 
HETATM    7  N3  UNL     1     -15.839   6.094   1.306  1.00  0.00    -0.326 N 
ATOM      8  H3  UNL     1     -15.738   6.021   2.319  1.00  0.00     0.169 HD
HETATM    9  N4  UNL     1     -15.308   3.792   0.887  1.00  0.00    -0.307 N 
ATOM     10  H4  UNL     1     -15.152   3.471   1.844  1.00  0.00     0.170 HD
HETATM   11  C5  UNL     1     -15.208   2.998  -0.286  1.00  0.00     0.263 A 
HETATM   12  O1  UNL     1     -14.910   1.763  -0.343  1.00  0.00    -0.267 OA
HETATM   13  C6  UNL     1     -15.519   3.898  -1.403  1.00  0.00     0.105 A 
ENDROOT
BRANCH  13  14
HETATM   14  C7  UNL     1     -15.547   3.547  -2.809  1.00  0.00     0.148 C 
HETATM   15  N5  UNL     1     -16.611   3.994  -3.629  1.00  0.00    -0.080 NA
HETATM   16  N6  UNL     1     -14.584   2.825  -3.274  1.00  0.00    -0.293 N 
ATOM     17  H6  UNL     1     -13.847   2.535  -2.631  1.00  0.00     0.187 HD
BRANCH  16  18
HETATM   18  N7  UNL     1     -14.492   2.422  -4.594  1.00  0.00    -0.344 N 
ATOM     19  H72 UNL     1     -13.898   2.980  -5.208  1.00  0.00     0.176 HD
ATOM     20  H71 UNL     1     -14.979   1.611  -4.976  1.00  0.00     0.176 HD
ENDBRANCH  16  18
ENDBRANCH  13  14
BRANCH   1  21
HETATM   21  N1  UNL     1     -16.361   8.296   1.545  1.00  0.00    -0.384 N 
ATOM     22  H12 UNL     1     -15.569   8.647   2.084  1.00  0.00     0.157 HD
ATOM     23  H11 UNL     1     -17.267   8.755   1.639  1.00  0.00     0.157 HD
ENDBRANCH   1  21
TORSDOF 3
ENDMDL
MODEL 2
REMARK VINA RESULT: -6.711732697      1.352      1.590
REMARK  3 active torsions:
REMARK  status: ('A' for Active; 'I' for Inactive)
REMARK    1  A    between atoms: N1_1  and  C1_4 
REMARK    2  A    between atoms: C6_16  and  C7_17 
REMARK    3  A    between atoms: N6_19  and  N7_21 
ROOT
HETATM    1  C1  UNL     1     -15.838   8.564  -0.109  1.00  0.00     0.116 A 
HETATM    2  C2  UNL     1     -15.299   8.303  -1.343  1.00  0.00     0.136 A 
HETATM    3  N2  UNL     1     -15.226   7.037  -1.787  1.00  0.00    -0.358 N 
ATOM      4  H2  UNL     1     -14.823   6.860  -2.707  1.00  0.00     0.165 HD
HETATM    5  C3  UNL     1     -15.670   5.981  -1.051  1.00  0.00     0.096 A 
HETATM    6  C4  UNL     1     -16.209   6.262   0.187  1.00  0.00     0.138 A 
HETATM    7  N3  UNL     1     -16.285   7.541   0.640  1.00  0.00    -0.326 N 
ATOM      8  H3  UNL     1     -16.685   7.727   1.560  1.00  0.00     0.169 HD
HETATM    9  N4  UNL     1     -16.587   5.164   0.770  1.00  0.00    -0.307 N 
ATOM     10  H4  UNL     1     -17.017   5.093   1.693  1.00  0.00     0.170 HD
HETATM   11  C5  UNL     1     -16.299   4.081  -0.102  1.00  0.00     0.263 A 
HETATM   12  O1  UNL     1     -16.526   2.850   0.117  1.00  0.00    -0.267 OA
HETATM   13  C6  UNL     1     -15.692   4.683  -1.295  1.00  0.00     0.105 A 
ENDROOT
BRANCH  13  14
HETATM   14  C7  UNL     1     -15.226   3.978  -2.472  1.00  0.00     0.148 C 
HETATM   15  N5  UNL     1     -13.980   4.317  -3.055  1.00  0.00    -0.080 NA
HETATM   16  N6  UNL     1     -15.975   3.046  -2.959  1.00  0.00    -0.293 N 
ATOM     17  H6  UNL     1     -16.861   2.850  -2.493  1.00  0.00     0.187 HD
BRANCH  16  18
HETATM   18  N7  UNL     1     -15.647   2.299  -4.076  1.00  0.00    -0.344 N 
ATOM     19  H72 UNL     1     -16.342   2.249  -4.821  1.00  0.00     0.176 HD
ATOM     20  H71 UNL     1     -14.762   1.804  -4.189  1.00  0.00     0.176 HD
ENDBRANCH  16  18
ENDBRANCH  13  14
BRANCH   1  21
HETATM   21  N1  UNL     1     -15.934   9.773   0.370  1.00  0.00    -0.384 N 
ATOM     22  H12 UNL     1     -15.700  10.558  -0.239  1.00  0.00     0.157 HD
ATOM     23  H11 UNL     1     -16.234   9.960   1.327  1.00  0.00     0.157 HD
ENDBRANCH   1  21
TORSDOF 3
ENDMDL
MODEL 3
REMARK VINA RESULT: -6.614150137      2.372      5.553
REMARK  3 active torsions:
REMARK  status: ('A' for Active; 'I' for Inactive)
REMARK    1  A    between atoms: N1_1  and  C1_4 
REMARK    2  A    between atoms: C6_16  and  C7_17 
REMARK    3  A    between atoms: N6_19  and  N7_21 
ROOT
HETATM    1  C1  UNL     1     -15.896   3.457  -1.450  1.00  0.00     0.116 A 
HETATM    2  C2  UNL     1     -16.211   3.536  -0.117  1.00  0.00     0.136 A 
HETATM    3  N2  UNL     1     -16.209   4.729   0.501  1.00  0.00    -0.358 N 
ATOM      4  H2  UNL     1     -16.446   4.770   1.492  1.00  0.00     0.165 HD
HETATM    5  C3  UNL     1     -15.902   5.884  -0.149  1.00  0.00     0.096 A 
HETATM    6  C4  UNL     1     -15.588   5.786  -1.489  1.00  0.00     0.138 A 
HETATM    7  N3  UNL     1     -15.588   4.582  -2.118  1.00  0.00    -0.326 N 
ATOM      8  H3  UNL     1     -15.351   4.531  -3.109  1.00  0.00     0.169 HD
HETATM    9  N4  UNL     1     -15.318   6.962  -1.973  1.00  0.00    -0.307 N 
ATOM     10  H4  UNL     1     -15.057   7.168  -2.938  1.00  0.00     0.170 HD
HETATM   11  C5  UNL     1     -15.453   7.910  -0.925  1.00  0.00     0.263 A 
HETATM   12  O1  UNL     1     -15.272   9.166  -1.009  1.00  0.00    -0.267 OA
HETATM   13  C6  UNL     1     -15.842   7.139   0.262  1.00  0.00     0.105 A 
ENDROOT
BRANCH  13  14
HETATM   14  C7  UNL     1     -16.098   7.667   1.587  1.00  0.00     0.148 C 
HETATM   15  N5  UNL     1     -16.935   8.798   1.748  1.00  0.00    -0.080 NA
HETATM   16  N6  UNL     1     -15.544   7.079   2.593  1.00  0.00    -0.293 N 
ATOM     17  H6  UNL     1     -14.951   6.269   2.410  1.00  0.00     0.187 HD
BRANCH  16  18
HETATM   18  N7  UNL     1     -15.707   7.483   3.907  1.00  0.00    -0.344 N 
ATOM     19  H72 UNL     1     -16.230   8.344   4.065  1.00  0.00     0.176 HD
ATOM     20  H71 UNL     1     -15.338   6.972   4.708  1.00  0.00     0.176 HD
ENDBRANCH  16  18
ENDBRANCH  13  14
BRANCH   1  21
HETATM   21  N1  UNL     1     -15.882   2.325  -2.099  1.00  0.00    -0.384 N 
ATOM     22  H12 UNL     1     -16.211   1.486  -1.621  1.00  0.00     0.157 HD
ATOM     23  H11 UNL     1     -15.557   2.252  -3.063  1.00  0.00     0.157 HD
ENDBRANCH   1  21
TORSDOF 3
ENDMDL
MODEL 4
REMARK VINA RESULT: -6.454911612      1.761      2.207
REMARK  3 active torsions:
REMARK  status: ('A' for Active; 'I' for Inactive)
REMARK    1  A    between atoms: N1_1  and  C1_4 
REMARK    2  A    between atoms: C6_16  and  C7_17 
REMARK    3  A    between atoms: N6_19  and  N7_21 
ROOT
HETATM    1  C1  UNL     1     -15.959   8.723   1.149  1.00  0.00     0.116 A 
HETATM    2  C2  UNL     1     -14.882   8.490   0.332  1.00  0.00     0.136 A 
HETATM    3  N2  UNL     1     -14.709   7.275  -0.215  1.00  0.00    -0.358 N 
ATOM      4  H2  UNL     1     -13.903   7.118  -0.820  1.00  0.00     0.165 HD
HETATM    5  C3  UNL     1     -15.569   6.245   0.012  1.00  0.00     0.096 A 
HETATM    6  C4  UNL     1     -16.646   6.498   0.837  1.00  0.00     0.138 A 
HETATM    7  N3  UNL     1     -16.826   7.725   1.391  1.00  0.00    -0.326 N 
ATOM      8  H3  UNL     1     -17.628   7.891   1.999  1.00  0.00     0.169 HD
HETATM    9  N4  UNL     1     -17.376   5.430   0.960  1.00  0.00    -0.307 N 
ATOM     10  H4  UNL     1     -18.229   5.347   1.514  1.00  0.00     0.170 HD
HETATM   11  C5  UNL     1     -16.778   4.398   0.189  1.00  0.00     0.263 A 
HETATM   12  O1  UNL     1     -17.202   3.206   0.058  1.00  0.00    -0.267 OA
HETATM   13  C6  UNL     1     -15.583   4.996  -0.418  1.00  0.00     0.105 A 
ENDROOT
BRANCH  13  14
HETATM   14  C7  UNL     1     -14.640   4.333  -1.296  1.00  0.00     0.148 C 
HETATM   15  N5  UNL     1     -13.859   3.255  -0.812  1.00  0.00    -0.080 NA
HETATM   16  N6  UNL     1     -14.542   4.755  -2.512  1.00  0.00    -0.293 N 
ATOM     17  H6  UNL     1     -15.133   5.536  -2.798  1.00  0.00     0.187 HD
BRANCH  16  18
HETATM   18  N7  UNL     1     -13.682   4.210  -3.449  1.00  0.00    -0.344 N 
ATOM     19  H72 UNL     1     -13.529   3.203  -3.407  1.00  0.00     0.176 HD
ATOM     20  H71 UNL     1     -13.204   4.756  -4.166  1.00  0.00     0.176 HD
ENDBRANCH  16  18
ENDBRANCH  13  14
BRANCH   1  21
HETATM   21  N1  UNL     1     -16.176   9.884   1.705  1.00  0.00    -0.384 N 
ATOM     22  H12 UNL     1     -15.718  10.091   2.592  1.00  0.00     0.157 HD
ATOM     23  H11 UNL     1     -16.783  10.586   1.283  1.00  0.00     0.157 HD
ENDBRANCH   1  21
TORSDOF 3
ENDMDL
MODEL 5
REMARK VINA RESULT: -6.428942693      1.437      1.804
REMARK  3 active torsions:
REMARK  status: ('A' for Active; 'I' for Inactive)
REMARK    1  A    between atoms: N1_1  and  C1_4 
REMARK    2  A    between atoms: C6_16  and  C7_17 
REMARK    3  A    between atoms: N6_19  and  N7_21 
ROOT
HETATM    1  C1  UNL     1     -15.320   9.164  -0.238  1.00  0.00     0.116 A 
HETATM    2  C2  UNL     1     -15.256   8.814  -1.562  1.00  0.00     0.136 A 
HETATM    3  N2  UNL     1     -15.351   7.522  -1.918  1.00  0.00    -0.358 N 
ATOM      4  H2  UNL     1     -15.302   7.278  -2.907  1.00  0.00     0.165 HD
HETATM    5  C3  UNL     1     -15.509   6.526  -1.004  1.00  0.00     0.096 A 
HETATM    6  C4  UNL     1     -15.571   6.896   0.324  1.00  0.00     0.138 A 
HETATM    7  N3  UNL     1     -15.476   8.202   0.687  1.00  0.00    -0.326 N 
ATOM      8  H3  UNL     1     -15.523   8.455   1.674  1.00  0.00     0.169 HD
HETATM    9  N4  UNL     1     -15.722   5.846   1.075  1.00  0.00    -0.307 N 
ATOM     10  H4  UNL     1     -15.796   5.843   2.092  1.00  0.00     0.170 HD
HETATM   11  C5  UNL     1     -15.767   4.705   0.231  1.00  0.00     0.263 A 
HETATM   12  O1  UNL     1     -15.907   3.496   0.597  1.00  0.00    -0.267 OA
HETATM   13  C6  UNL     1     -15.621   5.216  -1.137  1.00  0.00     0.105 A 
ENDROOT
BRANCH  13  14
HETATM   14  C7  UNL     1     -15.606   4.428  -2.353  1.00  0.00     0.148 C 
HETATM   15  N5  UNL     1     -16.803   4.232  -3.085  1.00  0.00    -0.080 NA
HETATM   16  N6  UNL     1     -14.482   3.921  -2.735  1.00  0.00    -0.293 N 
ATOM     17  H6  UNL     1     -13.656   4.099  -2.164  1.00  0.00     0.187 HD
BRANCH  16  18
HETATM   18  N7  UNL     1     -14.332   3.151  -3.875  1.00  0.00    -0.344 N 
ATOM     19  H72 UNL     1     -14.638   3.564  -4.757  1.00  0.00     0.176 HD
ATOM     20  H71 UNL     1     -13.940   2.210  -3.877  1.00  0.00     0.176 HD
ENDBRANCH  16  18
ENDBRANCH  13  14
BRANCH   1  21
HETATM   21  N1  UNL     1     -15.235  10.403   0.163  1.00  0.00    -0.384 N 
ATOM     22  H12 UNL     1     -14.315  10.774   0.403  1.00  0.00     0.157 HD
ATOM     23  H11 UNL     1     -16.051  11.010   0.241  1.00  0.00     0.157 HD
ENDBRANCH   1  21
TORSDOF 3
ENDMDL
