MODEL 1
REMARK VINA RESULT: -8.068549641      0.000      0.000
REMARK  3 active torsions:
REMARK  status: ('A' for Active; 'I' for Inactive)
REMARK    1  A    between atoms: N1_1  and  C1_5 
REMARK    2  A    between atoms: C1_5  and  C2_6 
REMARK    3  A    between atoms: C2_6  and  N2_7 
ROOT
HETATM    1  N2  UNL     1     -15.871   2.770  -1.770  1.00  0.00    -0.221 N 
ATOM      2  H2  UNL     1     -16.306   1.895  -1.475  1.00  0.00     0.177 HD
HETATM    3  C3  UNL     1     -16.365   3.725  -1.168  1.00  0.00     0.716 A 
HETATM    4  N3  UNL     1     -17.358   3.471  -0.257  1.00  0.00    -0.128 N 
ATOM      5  H3  UNL     1     -17.660   2.509  -0.103  1.00  0.00     0.205 HD
HETATM    6  N4  UNL     1     -17.932   4.447   0.426  1.00  0.00    -0.250 N 
ATOM      7  H4  UNL     1     -18.668   4.227   1.098  1.00  0.00     0.191 HD
HETATM    8  C4  UNL     1     -17.556   5.727   0.244  1.00  0.00     0.295 A 
HETATM    9  O1  UNL     1     -18.089   6.658   0.883  1.00  0.00    -0.264 OA
HETATM   10  C5  UNL     1     -16.567   6.023  -0.657  1.00  0.00     0.214 A 
HETATM   11  C6  UNL     1     -15.986   7.200  -1.049  1.00  0.00     0.296 A 
HETATM   12  O2  UNL     1     -16.291   8.327  -0.602  1.00  0.00    -0.264 OA
HETATM   13  N5  UNL     1     -15.065   6.908  -1.968  1.00  0.00    -0.249 N 
ATOM     14  H5  UNL     1     -14.460   7.567  -2.455  1.00  0.00     0.192 HD
HETATM   15  N6  UNL     1     -15.091   5.597  -2.123  1.00  0.00    -0.218 N 
ATOM     16  H6  UNL     1     -14.487   5.090  -2.770  1.00  0.00     0.209 HD
HETATM   17  N7  UNL     1     -15.986   5.021  -1.350  1.00  0.00    -0.059 N 
ENDROOT
BRANCH   1  18
HETATM   18  C2  UNL     1     -14.894   2.531  -2.736  1.00  0.00     0.165 C 
BRANCH  18  19
HETATM   19  C1  UNL     1     -15.580   2.475  -4.112  1.00  0.00     0.249 C 
BRANCH  19  20
HETATM   20  N1  UNL     1     -14.578   2.096  -5.085  1.00  0.00    -0.078 N 
ATOM     21  H13 UNL     1     -14.898   2.203  -6.047  1.00  0.00     0.274 HD
ATOM     22  H12 UNL     1     -13.799   2.754  -5.128  1.00  0.00     0.274 HD
ATOM     23  H11 UNL     1     -14.282   1.145  -4.867  1.00  0.00     0.274 HD
ENDBRANCH  19  20
ENDBRANCH  18  19
ENDBRANCH   1  18
TORSDOF 3
ENDMDL
MODEL 2
REMARK VINA RESULT: -7.105675040      2.427      4.803
REMARK  3 active torsions:
REMARK  status: ('A' for Active; 'I' for Inactive)
REMARK    1  A    between atoms: N1_1  and  C1_5 
REMARK    2  A    between atoms: C1_5  and  C2_6 
REMARK    3  A    between atoms: C2_6  and  N2_7 
ROOT
HETATM    1  N2  UNL     1     -15.264   7.038  -1.979  1.00  0.00    -0.221 N 
ATOM      2  H2  UNL     1     -14.559   7.213  -2.696  1.00  0.00     0.177 HD
HETATM    3  C3  UNL     1     -15.396   5.827  -1.786  1.00  0.00     0.716 A 
HETATM    4  N3  UNL     1     -14.621   4.968  -2.522  1.00  0.00    -0.128 N 
ATOM      5  H3  UNL     1     -13.964   5.347  -3.203  1.00  0.00     0.205 HD
HETATM    6  N4  UNL     1     -14.709   3.658  -2.367  1.00  0.00    -0.250 N 
ATOM      7  H4  UNL     1     -14.120   3.043  -2.928  1.00  0.00     0.191 HD
HETATM    8  C4  UNL     1     -15.568   3.127  -1.476  1.00  0.00     0.295 A 
HETATM    9  O1  UNL     1     -15.661   1.892  -1.319  1.00  0.00    -0.264 OA
HETATM   10  C5  UNL     1     -16.360   3.952  -0.721  1.00  0.00     0.214 A 
HETATM   11  C6  UNL     1     -17.304   3.712   0.241  1.00  0.00     0.296 A 
HETATM   12  O2  UNL     1     -17.642   2.575   0.638  1.00  0.00    -0.264 OA
HETATM   13  N5  UNL     1     -17.772   4.891   0.650  1.00  0.00    -0.249 N 
ATOM     14  H5  UNL     1     -18.486   5.051   1.360  1.00  0.00     0.192 HD
HETATM   15  N6  UNL     1     -17.128   5.812  -0.043  1.00  0.00    -0.218 N 
ATOM     16  H6  UNL     1     -17.284   6.814   0.063  1.00  0.00     0.209 HD
HETATM   17  N7  UNL     1     -16.265   5.288  -0.885  1.00  0.00    -0.059 N 
ENDROOT
BRANCH   1  18
HETATM   18  C2  UNL     1     -15.794   8.238  -1.508  1.00  0.00     0.165 C 
BRANCH  18  19
HETATM   19  C1  UNL     1     -14.627   9.194  -1.205  1.00  0.00     0.249 C 
BRANCH  19  20
HETATM   20  N1  UNL     1     -13.878   8.632  -0.102  1.00  0.00    -0.078 N 
ATOM     21  H13 UNL     1     -13.848   9.247   0.712  1.00  0.00     0.274 HD
ATOM     22  H12 UNL     1     -14.354   7.847   0.342  1.00  0.00     0.274 HD
ATOM     23  H11 UNL     1     -12.952   8.389  -0.452  1.00  0.00     0.274 HD
ENDBRANCH  19  20
ENDBRANCH  18  19
ENDBRANCH   1  18
TORSDOF 3
ENDMDL
MODEL 3
REMARK VINA RESULT: -7.020395303      2.440      4.408
REMARK  3 active torsions:
REMARK  status: ('A' for Active; 'I' for Inactive)
REMARK    1  A    between atoms: N1_1  and  C1_5 
REMARK    2  A    between atoms: C1_5  and  C2_6 
REMARK    3  A    between atoms: C2_6  and  N2_7 
ROOT
HETATM    1  N2  UNL     1     -16.310   7.553  -1.078  1.00  0.00    -0.221 N 
ATOM      2  H2  UNL     1     -16.993   8.156  -0.618  1.00  0.00     0.177 HD
HETATM    3  C3  UNL     1     -16.458   6.381  -0.725  1.00  0.00     0.716 A 
HETATM    4  N3  UNL     1     -17.454   6.098   0.173  1.00  0.00    -0.128 N 
ATOM      5  H3  UNL     1     -18.041   6.856   0.524  1.00  0.00     0.205 HD
HETATM    6  N4  UNL     1     -17.671   4.864   0.595  1.00  0.00    -0.250 N 
ATOM      7  H4  UNL     1     -18.419   4.683   1.264  1.00  0.00     0.191 HD
HETATM    8  C4  UNL     1     -16.913   3.843   0.151  1.00  0.00     0.295 A 
HETATM    9  O1  UNL     1     -17.106   2.673   0.541  1.00  0.00    -0.264 OA
HETATM   10  C5  UNL     1     -15.907   4.085  -0.748  1.00  0.00     0.214 A 
HETATM   11  C6  UNL     1     -14.994   3.271  -1.364  1.00  0.00     0.296 A 
HETATM   12  O2  UNL     1     -14.913   2.035  -1.193  1.00  0.00    -0.264 OA
HETATM   13  N5  UNL     1     -14.238   4.037  -2.150  1.00  0.00    -0.249 N 
ATOM     14  H5  UNL     1     -13.467   3.729  -2.743  1.00  0.00     0.192 HD
HETATM   15  N6  UNL     1     -14.683   5.272  -2.013  1.00  0.00    -0.218 N 
ATOM     16  H6  UNL     1     -14.290   6.076  -2.503  1.00  0.00     0.209 HD
HETATM   17  N7  UNL     1     -15.692   5.347  -1.173  1.00  0.00    -0.059 N 
ENDROOT
BRANCH   1  18
HETATM   18  C2  UNL     1     -15.486   8.299  -1.920  1.00  0.00     0.165 C 
BRANCH  18  19
HETATM   19  C1  UNL     1     -14.821   9.407  -1.085  1.00  0.00     0.249 C 
BRANCH  19  20
HETATM   20  N1  UNL     1     -13.755   8.798  -0.320  1.00  0.00    -0.078 N 
ATOM     21  H13 UNL     1     -14.075   8.020   0.258  1.00  0.00     0.274 HD
ATOM     22  H12 UNL     1     -13.100   8.273  -0.900  1.00  0.00     0.274 HD
ATOM     23  H11 UNL     1     -13.304   9.536   0.221  1.00  0.00     0.274 HD
ENDBRANCH  19  20
ENDBRANCH  18  19
ENDBRANCH   1  18
TORSDOF 3
ENDMDL
MODEL 4
REMARK VINA RESULT: -6.914881791      1.774      2.274
REMARK  3 active torsions:
REMARK  status: ('A' for Active; 'I' for Inactive)
REMARK    1  A    between atoms: N1_1  and  C1_5 
REMARK    2  A    between atoms: C1_5  and  C2_6 
REMARK    3  A    between atoms: C2_6  and  N2_7 
ROOT
HETATM    1  N2  UNL     1     -16.442   4.558  -0.995  1.00  0.00    -0.221 N 
ATOM      2  H2  UNL     1     -16.872   3.820  -0.437  1.00  0.00     0.177 HD
HETATM    3  C3  UNL     1     -16.387   5.611  -0.355  1.00  0.00     0.716 A 
HETATM    4  N3  UNL     1     -16.884   5.616   0.923  1.00  0.00    -0.128 N 
ATOM      5  H3  UNL     1     -17.283   4.760   1.307  1.00  0.00     0.205 HD
HETATM    6  N4  UNL     1     -16.858   6.709   1.667  1.00  0.00    -0.250 N 
ATOM      7  H4  UNL     1     -17.235   6.683   2.614  1.00  0.00     0.191 HD
HETATM    8  C4  UNL     1     -16.339   7.856   1.187  1.00  0.00     0.295 A 
HETATM    9  O1  UNL     1     -16.308   8.894   1.878  1.00  0.00    -0.264 OA
HETATM   10  C5  UNL     1     -15.832   7.891  -0.086  1.00  0.00     0.214 A 
HETATM   11  C6  UNL     1     -15.254   8.885  -0.830  1.00  0.00     0.296 A 
HETATM   12  O2  UNL     1     -15.070  10.056  -0.433  1.00  0.00    -0.264 OA
HETATM   13  N5  UNL     1     -14.941   8.367  -2.018  1.00  0.00    -0.249 N 
ATOM     14  H5  UNL     1     -14.498   8.853  -2.797  1.00  0.00     0.192 HD
HETATM   15  N6  UNL     1     -15.318   7.103  -1.989  1.00  0.00    -0.218 N 
ATOM     16  H6  UNL     1     -15.200   6.457  -2.770  1.00  0.00     0.209 HD
HETATM   17  N7  UNL     1     -15.863   6.772  -0.839  1.00  0.00    -0.059 N 
ENDROOT
BRANCH   1  18
HETATM   18  C2  UNL     1     -16.090   4.078  -2.256  1.00  0.00     0.165 C 
BRANCH  18  19
HETATM   19  C1  UNL     1     -14.666   3.501  -2.171  1.00  0.00     0.249 C 
BRANCH  19  20
HETATM   20  N1  UNL     1     -13.831   4.265  -3.072  1.00  0.00    -0.078 N 
ATOM     21  H13 UNL     1     -14.209   4.315  -4.018  1.00  0.00     0.274 HD
ATOM     22  H12 UNL     1     -13.841   5.265  -2.871  1.00  0.00     0.274 HD
ATOM     23  H11 UNL     1     -12.894   3.863  -3.039  1.00  0.00     0.274 HD
ENDBRANCH  19  20
ENDBRANCH  18  19
ENDBRANCH   1  18
TORSDOF 3
ENDMDL
MODEL 5
REMARK VINA RESULT: -6.818539041      3.034      5.494
REMARK  3 active torsions:
REMARK  status: ('A' for Active; 'I' for Inactive)
REMARK    1  A    between atoms: N1_1  and  C1_5 
REMARK    2  A    between atoms: C1_5  and  C2_6 
REMARK    3  A    between atoms: C2_6  and  N2_7 
ROOT
HETATM    1  N2  UNL     1     -15.949   7.380   0.507  1.00  0.00    -0.221 N 
ATOM      2  H2  UNL     1     -15.876   8.303   0.079  1.00  0.00     0.177 HD
HETATM    3  C3  UNL     1     -15.650   6.501  -0.305  1.00  0.00     0.716 A 
HETATM    4  N3  UNL     1     -15.293   6.885  -1.571  1.00  0.00    -0.128 N 
ATOM      5  H3  UNL     1     -15.284   7.877  -1.808  1.00  0.00     0.205 HD
HETATM    6  N4  UNL     1     -14.960   5.997  -2.492  1.00  0.00    -0.250 N 
ATOM      7  H4  UNL     1     -14.698   6.312  -3.426  1.00  0.00     0.191 HD
HETATM    8  C4  UNL     1     -14.964   4.680  -2.210  1.00  0.00     0.295 A 
HETATM    9  O1  UNL     1     -14.651   3.830  -3.070  1.00  0.00    -0.264 OA
HETATM   10  C5  UNL     1     -15.315   4.255  -0.955  1.00  0.00     0.214 A 
HETATM   11  C6  UNL     1     -15.409   3.013  -0.386  1.00  0.00     0.296 A 
HETATM   12  O2  UNL     1     -15.164   1.939  -0.977  1.00  0.00    -0.264 OA
HETATM   13  N5  UNL     1     -15.800   3.179   0.878  1.00  0.00    -0.249 N 
ATOM     14  H5  UNL     1     -15.963   2.445   1.567  1.00  0.00     0.192 HD
HETATM   15  N6  UNL     1     -15.936   4.478   1.063  1.00  0.00    -0.218 N 
ATOM     16  H6  UNL     1     -16.228   4.900   1.945  1.00  0.00     0.209 HD
HETATM   17  N7  UNL     1     -15.653   5.168  -0.021  1.00  0.00    -0.059 N 
ENDROOT
BRANCH   1  18
HETATM   18  C2  UNL     1     -16.356   7.485   1.836  1.00  0.00     0.165 C 
BRANCH  18  19
HETATM   19  C1  UNL     1     -15.122   7.812   2.694  1.00  0.00     0.249 C 
BRANCH  19  20
HETATM   20  N1  UNL     1     -15.232   7.057   3.923  1.00  0.00    -0.078 N 
ATOM     21  H13 UNL     1     -16.034   7.334   4.489  1.00  0.00     0.274 HD
ATOM     22  H12 UNL     1     -15.505   6.087   3.770  1.00  0.00     0.274 HD
ATOM     23  H11 UNL     1     -14.345   7.147   4.420  1.00  0.00     0.274 HD
ENDBRANCH  19  20
ENDBRANCH  18  19
ENDBRANCH   1  18
TORSDOF 3
ENDMDL
