MODEL 1
REMARK VINA RESULT: -7.177511094      0.000      0.000
REMARK  1 active torsions:
REMARK  status: ('A' for Active; 'I' for Inactive)
REMARK    1  A    between atoms: C1_2  and  C2_3 
ROOT
HETATM    1  C2  UNL     1     -15.648   3.714  -1.575  1.00  0.00     0.120 A 
HETATM    2  N2  UNL     1     -15.564   3.967  -0.260  1.00  0.00    -0.326 N 
ATOM      3  H2  UNL     1     -15.427   3.260   0.463  1.00  0.00     0.169 HD
HETATM    4  C3  UNL     1     -15.689   5.305  -0.028  1.00  0.00     0.139 A 
HETATM    5  N3  UNL     1     -15.672   6.045   1.103  1.00  0.00    -0.336 N 
ATOM      6  H3  UNL     1     -15.546   5.565   1.993  1.00  0.00     0.168 HD
HETATM    7  C4  UNL     1     -15.814   7.385   1.115  1.00  0.00     0.102 A 
HETATM    8  C5  UNL     1     -15.795   8.090   2.232  1.00  0.00     0.133 C 
HETATM    9  N4  UNL     1     -15.623   7.478   3.483  1.00  0.00    -0.113 NA
HETATM   10  C6  UNL     1     -15.986   8.018  -0.112  1.00  0.00     0.251 A 
HETATM   11  O1  UNL     1     -16.123   9.277  -0.138  1.00  0.00    -0.281 OA
HETATM   12  C7  UNL     1     -15.999   7.243  -1.250  1.00  0.00     0.254 A 
HETATM   13  O2  UNL     1     -16.152   7.779  -2.377  1.00  0.00    -0.281 OA
HETATM   14  C8  UNL     1     -15.850   5.872  -1.212  1.00  0.00     0.133 A 
HETATM   15  N5  UNL     1     -15.827   4.918  -2.160  1.00  0.00    -0.335 N 
ATOM     16  H5  UNL     1     -15.928   5.078  -3.162  1.00  0.00     0.168 HD
ENDROOT
BRANCH   1  17
HETATM   17  C1  UNL     1     -15.576   2.544  -2.198  1.00  0.00     0.148 C 
HETATM   18  N1  UNL     1     -16.014   2.459  -3.546  1.00  0.00    -0.111 NA
ENDBRANCH   1  17
TORSDOF 1
ENDMDL
MODEL 2
REMARK VINA RESULT: -6.989403133      2.082      2.316
REMARK  1 active torsions:
REMARK  status: ('A' for Active; 'I' for Inactive)
REMARK    1  A    between atoms: C1_2  and  C2_3 
ROOT
HETATM    1  C2  UNL     1     -15.359   3.706  -2.562  1.00  0.00     0.120 A 
HETATM    2  N2  UNL     1     -14.696   4.869  -2.470  1.00  0.00    -0.326 N 
ATOM      3  H2  UNL     1     -13.876   5.118  -3.024  1.00  0.00     0.169 HD
HETATM    4  C3  UNL     1     -15.275   5.670  -1.531  1.00  0.00     0.139 A 
HETATM    5  N3  UNL     1     -14.987   6.910  -1.080  1.00  0.00    -0.336 N 
ATOM      6  H3  UNL     1     -14.186   7.397  -1.483  1.00  0.00     0.168 HD
HETATM    7  C4  UNL     1     -15.701   7.538  -0.126  1.00  0.00     0.102 A 
HETATM    8  C5  UNL     1     -15.403   8.752   0.301  1.00  0.00     0.133 C 
HETATM    9  N4  UNL     1     -14.312   9.465  -0.221  1.00  0.00    -0.113 NA
HETATM   10  C6  UNL     1     -16.788   6.854   0.409  1.00  0.00     0.251 A 
HETATM   11  O1  UNL     1     -17.482   7.414   1.308  1.00  0.00    -0.281 OA
HETATM   12  C7  UNL     1     -17.063   5.591  -0.066  1.00  0.00     0.254 A 
HETATM   13  O2  UNL     1     -18.036   4.941   0.392  1.00  0.00    -0.281 OA
HETATM   14  C8  UNL     1     -16.301   4.989  -1.047  1.00  0.00     0.133 A 
HETATM   15  N5  UNL     1     -16.363   3.795  -1.664  1.00  0.00    -0.335 N 
ATOM     16  H5  UNL     1     -17.059   3.072  -1.482  1.00  0.00     0.168 HD
ENDROOT
BRANCH   1  17
HETATM   17  C1  UNL     1     -15.107   2.670  -3.354  1.00  0.00     0.148 C 
HETATM   18  N1  UNL     1     -16.151   2.168  -4.176  1.00  0.00    -0.111 NA
ENDBRANCH   1  17
TORSDOF 1
ENDMDL
MODEL 3
REMARK VINA RESULT: -6.567560102      1.839      5.033
REMARK  1 active torsions:
REMARK  status: ('A' for Active; 'I' for Inactive)
REMARK    1  A    between atoms: C1_2  and  C2_3 
ROOT
HETATM    1  C2  UNL     1     -15.733   8.753   2.083  1.00  0.00     0.120 A 
HETATM    2  N2  UNL     1     -16.076   7.484   2.352  1.00  0.00    -0.326 N 
ATOM      3  H2  UNL     1     -16.282   7.121   3.283  1.00  0.00     0.169 HD
HETATM    4  C3  UNL     1     -16.112   6.751   1.203  1.00  0.00     0.139 A 
HETATM    5  N3  UNL     1     -16.398   5.455   0.952  1.00  0.00    -0.336 N 
ATOM      6  H3  UNL     1     -16.643   4.852   1.737  1.00  0.00     0.168 HD
HETATM    7  C4  UNL     1     -16.377   4.916  -0.283  1.00  0.00     0.102 A 
HETATM    8  C5  UNL     1     -16.660   3.646  -0.508  1.00  0.00     0.133 C 
HETATM    9  N4  UNL     1     -17.003   2.775   0.538  1.00  0.00    -0.113 NA
HETATM   10  C6  UNL     1     -16.039   5.757  -1.338  1.00  0.00     0.251 A 
HETATM   11  O1  UNL     1     -16.009   5.284  -2.513  1.00  0.00    -0.281 OA
HETATM   12  C7  UNL     1     -15.752   7.074  -1.058  1.00  0.00     0.254 A 
HETATM   13  O2  UNL     1     -15.443   7.865  -1.985  1.00  0.00    -0.281 OA
HETATM   14  C8  UNL     1     -15.787   7.581   0.225  1.00  0.00     0.133 A 
HETATM   15  N5  UNL     1     -15.555   8.799   0.746  1.00  0.00    -0.335 N 
ATOM     16  H5  UNL     1     -15.286   9.627   0.214  1.00  0.00     0.168 HD
ENDROOT
BRANCH   1  17
HETATM   17  C1  UNL     1     -15.589   9.768   2.927  1.00  0.00     0.148 C 
HETATM   18  N1  UNL     1     -15.800   9.541   4.313  1.00  0.00    -0.111 NA
ENDBRANCH   1  17
TORSDOF 1
ENDMDL
MODEL 4
REMARK VINA RESULT: -6.423053139      2.500      5.320
REMARK  1 active torsions:
REMARK  status: ('A' for Active; 'I' for Inactive)
REMARK    1  A    between atoms: C1_2  and  C2_3 
ROOT
HETATM    1  C2  UNL     1     -15.708   8.416  -1.101  1.00  0.00     0.120 A 
HETATM    2  N2  UNL     1     -15.261   7.549  -2.023  1.00  0.00    -0.326 N 
ATOM      3  H2  UNL     1     -14.725   7.805  -2.853  1.00  0.00     0.169 HD
HETATM    4  C3  UNL     1     -15.627   6.278  -1.692  1.00  0.00     0.139 A 
HETATM    5  N3  UNL     1     -15.422   5.082  -2.285  1.00  0.00    -0.336 N 
ATOM      6  H3  UNL     1     -14.897   5.058  -3.159  1.00  0.00     0.168 HD
HETATM    7  C4  UNL     1     -15.877   3.917  -1.783  1.00  0.00     0.102 A 
HETATM    8  C5  UNL     1     -15.665   2.757  -2.378  1.00  0.00     0.133 C 
HETATM    9  N4  UNL     1     -14.948   2.670  -3.582  1.00  0.00    -0.113 NA
HETATM   10  C6  UNL     1     -16.591   3.974  -0.591  1.00  0.00     0.251 A 
HETATM   11  O1  UNL     1     -17.034   2.898  -0.089  1.00  0.00    -0.281 OA
HETATM   12  C7  UNL     1     -16.788   5.204  -0.005  1.00  0.00     0.254 A 
HETATM   13  O2  UNL     1     -17.428   5.296   1.072  1.00  0.00    -0.281 OA
HETATM   14  C8  UNL     1     -16.302   6.371  -0.558  1.00  0.00     0.133 A 
HETATM   15  N5  UNL     1     -16.358   7.663  -0.188  1.00  0.00    -0.335 N 
ATOM     16  H5  UNL     1     -16.819   8.018   0.649  1.00  0.00     0.168 HD
ENDROOT
BRANCH   1  17
HETATM   17  C1  UNL     1     -15.559   9.735  -1.065  1.00  0.00     0.148 C 
HETATM   18  N1  UNL     1     -16.291  10.480  -0.102  1.00  0.00    -0.111 NA
ENDBRANCH   1  17
TORSDOF 1
ENDMDL
MODEL 5
REMARK VINA RESULT: -6.273448376      2.561      5.649
REMARK  1 active torsions:
REMARK  status: ('A' for Active; 'I' for Inactive)
REMARK    1  A    between atoms: C1_2  and  C2_3 
ROOT
HETATM    1  C2  UNL     1     -15.646   7.328  -0.714  1.00  0.00     0.120 A 
HETATM    2  N2  UNL     1     -15.328   6.841  -1.923  1.00  0.00    -0.326 N 
ATOM      3  H2  UNL     1     -15.079   7.408  -2.734  1.00  0.00     0.169 HD
HETATM    4  C3  UNL     1     -15.383   5.479  -1.912  1.00  0.00     0.139 A 
HETATM    5  N3  UNL     1     -15.155   4.544  -2.860  1.00  0.00    -0.336 N 
ATOM      6  H3  UNL     1     -14.883   4.857  -3.792  1.00  0.00     0.168 HD
HETATM    7  C4  UNL     1     -15.267   3.219  -2.640  1.00  0.00     0.102 A 
HETATM    8  C5  UNL     1     -15.038   2.322  -3.581  1.00  0.00     0.133 C 
HETATM    9  N4  UNL     1     -14.661   2.700  -4.879  1.00  0.00    -0.113 NA
HETATM   10  C6  UNL     1     -15.639   2.817  -1.361  1.00  0.00     0.251 A 
HETATM   11  O1  UNL     1     -15.753   1.579  -1.118  1.00  0.00    -0.281 OA
HETATM   12  C7  UNL     1     -15.867   3.787  -0.411  1.00  0.00     0.254 A 
HETATM   13  O2  UNL     1     -16.204   3.462   0.755  1.00  0.00    -0.281 OA
HETATM   14  C8  UNL     1     -15.739   5.134  -0.685  1.00  0.00     0.133 A 
HETATM   15  N5  UNL     1     -15.901   6.247   0.052  1.00  0.00    -0.335 N 
ATOM     16  H5  UNL     1     -16.174   6.270   1.034  1.00  0.00     0.168 HD
ENDROOT
BRANCH   1  17
HETATM   17  C1  UNL     1     -15.707   8.596  -0.324  1.00  0.00     0.148 C 
HETATM   18  N1  UNL     1     -16.499   8.926   0.808  1.00  0.00    -0.111 NA
ENDBRANCH   1  17
TORSDOF 1
ENDMDL
