MODEL 1
REMARK VINA RESULT: -6.268826603      0.000      0.000
REMARK  14 active torsions:
REMARK  status: ('A' for Active; 'I' for Inactive)
REMARK    1  A    between atoms: N1_1  and  C1_5 
REMARK    2  A    between atoms: C2_6  and  O1_7 
REMARK    3  A    between atoms: C3_9  and  O2_10 
REMARK    4  A    between atoms: C4_12  and  O3_13 
REMARK    5  A    between atoms: C5_15  and  N2_16 
REMARK    6  A    between atoms: C6_20  and  S1_21 
REMARK    7  A    between atoms: S1_21  and  S2_22 
REMARK    8  A    between atoms: S2_22  and  C7_23 
REMARK    9  A    between atoms: C7_23  and  C8_24 
REMARK   10  A    between atoms: C8_24  and  C9_25 
REMARK   11  A    between atoms: C9_25  and  S3_26 
REMARK   12  A    between atoms: S3_26  and  C10_27 
REMARK   13  A    between atoms: C10_27  and  C11_28 
REMARK   14  A    between atoms: C11_28  and  O4_29 
ROOT
HETATM    1  C1  UNL     1       5.955  15.313  30.507  1.00  0.00     0.231 C 
HETATM    2  C2  UNL     1       7.145  14.565  29.988  1.00  0.00     0.181 C 
HETATM    3  C3  UNL     1       8.461  15.218  30.283  1.00  0.00     0.179 C 
HETATM    4  C4  UNL     1       8.611  15.640  31.725  1.00  0.00     0.181 C 
HETATM    5  C5  UNL     1       7.482  16.626  32.002  1.00  0.00     0.231 C 
HETATM    6  C6  UNL     1       6.204  15.827  31.897  1.00  0.00     0.124 C 
ENDROOT
BRANCH   6   7
HETATM    7  S1  UNL     1       4.854  16.859  32.492  1.00  0.00    -0.088 SA
BRANCH   7   8
HETATM    8  S2  UNL     1       3.804  15.995  34.105  1.00  0.00    -0.097 SA
BRANCH   8   9
HETATM    9  C7  UNL     1       3.919  16.957  35.622  1.00  0.00     0.087 C 
BRANCH   9  10
HETATM   10  C8  UNL     1       4.564  18.306  35.420  1.00  0.00     0.021 C 
BRANCH  10  11
HETATM   11  C9  UNL     1       5.730  18.374  36.399  1.00  0.00     0.075 C 
BRANCH  11  12
HETATM   12  S3  UNL     1       5.848  16.887  37.414  1.00  0.00    -0.167 SA
BRANCH  12  13
HETATM   13  C10 UNL     1       7.283  15.876  37.002  1.00  0.00     0.099 C 
BRANCH  13  14
HETATM   14  C11 UNL     1       7.063  15.041  35.756  1.00  0.00     0.174 C 
BRANCH  14  15
HETATM   15  O4  UNL     1       8.321  14.598  35.326  1.00  0.00    -0.400 OA
ATOM     16  H4  UNL     1       8.291  14.546  34.378  1.00  0.00     0.209 HD
ENDBRANCH  14  15
ENDBRANCH  13  14
ENDBRANCH  12  13
ENDBRANCH  11  12
ENDBRANCH  10  11
ENDBRANCH   9  10
ENDBRANCH   8   9
ENDBRANCH   7   8
ENDBRANCH   6   7
BRANCH   1  17
HETATM   17  N1  UNL     1       5.503  16.349  29.597  1.00  0.00    -0.071 N 
ATOM     18  H13 UNL     1       6.293  16.815  29.151  1.00  0.00     0.274 HD
ATOM     19  H12 UNL     1       5.062  15.944  28.771  1.00  0.00     0.274 HD
ATOM     20  H11 UNL     1       4.886  17.027  30.045  1.00  0.00     0.274 HD
ENDBRANCH   1  17
BRANCH   5  21
HETATM   21  N2  UNL     1       7.519  17.606  30.943  1.00  0.00    -0.071 N 
ATOM     22  H23 UNL     1       8.450  17.735  30.547  1.00  0.00     0.274 HD
ATOM     23  H22 UNL     1       7.059  17.293  30.089  1.00  0.00     0.274 HD
ATOM     24  H21 UNL     1       7.121  18.464  31.324  1.00  0.00     0.274 HD
ENDBRANCH   5  21
BRANCH   2  25
HETATM   25  O1  UNL     1       7.052  14.432  28.594  1.00  0.00    -0.391 OA
ATOM     26  H1  UNL     1       7.345  13.567  28.333  1.00  0.00     0.210 HD
ENDBRANCH   2  25
BRANCH   4  27
HETATM   27  O3  UNL     1       8.606  14.573  32.602  1.00  0.00    -0.391 OA
ATOM     28  H3  UNL     1       8.700  14.839  33.509  1.00  0.00     0.210 HD
ENDBRANCH   4  27
BRANCH   3  29
HETATM   29  O2  UNL     1       9.478  14.290  30.030  1.00  0.00    -0.390 OA
ATOM     30  H2  UNL     1      10.314  14.720  30.166  1.00  0.00     0.210 HD
ENDBRANCH   3  29
TORSDOF 14
ENDMDL
MODEL 2
REMARK VINA RESULT: -6.258978273      1.978      2.800
REMARK  14 active torsions:
REMARK  status: ('A' for Active; 'I' for Inactive)
REMARK    1  A    between atoms: N1_1  and  C1_5 
REMARK    2  A    between atoms: C2_6  and  O1_7 
REMARK    3  A    between atoms: C3_9  and  O2_10 
REMARK    4  A    between atoms: C4_12  and  O3_13 
REMARK    5  A    between atoms: C5_15  and  N2_16 
REMARK    6  A    between atoms: C6_20  and  S1_21 
REMARK    7  A    between atoms: S1_21  and  S2_22 
REMARK    8  A    between atoms: S2_22  and  C7_23 
REMARK    9  A    between atoms: C7_23  and  C8_24 
REMARK   10  A    between atoms: C8_24  and  C9_25 
REMARK   11  A    between atoms: C9_25  and  S3_26 
REMARK   12  A    between atoms: S3_26  and  C10_27 
REMARK   13  A    between atoms: C10_27  and  C11_28 
REMARK   14  A    between atoms: C11_28  and  O4_29 
ROOT
HETATM    1  C1  UNL     1       5.988  15.559  31.343  1.00  0.00     0.231 C 
HETATM    2  C2  UNL     1       6.077  14.859  30.021  1.00  0.00     0.181 C 
HETATM    3  C3  UNL     1       7.379  15.055  29.306  1.00  0.00     0.179 C 
HETATM    4  C4  UNL     1       8.585  14.818  30.183  1.00  0.00     0.181 C 
HETATM    5  C5  UNL     1       8.483  15.814  31.331  1.00  0.00     0.231 C 
HETATM    6  C6  UNL     1       7.263  15.404  32.124  1.00  0.00     0.124 C 
ENDROOT
BRANCH   6   7
HETATM    7  S1  UNL     1       7.246  16.358  33.650  1.00  0.00    -0.088 SA
BRANCH   7   8
HETATM    8  S2  UNL     1       6.740  15.202  35.340  1.00  0.00    -0.097 SA
BRANCH   8   9
HETATM    9  C7  UNL     1       7.384  15.878  36.879  1.00  0.00     0.087 C 
BRANCH   9  10
HETATM   10  C8  UNL     1       6.841  17.249  37.197  1.00  0.00     0.021 C 
BRANCH  10  11
HETATM   11  C9  UNL     1       5.524  17.028  37.931  1.00  0.00     0.075 C 
BRANCH  11  12
HETATM   12  S3  UNL     1       4.107  17.579  36.959  1.00  0.00    -0.167 SA
BRANCH  12  13
HETATM   13  C10 UNL     1       4.590  18.410  35.434  1.00  0.00     0.099 C 
BRANCH  13  14
HETATM   14  C11 UNL     1       3.899  17.829  34.216  1.00  0.00     0.174 C 
BRANCH  14  15
HETATM   15  O4  UNL     1       4.192  18.669  33.134  1.00  0.00    -0.400 OA
ATOM     16  H4  UNL     1       4.582  18.128  32.457  1.00  0.00     0.209 HD
ENDBRANCH  14  15
ENDBRANCH  13  14
ENDBRANCH  12  13
ENDBRANCH  11  12
ENDBRANCH  10  11
ENDBRANCH   9  10
ENDBRANCH   8   9
ENDBRANCH   7   8
ENDBRANCH   6   7
BRANCH   1  17
HETATM   17  N1  UNL     1       5.569  16.943  31.219  1.00  0.00    -0.071 N 
ATOM     18  H13 UNL     1       5.657  17.432  32.109  1.00  0.00     0.274 HD
ATOM     19  H12 UNL     1       6.239  17.479  30.667  1.00  0.00     0.274 HD
ATOM     20  H11 UNL     1       4.626  17.037  30.842  1.00  0.00     0.274 HD
ENDBRANCH   1  17
BRANCH   5  21
HETATM   21  N2  UNL     1       8.251  17.108  30.737  1.00  0.00    -0.071 N 
ATOM     22  H23 UNL     1       9.004  17.406  30.116  1.00  0.00     0.274 HD
ATOM     23  H22 UNL     1       7.505  17.105  30.041  1.00  0.00     0.274 HD
ATOM     24  H21 UNL     1       8.082  17.758  31.505  1.00  0.00     0.274 HD
ENDBRANCH   5  21
BRANCH   2  25
HETATM   25  O1  UNL     1       5.063  15.324  29.168  1.00  0.00    -0.391 OA
ATOM     26  H1  UNL     1       5.277  15.110  28.268  1.00  0.00     0.210 HD
ENDBRANCH   2  25
BRANCH   4  27
HETATM   27  O3  UNL     1       8.682  13.513  30.625  1.00  0.00    -0.391 OA
ATOM     28  H3  UNL     1       8.281  13.379  31.476  1.00  0.00     0.210 HD
ENDBRANCH   4  27
BRANCH   3  29
HETATM   29  O2  UNL     1       7.453  14.123  28.265  1.00  0.00    -0.390 OA
ATOM     30  H2  UNL     1       8.264  14.267  27.793  1.00  0.00     0.210 HD
ENDBRANCH   3  29
TORSDOF 14
ENDMDL
MODEL 3
REMARK VINA RESULT: -6.244563435      3.566      6.756
REMARK  14 active torsions:
REMARK  status: ('A' for Active; 'I' for Inactive)
REMARK    1  A    between atoms: N1_1  and  C1_5 
REMARK    2  A    between atoms: C2_6  and  O1_7 
REMARK    3  A    between atoms: C3_9  and  O2_10 
REMARK    4  A    between atoms: C4_12  and  O3_13 
REMARK    5  A    between atoms: C5_15  and  N2_16 
REMARK    6  A    between atoms: C6_20  and  S1_21 
REMARK    7  A    between atoms: S1_21  and  S2_22 
REMARK    8  A    between atoms: S2_22  and  C7_23 
REMARK    9  A    between atoms: C7_23  and  C8_24 
REMARK   10  A    between atoms: C8_24  and  C9_25 
REMARK   11  A    between atoms: C9_25  and  S3_26 
REMARK   12  A    between atoms: S3_26  and  C10_27 
REMARK   13  A    between atoms: C10_27  and  C11_28 
REMARK   14  A    between atoms: C11_28  and  O4_29 
ROOT
HETATM    1  C1  UNL     1       5.232  17.011  33.378  1.00  0.00     0.231 C 
HETATM    2  C2  UNL     1       4.269  17.764  34.244  1.00  0.00     0.181 C 
HETATM    3  C3  UNL     1       4.160  17.242  35.644  1.00  0.00     0.179 C 
HETATM    4  C4  UNL     1       5.498  17.015  36.305  1.00  0.00     0.181 C 
HETATM    5  C5  UNL     1       6.236  16.000  35.442  1.00  0.00     0.231 C 
HETATM    6  C6  UNL     1       6.497  16.693  34.124  1.00  0.00     0.124 C 
ENDROOT
BRANCH   6   7
HETATM    7  S1  UNL     1       7.612  15.658  33.163  1.00  0.00    -0.088 SA
BRANCH   7   8
HETATM    8  S2  UNL     1       8.356  16.623  31.441  1.00  0.00    -0.097 SA
BRANCH   8   9
HETATM    9  C7  UNL     1       8.678  15.491  30.079  1.00  0.00     0.087 C 
BRANCH   9  10
HETATM   10  C8  UNL     1       7.666  15.600  28.965  1.00  0.00     0.021 C 
BRANCH  10  11
HETATM   11  C9  UNL     1       6.332  15.161  29.554  1.00  0.00     0.075 C 
BRANCH  11  12
HETATM   12  S3  UNL     1       5.017  16.348  29.213  1.00  0.00    -0.167 SA
BRANCH  12  13
HETATM   13  C10 UNL     1       5.646  17.931  28.619  1.00  0.00     0.099 C 
BRANCH  13  14
HETATM   14  C11 UNL     1       4.589  18.734  27.886  1.00  0.00     0.174 C 
BRANCH  14  15
HETATM   15  O4  UNL     1       5.250  19.498  26.916  1.00  0.00    -0.400 OA
ATOM     16  H4  UNL     1       5.605  20.263  27.354  1.00  0.00     0.209 HD
ENDBRANCH  14  15
ENDBRANCH  13  14
ENDBRANCH  12  13
ENDBRANCH  11  12
ENDBRANCH  10  11
ENDBRANCH   9  10
ENDBRANCH   8   9
ENDBRANCH   7   8
ENDBRANCH   6   7
BRANCH   1  17
HETATM   17  N1  UNL     1       4.635  15.840  32.761  1.00  0.00    -0.071 N 
ATOM     18  H13 UNL     1       5.158  15.555  31.934  1.00  0.00     0.274 HD
ATOM     19  H12 UNL     1       4.774  15.011  33.339  1.00  0.00     0.274 HD
ATOM     20  H11 UNL     1       3.647  15.971  32.541  1.00  0.00     0.274 HD
ENDBRANCH   1  17
BRANCH   5  21
HETATM   21  N2  UNL     1       5.328  14.899  35.229  1.00  0.00    -0.071 N 
ATOM     22  H23 UNL     1       4.367  15.197  35.063  1.00  0.00     0.274 HD
ATOM     23  H22 UNL     1       5.471  14.426  34.337  1.00  0.00     0.274 HD
ATOM     24  H21 UNL     1       5.425  14.279  36.033  1.00  0.00     0.274 HD
ENDBRANCH   5  21
BRANCH   2  25
HETATM   25  O1  UNL     1       2.984  17.714  33.682  1.00  0.00    -0.391 OA
ATOM     26  H1  UNL     1       2.924  18.329  32.960  1.00  0.00     0.210 HD
ENDBRANCH   2  25
BRANCH   4  27
HETATM   27  O3  UNL     1       6.217  18.182  36.479  1.00  0.00    -0.391 OA
ATOM     28  H3  UNL     1       7.137  18.027  36.661  1.00  0.00     0.210 HD
ENDBRANCH   4  27
BRANCH   3  29
HETATM   29  O2  UNL     1       3.488  18.196  36.417  1.00  0.00    -0.390 OA
ATOM     30  H2  UNL     1       2.579  18.213  36.144  1.00  0.00     0.210 HD
ENDBRANCH   3  29
TORSDOF 14
ENDMDL
MODEL 4
REMARK VINA RESULT: -6.153617087      3.455      6.570
REMARK  14 active torsions:
REMARK  status: ('A' for Active; 'I' for Inactive)
REMARK    1  A    between atoms: N1_1  and  C1_5 
REMARK    2  A    between atoms: C2_6  and  O1_7 
REMARK    3  A    between atoms: C3_9  and  O2_10 
REMARK    4  A    between atoms: C4_12  and  O3_13 
REMARK    5  A    between atoms: C5_15  and  N2_16 
REMARK    6  A    between atoms: C6_20  and  S1_21 
REMARK    7  A    between atoms: S1_21  and  S2_22 
REMARK    8  A    between atoms: S2_22  and  C7_23 
REMARK    9  A    between atoms: C7_23  and  C8_24 
REMARK   10  A    between atoms: C8_24  and  C9_25 
REMARK   11  A    between atoms: C9_25  and  S3_26 
REMARK   12  A    between atoms: S3_26  and  C10_27 
REMARK   13  A    between atoms: C10_27  and  C11_28 
REMARK   14  A    between atoms: C11_28  and  O4_29 
ROOT
HETATM    1  C1  UNL     1       5.199  17.025  33.440  1.00  0.00     0.231 C 
HETATM    2  C2  UNL     1       4.217  17.744  34.314  1.00  0.00     0.181 C 
HETATM    3  C3  UNL     1       4.095  17.180  35.697  1.00  0.00     0.179 C 
HETATM    4  C4  UNL     1       5.427  16.947  36.369  1.00  0.00     0.181 C 
HETATM    5  C5  UNL     1       6.186  15.964  35.486  1.00  0.00     0.231 C 
HETATM    6  C6  UNL     1       6.457  16.698  34.193  1.00  0.00     0.124 C 
ENDROOT
BRANCH   6   7
HETATM    7  S1  UNL     1       7.595  15.702  33.217  1.00  0.00    -0.088 SA
BRANCH   7   8
HETATM    8  S2  UNL     1       8.311  16.706  31.505  1.00  0.00    -0.097 SA
BRANCH   8   9
HETATM    9  C7  UNL     1       6.994  17.351  30.461  1.00  0.00     0.087 C 
BRANCH   9  10
HETATM   10  C8  UNL     1       6.819  16.575  29.180  1.00  0.00     0.021 C 
BRANCH  10  11
HETATM   11  C9  UNL     1       6.495  15.143  29.587  1.00  0.00     0.075 C 
BRANCH  11  12
HETATM   12  S3  UNL     1       7.705  13.968  28.949  1.00  0.00    -0.167 SA
BRANCH  12  13
HETATM   13  C10 UNL     1       9.366  14.664  28.850  1.00  0.00     0.099 C 
BRANCH  13  14
HETATM   14  C11 UNL     1       9.778  14.973  27.424  1.00  0.00     0.174 C 
BRANCH  14  15
HETATM   15  O4  UNL     1      10.898  14.182  27.137  1.00  0.00    -0.400 OA
ATOM     16  H4  UNL     1      11.422  14.137  27.929  1.00  0.00     0.209 HD
ENDBRANCH  14  15
ENDBRANCH  13  14
ENDBRANCH  12  13
ENDBRANCH  11  12
ENDBRANCH  10  11
ENDBRANCH   9  10
ENDBRANCH   8   9
ENDBRANCH   7   8
ENDBRANCH   6   7
BRANCH   1  17
HETATM   17  N1  UNL     1       4.621  15.868  32.782  1.00  0.00    -0.071 N 
ATOM     18  H13 UNL     1       4.761  15.024  33.336  1.00  0.00     0.274 HD
ATOM     19  H12 UNL     1       3.602  15.909  32.797  1.00  0.00     0.274 HD
ATOM     20  H11 UNL     1       4.967  15.741  31.830  1.00  0.00     0.274 HD
ENDBRANCH   1  17
BRANCH   5  21
HETATM   21  N2  UNL     1       5.292  14.862  35.230  1.00  0.00    -0.071 N 
ATOM     22  H23 UNL     1       4.342  15.158  35.009  1.00  0.00     0.274 HD
ATOM     23  H22 UNL     1       5.485  14.383  34.350  1.00  0.00     0.274 HD
ATOM     24  H21 UNL     1       5.344  14.247  36.042  1.00  0.00     0.274 HD
ENDBRANCH   5  21
BRANCH   2  25
HETATM   25  O1  UNL     1       2.940  17.698  33.734  1.00  0.00    -0.391 OA
ATOM     26  H1  UNL     1       2.362  17.169  34.271  1.00  0.00     0.210 HD
ENDBRANCH   2  25
BRANCH   4  27
HETATM   27  O3  UNL     1       6.132  18.115  36.586  1.00  0.00    -0.391 OA
ATOM     28  H3  UNL     1       6.841  18.009  37.210  1.00  0.00     0.210 HD
ENDBRANCH   4  27
BRANCH   3  29
HETATM   29  O2  UNL     1       3.404  18.104  36.489  1.00  0.00    -0.390 OA
ATOM     30  H2  UNL     1       2.806  17.626  37.051  1.00  0.00     0.210 HD
ENDBRANCH   3  29
TORSDOF 14
ENDMDL
MODEL 5
REMARK VINA RESULT: -6.107379225      3.247      6.903
REMARK  14 active torsions:
REMARK  status: ('A' for Active; 'I' for Inactive)
REMARK    1  A    between atoms: N1_1  and  C1_5 
REMARK    2  A    between atoms: C2_6  and  O1_7 
REMARK    3  A    between atoms: C3_9  and  O2_10 
REMARK    4  A    between atoms: C4_12  and  O3_13 
REMARK    5  A    between atoms: C5_15  and  N2_16 
REMARK    6  A    between atoms: C6_20  and  S1_21 
REMARK    7  A    between atoms: S1_21  and  S2_22 
REMARK    8  A    between atoms: S2_22  and  C7_23 
REMARK    9  A    between atoms: C7_23  and  C8_24 
REMARK   10  A    between atoms: C8_24  and  C9_25 
REMARK   11  A    between atoms: C9_25  and  S3_26 
REMARK   12  A    between atoms: S3_26  and  C10_27 
REMARK   13  A    between atoms: C10_27  and  C11_28 
REMARK   14  A    between atoms: C11_28  and  O4_29 
ROOT
HETATM    1  C1  UNL     1       4.862  16.926  35.262  1.00  0.00     0.231 C 
HETATM    2  C2  UNL     1       4.758  17.198  36.732  1.00  0.00     0.181 C 
HETATM    3  C3  UNL     1       5.666  16.361  37.580  1.00  0.00     0.179 C 
HETATM    4  C4  UNL     1       7.092  16.331  37.083  1.00  0.00     0.181 C 
HETATM    5  C5  UNL     1       7.042  15.756  35.674  1.00  0.00     0.231 C 
HETATM    6  C6  UNL     1       6.297  16.773  34.841  1.00  0.00     0.124 C 
ENDROOT
BRANCH   6   7
HETATM    7  S1  UNL     1       6.450  16.294  33.112  1.00  0.00    -0.088 SA
BRANCH   7   8
HETATM    8  S2  UNL     1       8.454  16.035  32.503  1.00  0.00    -0.097 SA
BRANCH   8   9
HETATM    9  C7  UNL     1       8.712  14.536  31.540  1.00  0.00     0.087 C 
BRANCH   9  10
HETATM   10  C8  UNL     1       8.879  14.800  30.064  1.00  0.00     0.021 C 
BRANCH  10  11
HETATM   11  C9  UNL     1       7.728  14.086  29.368  1.00  0.00     0.075 C 
BRANCH  11  12
HETATM   12  S3  UNL     1       6.191  15.027  29.462  1.00  0.00    -0.167 SA
BRANCH  12  13
HETATM   13  C10 UNL     1       6.439  16.792  29.194  1.00  0.00     0.099 C 
BRANCH  13  14
HETATM   14  C11 UNL     1       5.133  17.537  29.001  1.00  0.00     0.174 C 
BRANCH  14  15
HETATM   15  O4  UNL     1       4.464  16.929  27.932  1.00  0.00    -0.400 OA
ATOM     16  H4  UNL     1       3.660  16.557  28.277  1.00  0.00     0.209 HD
ENDBRANCH  14  15
ENDBRANCH  13  14
ENDBRANCH  12  13
ENDBRANCH  11  12
ENDBRANCH  10  11
ENDBRANCH   9  10
ENDBRANCH   8   9
ENDBRANCH   7   8
ENDBRANCH   6   7
BRANCH   1  17
HETATM   17  N1  UNL     1       4.030  15.815  34.837  1.00  0.00    -0.071 N 
ATOM     18  H13 UNL     1       4.378  14.933  35.212  1.00  0.00     0.274 HD
ATOM     19  H12 UNL     1       3.120  15.843  35.297  1.00  0.00     0.274 HD
ATOM     20  H11 UNL     1       3.926  15.765  33.824  1.00  0.00     0.274 HD
ENDBRANCH   1  17
BRANCH   5  21
HETATM   21  N2  UNL     1       6.267  14.542  35.749  1.00  0.00    -0.071 N 
ATOM     22  H23 UNL     1       6.205  14.162  36.694  1.00  0.00     0.274 HD
ATOM     23  H22 UNL     1       5.268  14.692  35.606  1.00  0.00     0.274 HD
ATOM     24  H21 UNL     1       6.675  13.890  35.079  1.00  0.00     0.274 HD
ENDBRANCH   5  21
BRANCH   2  25
HETATM   25  O1  UNL     1       3.445  16.958  37.168  1.00  0.00    -0.391 OA
ATOM     26  H1  UNL     1       2.969  17.779  37.222  1.00  0.00     0.210 HD
ENDBRANCH   2  25
BRANCH   4  27
HETATM   27  O3  UNL     1       7.703  17.569  37.127  1.00  0.00    -0.391 OA
ATOM     28  H3  UNL     1       7.425  18.093  37.869  1.00  0.00     0.210 HD
ENDBRANCH   4  27
BRANCH   3  29
HETATM   29  O2  UNL     1       5.701  16.916  38.865  1.00  0.00    -0.390 OA
ATOM     30  H2  UNL     1       5.962  17.826  38.789  1.00  0.00     0.210 HD
ENDBRANCH   3  29
TORSDOF 14
ENDMDL
