MODEL 1
REMARK VINA RESULT: -8.225681313      0.000      0.000
REMARK  10 active torsions:
REMARK  status: ('A' for Active; 'I' for Inactive)
REMARK    1  A    between atoms: C2_2  and  C3_3 
REMARK    2  A    between atoms: C3_3  and  C4_4 
REMARK    3  A    between atoms: C4_4  and  O1_5 
REMARK    4  A    between atoms: O1_5  and  C5_6 
REMARK    5  A    between atoms: C5_6  and  C6_7 
REMARK    6  A    between atoms: C6_7  and  N1_8 
REMARK    7  A    between atoms: C8_12  and  N3_13 
REMARK    8  A    between atoms: C9_18  and  C10_19 
REMARK    9  A    between atoms: C10_19  and  N5_20 
REMARK   10  A    between atoms: C12_25  and  N6_26 
ROOT
HETATM    1  N1  UNL     1       7.589  15.545  33.655  1.00  0.00    -0.162 N 
HETATM    2  C7  UNL     1       8.334  14.989  32.696  1.00  0.00     0.155 A 
HETATM    3  N2  UNL     1       9.399  14.233  32.969  1.00  0.00    -0.175 N 
ATOM      4  H2  UNL     1       9.652  14.102  33.948  1.00  0.00     0.186 HD
HETATM    5  C8  UNL     1      10.150  13.641  32.050  1.00  0.00     0.677 A 
HETATM    6  N4  UNL     1       9.839  13.797  30.754  1.00  0.00    -0.193 N 
ATOM      7  H4  UNL     1      10.423  13.337  30.055  1.00  0.00     0.184 HD
HETATM    8  C9  UNL     1       8.777  14.540  30.326  1.00  0.00     0.069 A 
HETATM    9  C11 UNL     1       8.020  15.140  31.329  1.00  0.00     0.080 A 
HETATM   10  C12 UNL     1       6.902  15.893  31.012  1.00  0.00     0.155 A 
HETATM   11  N7  UNL     1       6.155  16.451  31.996  1.00  0.00    -0.054 N 
HETATM   12  N8  UNL     1       5.066  17.192  31.899  1.00  0.00    -0.109 N 
ATOM     13  H8  UNL     1       4.594  17.474  31.039  1.00  0.00     0.207 HD
HETATM   14  C13 UNL     1       4.697  17.504  33.168  1.00  0.00     0.706 A 
HETATM   15  N9  UNL     1       3.680  18.216  33.490  1.00  0.00    -0.233 N 
ATOM     16  H91 UNL     1       3.403  18.451  34.443  1.00  0.00     0.174 HD
ATOM     17  H92 UNL     1       3.016  18.641  32.842  1.00  0.00     0.174 HD
HETATM   18  N10 UNL     1       5.573  16.944  34.022  1.00  0.00    -0.019 N 
ATOM     19  H10 UNL     1       5.553  17.004  35.040  1.00  0.00     0.203 HD
HETATM   20  C14 UNL     1       6.489  16.281  33.268  1.00  0.00     0.724 A 
ENDROOT
BRANCH   1  21
HETATM   21  C6  UNL     1       7.873  15.491  35.057  1.00  0.00     0.175 C 
BRANCH  21  22
HETATM   22  C5  UNL     1       6.888  14.631  35.772  1.00  0.00     0.188 C 
BRANCH  22  23
HETATM   23  O1  UNL     1       6.024  15.216  36.604  1.00  0.00    -0.390 OA
BRANCH  23  24
HETATM   24  C4  UNL     1       6.493  16.296  37.310  1.00  0.00     0.167 C 
BRANCH  24  25
HETATM   25  C3  UNL     1       5.425  16.956  38.177  1.00  0.00     0.026 C 
BRANCH  25  26
HETATM   26  C2  UNL     1       4.299  17.323  37.203  1.00  0.00    -0.002 C 
HETATM   27  C1  UNL     1       4.241  18.811  37.070  1.00  0.00     0.005 C 
ENDBRANCH  25  26
ENDBRANCH  24  25
ENDBRANCH  23  24
ENDBRANCH  22  23
ENDBRANCH  21  22
ENDBRANCH   1  21
BRANCH   5  28
HETATM   28  N3  UNL     1      11.162  12.927  32.374  1.00  0.00    -0.234 N 
ATOM     29  H32 UNL     1      11.067  11.912  32.420  1.00  0.00     0.174 HD
ATOM     30  H31 UNL     1      12.065  13.350  32.587  1.00  0.00     0.174 HD
ENDBRANCH   5  28
BRANCH   8  31
HETATM   31  C10 UNL     1       8.460  14.693  28.904  1.00  0.00     0.288 C 
BRANCH  31  32
HETATM   32  N5  UNL     1       9.787  14.690  28.214  1.00  0.00    -0.074 N 
ATOM     33  H53 UNL     1      10.576  14.879  28.832  1.00  0.00     0.274 HD
ATOM     34  H52 UNL     1      10.095  13.765  27.912  1.00  0.00     0.274 HD
ATOM     35  H51 UNL     1       9.687  15.361  27.453  1.00  0.00     0.274 HD
ENDBRANCH  31  32
ENDBRANCH   8  31
BRANCH  10  36
HETATM   36  N6  UNL     1       6.600  16.046  29.786  1.00  0.00    -0.383 N 
ATOM     37  H62 UNL     1       7.250  16.482  29.131  1.00  0.00     0.157 HD
ATOM     38  H61 UNL     1       5.688  15.721  29.464  1.00  0.00     0.157 HD
ENDBRANCH  10  36
TORSDOF 10
ENDMDL
MODEL 2
REMARK VINA RESULT: -8.187132817      1.031      4.320
REMARK  10 active torsions:
REMARK  status: ('A' for Active; 'I' for Inactive)
REMARK    1  A    between atoms: C2_2  and  C3_3 
REMARK    2  A    between atoms: C3_3  and  C4_4 
REMARK    3  A    between atoms: C4_4  and  O1_5 
REMARK    4  A    between atoms: O1_5  and  C5_6 
REMARK    5  A    between atoms: C5_6  and  C6_7 
REMARK    6  A    between atoms: C6_7  and  N1_8 
REMARK    7  A    between atoms: C8_12  and  N3_13 
REMARK    8  A    between atoms: C9_18  and  C10_19 
REMARK    9  A    between atoms: C10_19  and  N5_20 
REMARK   10  A    between atoms: C12_25  and  N6_26 
ROOT
HETATM    1  N1  UNL     1       7.657  15.465  33.488  1.00  0.00    -0.162 N 
HETATM    2  C7  UNL     1       6.776  16.161  32.764  1.00  0.00     0.155 A 
HETATM    3  N2  UNL     1       5.818  16.901  33.326  1.00  0.00    -0.175 N 
ATOM      4  H2  UNL     1       5.757  16.908  34.344  1.00  0.00     0.186 HD
HETATM    5  C8  UNL     1       4.940  17.627  32.648  1.00  0.00     0.677 A 
HETATM    6  N4  UNL     1       4.997  17.636  31.308  1.00  0.00    -0.193 N 
ATOM      7  H4  UNL     1       4.317  18.198  30.796  1.00  0.00     0.184 HD
HETATM    8  C9  UNL     1       5.924  16.929  30.597  1.00  0.00     0.069 A 
HETATM    9  C11 UNL     1       6.823  16.184  31.354  1.00  0.00     0.080 A 
HETATM   10  C12 UNL     1       7.825  15.452  30.740  1.00  0.00     0.155 A 
HETATM   11  N7  UNL     1       8.713  14.751  31.486  1.00  0.00    -0.054 N 
HETATM   12  N8  UNL     1       9.728  14.003  31.092  1.00  0.00    -0.109 N 
ATOM     13  H8  UNL     1      10.018  13.825  30.130  1.00  0.00     0.207 HD
HETATM   14  C13 UNL     1      10.309  13.518  32.219  1.00  0.00     0.706 A 
HETATM   15  N9  UNL     1      11.333  12.744  32.250  1.00  0.00    -0.233 N 
ATOM     16  H91 UNL     1      11.769  12.379  33.097  1.00  0.00     0.174 HD
ATOM     17  H92 UNL     1      11.843  12.392  31.441  1.00  0.00     0.174 HD
HETATM   18  N10 UNL     1       9.635  13.982  33.287  1.00  0.00    -0.019 N 
ATOM     19  H10 UNL     1       9.841  13.787  34.267  1.00  0.00     0.203 HD
HETATM   20  C14 UNL     1       8.629  14.760  32.810  1.00  0.00     0.724 A 
ENDROOT
BRANCH   1  21
HETATM   21  C6  UNL     1       7.641  15.342  34.914  1.00  0.00     0.175 C 
BRANCH  21  22
HETATM   22  C5  UNL     1       6.341  14.794  35.391  1.00  0.00     0.188 C 
BRANCH  22  23
HETATM   23  O1  UNL     1       5.554  15.581  36.127  1.00  0.00    -0.390 OA
BRANCH  23  24
HETATM   24  C4  UNL     1       6.188  16.483  36.945  1.00  0.00     0.167 C 
BRANCH  24  25
HETATM   25  C3  UNL     1       5.255  17.133  37.962  1.00  0.00     0.026 C 
BRANCH  25  26
HETATM   26  C2  UNL     1       4.277  17.964  37.123  1.00  0.00    -0.002 C 
HETATM   27  C1  UNL     1       5.041  19.028  36.403  1.00  0.00     0.005 C 
ENDBRANCH  25  26
ENDBRANCH  24  25
ENDBRANCH  23  24
ENDBRANCH  22  23
ENDBRANCH  21  22
ENDBRANCH   1  21
BRANCH   5  28
HETATM   28  N3  UNL     1       4.041  18.317  33.245  1.00  0.00    -0.234 N 
ATOM     29  H32 UNL     1       3.479  17.884  33.977  1.00  0.00     0.174 HD
ATOM     30  H31 UNL     1       3.875  19.294  33.005  1.00  0.00     0.174 HD
ENDBRANCH   5  28
BRANCH   8  31
HETATM   31  C10 UNL     1       5.964  16.958  29.133  1.00  0.00     0.288 C 
BRANCH  31  32
HETATM   32  N5  UNL     1       5.400  18.291  28.760  1.00  0.00    -0.074 N 
ATOM     33  H53 UNL     1       4.383  18.304  28.684  1.00  0.00     0.274 HD
ATOM     34  H52 UNL     1       5.469  18.992  29.497  1.00  0.00     0.274 HD
ATOM     35  H51 UNL     1       5.882  18.548  27.899  1.00  0.00     0.274 HD
ENDBRANCH  31  32
ENDBRANCH   8  31
BRANCH  10  36
HETATM   36  N6  UNL     1       7.887  15.455  29.469  1.00  0.00    -0.383 N 
ATOM     37  H62 UNL     1       8.312  14.681  28.958  1.00  0.00     0.157 HD
ATOM     38  H61 UNL     1       7.500  16.252  28.963  1.00  0.00     0.157 HD
ENDBRANCH  10  36
TORSDOF 10
ENDMDL
MODEL 3
REMARK VINA RESULT: -7.974349402      1.636      3.879
REMARK  10 active torsions:
REMARK  status: ('A' for Active; 'I' for Inactive)
REMARK    1  A    between atoms: C2_2  and  C3_3 
REMARK    2  A    between atoms: C3_3  and  C4_4 
REMARK    3  A    between atoms: C4_4  and  O1_5 
REMARK    4  A    between atoms: O1_5  and  C5_6 
REMARK    5  A    between atoms: C5_6  and  C6_7 
REMARK    6  A    between atoms: C6_7  and  N1_8 
REMARK    7  A    between atoms: C8_12  and  N3_13 
REMARK    8  A    between atoms: C9_18  and  C10_19 
REMARK    9  A    between atoms: C10_19  and  N5_20 
REMARK   10  A    between atoms: C12_25  and  N6_26 
ROOT
HETATM    1  N1  UNL     1       5.315  16.170  32.824  1.00  0.00    -0.162 N 
HETATM    2  C7  UNL     1       5.776  16.280  31.575  1.00  0.00     0.155 A 
HETATM    3  N2  UNL     1       5.030  16.765  30.580  1.00  0.00    -0.175 N 
ATOM      4  H2  UNL     1       4.071  17.037  30.793  1.00  0.00     0.186 HD
HETATM    5  C8  UNL     1       5.455  16.916  29.333  1.00  0.00     0.677 A 
HETATM    6  N4  UNL     1       6.713  16.565  29.026  1.00  0.00    -0.193 N 
ATOM      7  H4  UNL     1       7.030  16.685  28.063  1.00  0.00     0.184 HD
HETATM    8  C9  UNL     1       7.590  16.057  29.940  1.00  0.00     0.069 A 
HETATM    9  C11 UNL     1       7.097  15.919  31.235  1.00  0.00     0.080 A 
HETATM   10  C12 UNL     1       7.907  15.442  32.250  1.00  0.00     0.155 A 
HETATM   11  N7  UNL     1       7.427  15.336  33.513  1.00  0.00    -0.054 N 
HETATM   12  N8  UNL     1       8.037  14.911  34.606  1.00  0.00    -0.109 N 
ATOM     13  H8  UNL     1       8.999  14.582  34.679  1.00  0.00     0.207 HD
HETATM   14  C13 UNL     1       7.129  14.999  35.612  1.00  0.00     0.706 A 
HETATM   15  N9  UNL     1       7.346  14.674  36.834  1.00  0.00    -0.233 N 
ATOM     16  H91 UNL     1       6.664  14.739  37.590  1.00  0.00     0.174 HD
ATOM     17  H92 UNL     1       8.220  14.309  37.212  1.00  0.00     0.174 HD
HETATM   18  N10 UNL     1       5.976  15.479  35.114  1.00  0.00    -0.019 N 
ATOM     19  H10 UNL     1       5.115  15.654  35.632  1.00  0.00     0.203 HD
HETATM   20  C14 UNL     1       6.178  15.689  33.786  1.00  0.00     0.724 A 
ENDROOT
BRANCH   1  21
HETATM   21  C6  UNL     1       3.976  16.457  33.239  1.00  0.00     0.175 C 
BRANCH  21  22
HETATM   22  C5  UNL     1       3.858  17.850  33.753  1.00  0.00     0.188 C 
BRANCH  22  23
HETATM   23  O1  UNL     1       3.889  18.042  35.072  1.00  0.00    -0.390 OA
BRANCH  23  24
HETATM   24  C4  UNL     1       4.846  18.907  35.541  1.00  0.00     0.167 C 
BRANCH  24  25
HETATM   25  C3  UNL     1       5.652  18.339  36.706  1.00  0.00     0.026 C 
BRANCH  25  26
HETATM   26  C2  UNL     1       4.626  17.589  37.564  1.00  0.00    -0.002 C 
HETATM   27  C1  UNL     1       5.349  16.841  38.637  1.00  0.00     0.005 C 
ENDBRANCH  25  26
ENDBRANCH  24  25
ENDBRANCH  23  24
ENDBRANCH  22  23
ENDBRANCH  21  22
ENDBRANCH   1  21
BRANCH   5  28
HETATM   28  N3  UNL     1       4.691  17.387  28.420  1.00  0.00    -0.234 N 
ATOM     29  H32 UNL     1       4.942  17.260  27.440  1.00  0.00     0.174 HD
ATOM     30  H31 UNL     1       3.833  17.887  28.652  1.00  0.00     0.174 HD
ENDBRANCH   5  28
BRANCH   8  31
HETATM   31  C10 UNL     1       8.959  15.683  29.577  1.00  0.00     0.288 C 
BRANCH  31  32
HETATM   32  N5  UNL     1       8.807  14.749  28.418  1.00  0.00    -0.074 N 
ATOM     33  H53 UNL     1       8.027  14.098  28.511  1.00  0.00     0.274 HD
ATOM     34  H52 UNL     1       8.480  15.199  27.563  1.00  0.00     0.274 HD
ATOM     35  H51 UNL     1       9.715  14.296  28.327  1.00  0.00     0.274 HD
ENDBRANCH  31  32
ENDBRANCH   8  31
BRANCH  10  36
HETATM   36  N6  UNL     1       9.102  15.107  31.967  1.00  0.00    -0.383 N 
ATOM     37  H62 UNL     1       9.313  14.544  31.143  1.00  0.00     0.157 HD
ATOM     38  H61 UNL     1       9.854  15.415  32.584  1.00  0.00     0.157 HD
ENDBRANCH  10  36
TORSDOF 10
ENDMDL
MODEL 4
REMARK VINA RESULT: -7.760819653      1.591      3.310
REMARK  10 active torsions:
REMARK  status: ('A' for Active; 'I' for Inactive)
REMARK    1  A    between atoms: C2_2  and  C3_3 
REMARK    2  A    between atoms: C3_3  and  C4_4 
REMARK    3  A    between atoms: C4_4  and  O1_5 
REMARK    4  A    between atoms: O1_5  and  C5_6 
REMARK    5  A    between atoms: C5_6  and  C6_7 
REMARK    6  A    between atoms: C6_7  and  N1_8 
REMARK    7  A    between atoms: C8_12  and  N3_13 
REMARK    8  A    between atoms: C9_18  and  C10_19 
REMARK    9  A    between atoms: C10_19  and  N5_20 
REMARK   10  A    between atoms: C12_25  and  N6_26 
ROOT
HETATM    1  N1  UNL     1       5.792  16.833  32.387  1.00  0.00    -0.162 N 
HETATM    2  C7  UNL     1       6.756  16.073  32.915  1.00  0.00     0.155 A 
HETATM    3  N2  UNL     1       6.770  15.735  34.206  1.00  0.00    -0.175 N 
ATOM      4  H2  UNL     1       6.024  16.094  34.801  1.00  0.00     0.186 HD
HETATM    5  C8  UNL     1       7.692  14.962  34.766  1.00  0.00     0.677 A 
HETATM    6  N4  UNL     1       8.684  14.476  34.006  1.00  0.00    -0.193 N 
ATOM      7  H4  UNL     1       9.388  13.883  34.447  1.00  0.00     0.184 HD
HETATM    8  C9  UNL     1       8.797  14.737  32.671  1.00  0.00     0.069 A 
HETATM    9  C11 UNL     1       7.806  15.551  32.130  1.00  0.00     0.080 A 
HETATM   10  C12 UNL     1       7.803  15.857  30.781  1.00  0.00     0.155 A 
HETATM   11  N7  UNL     1       6.819  16.628  30.258  1.00  0.00    -0.054 N 
HETATM   12  N8  UNL     1       6.642  17.024  29.010  1.00  0.00    -0.109 N 
ATOM     13  H8  UNL     1       7.237  16.808  28.210  1.00  0.00     0.207 HD
HETATM   14  C13 UNL     1       5.512  17.778  29.002  1.00  0.00     0.706 A 
HETATM   15  N9  UNL     1       5.008  18.345  27.966  1.00  0.00    -0.233 N 
ATOM     16  H91 UNL     1       4.160  18.910  27.960  1.00  0.00     0.174 HD
ATOM     17  H92 UNL     1       5.385  18.307  27.019  1.00  0.00     0.174 HD
HETATM   18  N10 UNL     1       5.016  17.827  30.251  1.00  0.00    -0.019 N 
ATOM     19  H10 UNL     1       4.174  18.318  30.552  1.00  0.00     0.203 HD
HETATM   20  C14 UNL     1       5.851  17.096  31.035  1.00  0.00     0.724 A 
ENDROOT
BRANCH   1  21
HETATM   21  C6  UNL     1       4.730  17.449  33.123  1.00  0.00     0.175 C 
BRANCH  21  22
HETATM   22  C5  UNL     1       3.827  16.426  33.721  1.00  0.00     0.188 C 
BRANCH  22  23
HETATM   23  O1  UNL     1       3.685  16.405  35.047  1.00  0.00    -0.390 OA
BRANCH  23  24
HETATM   24  C4  UNL     1       4.039  17.550  35.717  1.00  0.00     0.167 C 
BRANCH  24  25
HETATM   25  C3  UNL     1       4.046  17.382  37.233  1.00  0.00     0.026 C 
BRANCH  25  26
HETATM   26  C2  UNL     1       5.512  17.114  37.592  1.00  0.00    -0.002 C 
HETATM   27  C1  UNL     1       6.385  17.977  36.737  1.00  0.00     0.005 C 
ENDBRANCH  25  26
ENDBRANCH  24  25
ENDBRANCH  23  24
ENDBRANCH  22  23
ENDBRANCH  21  22
ENDBRANCH   1  21
BRANCH   5  28
HETATM   28  N3  UNL     1       7.652  14.673  36.013  1.00  0.00    -0.234 N 
ATOM     29  H32 UNL     1       7.014  13.948  36.340  1.00  0.00     0.174 HD
ATOM     30  H31 UNL     1       8.247  15.152  36.688  1.00  0.00     0.174 HD
ENDBRANCH   5  28
BRANCH   8  31
HETATM   31  C10 UNL     1       9.892  14.192  31.865  1.00  0.00     0.288 C 
BRANCH  31  32
HETATM   32  N5  UNL     1      10.630  13.276  32.789  1.00  0.00    -0.074 N 
ATOM     33  H53 UNL     1      10.184  12.368  32.915  1.00  0.00     0.274 HD
ATOM     34  H52 UNL     1      11.508  12.923  32.409  1.00  0.00     0.274 HD
ATOM     35  H51 UNL     1      10.737  13.808  33.652  1.00  0.00     0.274 HD
ENDBRANCH  31  32
ENDBRANCH   8  31
BRANCH  10  36
HETATM   36  N6  UNL     1       8.741  15.400  30.052  1.00  0.00    -0.383 N 
ATOM     37  H62 UNL     1       9.126  14.467  30.208  1.00  0.00     0.157 HD
ATOM     38  H61 UNL     1       9.105  15.986  29.301  1.00  0.00     0.157 HD
ENDBRANCH  10  36
TORSDOF 10
ENDMDL
MODEL 5
REMARK VINA RESULT: -7.730625718      2.405      6.300
REMARK  10 active torsions:
REMARK  status: ('A' for Active; 'I' for Inactive)
REMARK    1  A    between atoms: C2_2  and  C3_3 
REMARK    2  A    between atoms: C3_3  and  C4_4 
REMARK    3  A    between atoms: C4_4  and  O1_5 
REMARK    4  A    between atoms: O1_5  and  C5_6 
REMARK    5  A    between atoms: C5_6  and  C6_7 
REMARK    6  A    between atoms: C6_7  and  N1_8 
REMARK    7  A    between atoms: C8_12  and  N3_13 
REMARK    8  A    between atoms: C9_18  and  C10_19 
REMARK    9  A    between atoms: C10_19  and  N5_20 
REMARK   10  A    between atoms: C12_25  and  N6_26 
ROOT
HETATM    1  N1  UNL     1       7.489  16.367  32.680  1.00  0.00    -0.162 N 
HETATM    2  C7  UNL     1       6.934  16.251  33.889  1.00  0.00     0.155 A 
HETATM    3  N2  UNL     1       7.603  15.766  34.937  1.00  0.00    -0.175 N 
ATOM      4  H2  UNL     1       8.564  15.460  34.788  1.00  0.00     0.186 HD
HETATM    5  C8  UNL     1       7.099  15.657  36.159  1.00  0.00     0.677 A 
HETATM    6  N4  UNL     1       5.837  16.053  36.382  1.00  0.00    -0.193 N 
ATOM      7  H4  UNL     1       5.460  15.964  37.326  1.00  0.00     0.184 HD
HETATM    8  C9  UNL     1       5.034  16.569  35.407  1.00  0.00     0.069 A 
HETATM    9  C11 UNL     1       5.609  16.664  34.142  1.00  0.00     0.080 A 
HETATM   10  C12 UNL     1       4.897  17.201  33.084  1.00  0.00     0.155 A 
HETATM   11  N7  UNL     1       5.473  17.315  31.862  1.00  0.00    -0.054 N 
HETATM   12  N8  UNL     1       4.966  17.796  30.741  1.00  0.00    -0.109 N 
ATOM     13  H8  UNL     1       4.028  18.172  30.607  1.00  0.00     0.207 HD
HETATM   14  C13 UNL     1       5.941  17.691  29.801  1.00  0.00     0.706 A 
HETATM   15  N9  UNL     1       5.830  18.055  28.575  1.00  0.00    -0.233 N 
ATOM     16  H91 UNL     1       6.562  17.976  27.870  1.00  0.00     0.174 HD
ATOM     17  H92 UNL     1       5.003  18.468  28.145  1.00  0.00     0.174 HD
HETATM   18  N10 UNL     1       7.032  17.145  30.369  1.00  0.00    -0.019 N 
ATOM     19  H10 UNL     1       7.920  16.945  29.910  1.00  0.00     0.203 HD
HETATM   20  C14 UNL     1       6.723  16.913  31.671  1.00  0.00     0.724 A 
ENDROOT
BRANCH   1  21
HETATM   21  C6  UNL     1       8.802  15.918  32.326  1.00  0.00     0.175 C 
BRANCH  21  22
HETATM   22  C5  UNL     1       8.802  14.465  31.998  1.00  0.00     0.188 C 
BRANCH  22  23
HETATM   23  O1  UNL     1       8.056  14.047  30.975  1.00  0.00    -0.390 OA
BRANCH  23  24
HETATM   24  C4  UNL     1       8.733  13.647  29.850  1.00  0.00     0.167 C 
BRANCH  24  25
HETATM   25  C3  UNL     1       8.384  14.470  28.613  1.00  0.00     0.026 C 
BRANCH  25  26
HETATM   26  C2  UNL     1       9.637  15.310  28.335  1.00  0.00    -0.002 C 
HETATM   27  C1  UNL     1      10.395  14.687  27.206  1.00  0.00     0.005 C 
ENDBRANCH  25  26
ENDBRANCH  24  25
ENDBRANCH  23  24
ENDBRANCH  22  23
ENDBRANCH  21  22
ENDBRANCH   1  21
BRANCH   5  28
HETATM   28  N3  UNL     1       7.792  15.182  37.126  1.00  0.00    -0.234 N 
ATOM     29  H32 UNL     1       8.097  14.210  37.095  1.00  0.00     0.174 HD
ATOM     30  H31 UNL     1       8.047  15.757  37.929  1.00  0.00     0.174 HD
ENDBRANCH   5  28
BRANCH   8  31
HETATM   31  C10 UNL     1       3.659  16.994  35.679  1.00  0.00     0.288 C 
BRANCH  31  32
HETATM   32  N5  UNL     1       3.742  17.765  36.958  1.00  0.00    -0.074 N 
ATOM     33  H53 UNL     1       4.559  17.539  37.525  1.00  0.00     0.274 HD
ATOM     34  H52 UNL     1       3.959  18.754  36.832  1.00  0.00     0.274 HD
ATOM     35  H51 UNL     1       2.853  17.593  37.425  1.00  0.00     0.274 HD
ENDBRANCH  31  32
ENDBRANCH   8  31
BRANCH  10  36
HETATM   36  N6  UNL     1       3.699  17.579  33.286  1.00  0.00    -0.383 N 
ATOM     37  H62 UNL     1       2.946  17.317  32.649  1.00  0.00     0.157 HD
ATOM     38  H61 UNL     1       3.501  18.154  34.105  1.00  0.00     0.157 HD
ENDBRANCH  10  36
TORSDOF 10
ENDMDL
