MODEL 1
REMARK VINA RESULT: -7.716347515      0.000      0.000
REMARK  10 active torsions:
REMARK  status: ('A' for Active; 'I' for Inactive)
REMARK    1  A    between atoms: N1_1  and  C1_5 
REMARK    2  A    between atoms: C1_5  and  C2_6 
REMARK    3  A    between atoms: C2_6  and  C3_7 
REMARK    4  A    between atoms: C3_7  and  C4_8 
REMARK    5  A    between atoms: C4_8  and  C5_9 
REMARK    6  A    between atoms: C5_9  and  C6_10 
REMARK    7  A    between atoms: C6_10  and  N2_11 
REMARK    8  A    between atoms: N2_11  and  C7_14 
REMARK    9  A    between atoms: C12_26  and  O1_27 
REMARK   10  A    between atoms: C15_34  and  O2_35 
ROOT
HETATM    1  C7  UNL     1      32.851  14.708  10.104  1.00  0.00     0.318 C 
HETATM    2  N3  UNL     1      34.158  14.412   9.602  1.00  0.00    -0.344 N 
ATOM      3  H3  UNL     1      34.904  14.490  10.293  1.00  0.00     0.163 HD
HETATM    4  C8  UNL     1      34.600  14.020   8.285  1.00  0.00     0.147 A 
HETATM    5  N4  UNL     1      35.822  14.440   7.991  1.00  0.00    -0.348 N 
ATOM      6  H4  UNL     1      36.366  14.985   8.660  1.00  0.00     0.167 HD
HETATM    7  C9  UNL     1      36.328  14.123   6.771  1.00  0.00     0.107 A 
HETATM    8  C10 UNL     1      35.554  13.383   5.902  1.00  0.00     0.107 A 
HETATM    9  N5  UNL     1      34.314  12.957   6.200  1.00  0.00    -0.348 N 
ATOM     10  H5  UNL     1      33.768  12.411   5.534  1.00  0.00     0.167 HD
HETATM   11  C11 UNL     1      33.823  13.276   7.406  1.00  0.00     0.152 A 
HETATM   12  N6  UNL     1      32.505  12.742   7.552  1.00  0.00    -0.305 N 
HETATM   13  C12 UNL     1      31.804  11.868   6.629  1.00  0.00     0.249 C 
HETATM   14  C13 UNL     1      30.637  11.409   7.503  1.00  0.00     0.288 C 
HETATM   15  N7  UNL     1      30.358  12.639   8.219  1.00  0.00    -0.047 N 
ATOM     16  H71 UNL     1      29.636  12.564   8.936  1.00  0.00     0.279 HD
ATOM     17  H72 UNL     1      29.882  13.356   7.671  1.00  0.00     0.279 HD
HETATM   18  C14 UNL     1      31.651  13.015   8.706  1.00  0.00     0.322 C 
HETATM   19  C15 UNL     1      31.767  14.454   9.073  1.00  0.00     0.218 C 
ENDROOT
BRANCH   1  20
HETATM   20  N2  UNL     1      32.792  16.093  10.491  1.00  0.00    -0.052 N 
ATOM     21  H22 UNL     1      31.987  16.557  10.070  1.00  0.00     0.279 HD
ATOM     22  H21 UNL     1      33.538  16.629  10.050  1.00  0.00     0.279 HD
BRANCH  20  23
HETATM   23  C6  UNL     1      32.804  16.267  11.925  1.00  0.00     0.235 C 
BRANCH  23  24
HETATM   24  C5  UNL     1      31.446  15.956  12.530  1.00  0.00     0.027 C 
BRANCH  24  25
HETATM   25  C4  UNL     1      31.489  16.005  14.037  1.00  0.00     0.002 C 
BRANCH  25  26
HETATM   26  C3  UNL     1      30.143  16.263  14.660  1.00  0.00     0.002 C 
BRANCH  26  27
HETATM   27  C2  UNL     1      30.261  16.528  16.129  1.00  0.00     0.027 C 
BRANCH  27  28
HETATM   28  C1  UNL     1      31.678  16.976  16.416  1.00  0.00     0.229 C 
BRANCH  28  29
HETATM   29  N1  UNL     1      31.704  18.320  16.934  1.00  0.00    -0.079 N 
ATOM     30  H13 UNL     1      31.646  19.011  16.187  1.00  0.00     0.274 HD
ATOM     31  H12 UNL     1      30.841  18.549  17.426  1.00  0.00     0.274 HD
ATOM     32  H11 UNL     1      32.523  18.471  17.523  1.00  0.00     0.274 HD
ENDBRANCH  28  29
ENDBRANCH  27  28
ENDBRANCH  26  27
ENDBRANCH  25  26
ENDBRANCH  24  25
ENDBRANCH  23  24
ENDBRANCH  20  23
ENDBRANCH   1  20
BRANCH  19  33
HETATM   33  O2  UNL     1      31.964  15.285   7.970  1.00  0.00    -0.388 OA
ATOM     34  H2  UNL     1      31.202  15.252   7.404  1.00  0.00     0.210 HD
ENDBRANCH  19  33
BRANCH  13  35
HETATM   35  O1  UNL     1      32.621  10.800   6.282  1.00  0.00    -0.375 OA
ATOM     36  H1  UNL     1      32.095  10.017   6.168  1.00  0.00     0.212 HD
ENDBRANCH  13  35
TORSDOF 10
ENDMDL
MODEL 2
REMARK VINA RESULT: -7.582499063      1.177      1.254
REMARK  10 active torsions:
REMARK  status: ('A' for Active; 'I' for Inactive)
REMARK    1  A    between atoms: N1_1  and  C1_5 
REMARK    2  A    between atoms: C1_5  and  C2_6 
REMARK    3  A    between atoms: C2_6  and  C3_7 
REMARK    4  A    between atoms: C3_7  and  C4_8 
REMARK    5  A    between atoms: C4_8  and  C5_9 
REMARK    6  A    between atoms: C5_9  and  C6_10 
REMARK    7  A    between atoms: C6_10  and  N2_11 
REMARK    8  A    between atoms: N2_11  and  C7_14 
REMARK    9  A    between atoms: C12_26  and  O1_27 
REMARK   10  A    between atoms: C15_34  and  O2_35 
ROOT
HETATM    1  C7  UNL     1      32.750  14.673  10.101  1.00  0.00     0.318 C 
HETATM    2  N3  UNL     1      34.071  14.401   9.623  1.00  0.00    -0.344 N 
ATOM      3  H3  UNL     1      34.802  14.486  10.330  1.00  0.00     0.163 HD
HETATM    4  C8  UNL     1      34.546  14.029   8.312  1.00  0.00     0.147 A 
HETATM    5  N4  UNL     1      35.766  14.471   8.046  1.00  0.00    -0.348 N 
ATOM      6  H4  UNL     1      36.288  15.018   8.730  1.00  0.00     0.167 HD
HETATM    7  C9  UNL     1      36.302  14.173   6.833  1.00  0.00     0.107 A 
HETATM    8  C10 UNL     1      35.557  13.429   5.942  1.00  0.00     0.107 A 
HETATM    9  N5  UNL     1      34.319  12.980   6.212  1.00  0.00    -0.348 N 
ATOM     10  H5  UNL     1      33.795  12.432   5.530  1.00  0.00     0.167 HD
HETATM   11  C11 UNL     1      33.798  13.280   7.410  1.00  0.00     0.152 A 
HETATM   12  N6  UNL     1      32.487  12.725   7.525  1.00  0.00    -0.305 N 
HETATM   13  C12 UNL     1      31.818  11.848   6.580  1.00  0.00     0.249 C 
HETATM   14  C13 UNL     1      30.641  11.362   7.426  1.00  0.00     0.288 C 
HETATM   15  N7  UNL     1      30.329  12.581   8.148  1.00  0.00    -0.047 N 
ATOM     16  H71 UNL     1      29.594  12.488   8.849  1.00  0.00     0.279 HD
ATOM     17  H72 UNL     1      29.852  13.295   7.597  1.00  0.00     0.279 HD
HETATM   18  C14 UNL     1      31.606  12.973   8.664  1.00  0.00     0.322 C 
HETATM   19  C15 UNL     1      31.691  14.410   9.046  1.00  0.00     0.218 C 
ENDROOT
BRANCH   1  20
HETATM   20  N2  UNL     1      32.661  16.052  10.498  1.00  0.00    -0.052 N 
ATOM     21  H22 UNL     1      31.826  16.492  10.111  1.00  0.00     0.279 HD
ATOM     22  H21 UNL     1      33.372  16.615  10.033  1.00  0.00     0.279 HD
BRANCH  20  23
HETATM   23  C6  UNL     1      32.721  16.220  11.933  1.00  0.00     0.235 C 
BRANCH  23  24
HETATM   24  C5  UNL     1      31.386  15.901  12.582  1.00  0.00     0.027 C 
BRANCH  24  25
HETATM   25  C4  UNL     1      31.483  15.932  14.087  1.00  0.00     0.002 C 
BRANCH  25  26
HETATM   26  C3  UNL     1      30.312  16.612  14.743  1.00  0.00     0.002 C 
BRANCH  26  27
HETATM   27  C2  UNL     1      29.911  15.917  16.007  1.00  0.00     0.027 C 
BRANCH  27  28
HETATM   28  C1  UNL     1      30.205  14.441  15.848  1.00  0.00     0.229 C 
BRANCH  28  29
HETATM   29  N1  UNL     1      29.255  13.640  16.578  1.00  0.00    -0.079 N 
ATOM     30  H13 UNL     1      29.698  13.147  17.353  1.00  0.00     0.274 HD
ATOM     31  H12 UNL     1      28.608  14.220  17.111  1.00  0.00     0.274 HD
ATOM     32  H11 UNL     1      28.761  12.999  15.958  1.00  0.00     0.274 HD
ENDBRANCH  28  29
ENDBRANCH  27  28
ENDBRANCH  26  27
ENDBRANCH  25  26
ENDBRANCH  24  25
ENDBRANCH  23  24
ENDBRANCH  20  23
ENDBRANCH   1  20
BRANCH  19  33
HETATM   33  O2  UNL     1      31.897  15.254   7.954  1.00  0.00    -0.388 OA
ATOM     34  H2  UNL     1      32.412  14.805   7.294  1.00  0.00     0.210 HD
ENDBRANCH  19  33
BRANCH  13  35
HETATM   35  O1  UNL     1      32.659  10.796   6.240  1.00  0.00    -0.375 OA
ATOM     36  H1  UNL     1      32.267  10.284   5.543  1.00  0.00     0.212 HD
ENDBRANCH  13  35
TORSDOF 10
ENDMDL
MODEL 3
REMARK VINA RESULT: -7.284880069      3.107      7.241
REMARK  10 active torsions:
REMARK  status: ('A' for Active; 'I' for Inactive)
REMARK    1  A    between atoms: N1_1  and  C1_5 
REMARK    2  A    between atoms: C1_5  and  C2_6 
REMARK    3  A    between atoms: C2_6  and  C3_7 
REMARK    4  A    between atoms: C3_7  and  C4_8 
REMARK    5  A    between atoms: C4_8  and  C5_9 
REMARK    6  A    between atoms: C5_9  and  C6_10 
REMARK    7  A    between atoms: C6_10  and  N2_11 
REMARK    8  A    between atoms: N2_11  and  C7_14 
REMARK    9  A    between atoms: C12_26  and  O1_27 
REMARK   10  A    between atoms: C15_34  and  O2_35 
ROOT
HETATM    1  C7  UNL     1      30.611  12.324   6.618  1.00  0.00     0.318 C 
HETATM    2  N3  UNL     1      30.043  12.747   7.861  1.00  0.00    -0.344 N 
ATOM      3  H3  UNL     1      29.287  12.154   8.205  1.00  0.00     0.163 HD
HETATM    4  C8  UNL     1      30.355  13.871   8.711  1.00  0.00     0.147 A 
HETATM    5  N4  UNL     1      29.309  14.338   9.376  1.00  0.00    -0.348 N 
ATOM      6  H4  UNL     1      28.387  13.915   9.271  1.00  0.00     0.167 HD
HETATM    7  C9  UNL     1      29.502  15.399  10.204  1.00  0.00     0.107 A 
HETATM    8  C10 UNL     1      30.767  15.935  10.313  1.00  0.00     0.107 A 
HETATM    9  N5  UNL     1      31.829  15.461   9.638  1.00  0.00    -0.348 N 
ATOM     10  H5  UNL     1      32.753  15.882   9.742  1.00  0.00     0.167 HD
HETATM   11  C11 UNL     1      31.629  14.416   8.824  1.00  0.00     0.152 A 
HETATM   12  N6  UNL     1      32.858  14.046   8.195  1.00  0.00    -0.305 N 
HETATM   13  C12 UNL     1      34.178  14.591   8.457  1.00  0.00     0.249 C 
HETATM   14  C13 UNL     1      35.056  13.567   7.737  1.00  0.00     0.288 C 
HETATM   15  N7  UNL     1      34.230  13.298   6.575  1.00  0.00    -0.047 N 
ATOM     16  H71 UNL     1      34.586  12.570   5.955  1.00  0.00     0.279 HD
ATOM     17  H72 UNL     1      34.227  14.037   5.871  1.00  0.00     0.279 HD
HETATM   18  C14 UNL     1      32.953  13.019   7.160  1.00  0.00     0.322 C 
HETATM   19  C15 UNL     1      31.809  13.165   6.217  1.00  0.00     0.218 C 
ENDROOT
BRANCH   1  20
HETATM   20  N2  UNL     1      29.619  12.426   5.581  1.00  0.00    -0.052 N 
ATOM     21  H22 UNL     1      29.693  13.317   5.089  1.00  0.00     0.279 HD
ATOM     22  H21 UNL     1      28.685  12.533   5.975  1.00  0.00     0.279 HD
BRANCH  20  23
HETATM   23  C6  UNL     1      29.669  11.315   4.657  1.00  0.00     0.235 C 
BRANCH  23  24
HETATM   24  C5  UNL     1      30.345  10.108   5.281  1.00  0.00     0.027 C 
BRANCH  24  25
HETATM   25  C4  UNL     1      29.350   9.013   5.582  1.00  0.00     0.002 C 
BRANCH  25  26
HETATM   26  C3  UNL     1      29.006   8.911   7.044  1.00  0.00     0.002 C 
BRANCH  26  27
HETATM   27  C2  UNL     1      27.554   9.185   7.285  1.00  0.00     0.027 C 
BRANCH  27  28
HETATM   28  C1  UNL     1      27.375   9.530   8.748  1.00  0.00     0.229 C 
BRANCH  28  29
HETATM   29  N1  UNL     1      26.011   9.893   9.034  1.00  0.00    -0.079 N 
ATOM     30  H13 UNL     1      25.836   9.935  10.038  1.00  0.00     0.274 HD
ATOM     31  H12 UNL     1      25.827  10.869   8.804  1.00  0.00     0.274 HD
ATOM     32  H11 UNL     1      25.357   9.268   8.564  1.00  0.00     0.274 HD
ENDBRANCH  28  29
ENDBRANCH  27  28
ENDBRANCH  26  27
ENDBRANCH  25  26
ENDBRANCH  24  25
ENDBRANCH  23  24
ENDBRANCH  20  23
ENDBRANCH   1  20
BRANCH  19  33
HETATM   33  O2  UNL     1      31.414  14.491   6.039  1.00  0.00    -0.388 OA
ATOM     34  H2  UNL     1      30.909  14.778   6.790  1.00  0.00     0.210 HD
ENDBRANCH  19  33
BRANCH  13  35
HETATM   35  O1  UNL     1      34.424  14.588   9.824  1.00  0.00    -0.375 OA
ATOM     36  H1  UNL     1      35.325  14.839   9.988  1.00  0.00     0.212 HD
ENDBRANCH  13  35
TORSDOF 10
ENDMDL
MODEL 4
REMARK VINA RESULT: -7.243042829      1.635      1.942
REMARK  10 active torsions:
REMARK  status: ('A' for Active; 'I' for Inactive)
REMARK    1  A    between atoms: N1_1  and  C1_5 
REMARK    2  A    between atoms: C1_5  and  C2_6 
REMARK    3  A    between atoms: C2_6  and  C3_7 
REMARK    4  A    between atoms: C3_7  and  C4_8 
REMARK    5  A    between atoms: C4_8  and  C5_9 
REMARK    6  A    between atoms: C5_9  and  C6_10 
REMARK    7  A    between atoms: C6_10  and  N2_11 
REMARK    8  A    between atoms: N2_11  and  C7_14 
REMARK    9  A    between atoms: C12_26  and  O1_27 
REMARK   10  A    between atoms: C15_34  and  O2_35 
ROOT
HETATM    1  C7  UNL     1      30.946  14.149   8.452  1.00  0.00     0.318 C 
HETATM    2  N3  UNL     1      32.338  13.821   8.470  1.00  0.00    -0.344 N 
ATOM      3  H3  UNL     1      32.753  13.788   9.401  1.00  0.00     0.163 HD
HETATM    4  C8  UNL     1      33.256  13.530   7.395  1.00  0.00     0.147 A 
HETATM    5  N4  UNL     1      34.503  13.900   7.649  1.00  0.00    -0.348 N 
ATOM      6  H4  UNL     1      34.750  14.344   8.534  1.00  0.00     0.167 HD
HETATM    7  C9  UNL     1      35.443  13.669   6.696  1.00  0.00     0.107 A 
HETATM    8  C10 UNL     1      35.060  13.065   5.517  1.00  0.00     0.107 A 
HETATM    9  N5  UNL     1      33.795  12.689   5.258  1.00  0.00    -0.348 N 
ATOM     10  H5  UNL     1      33.545  12.245   4.375  1.00  0.00     0.167 HD
HETATM   11  C11 UNL     1      32.874  12.922   6.204  1.00  0.00     0.152 A 
HETATM   12  N6  UNL     1      31.596  12.460   5.765  1.00  0.00    -0.305 N 
HETATM   13  C12 UNL     1      31.299  11.722   4.549  1.00  0.00     0.249 C 
HETATM   14  C13 UNL     1      29.873  11.255   4.842  1.00  0.00     0.288 C 
HETATM   15  N7  UNL     1      29.358  12.426   5.525  1.00  0.00    -0.047 N 
ATOM     16  H71 UNL     1      28.411  12.328   5.890  1.00  0.00     0.279 HD
ATOM     17  H72 UNL     1      29.151  13.219   4.919  1.00  0.00     0.279 HD
HETATM   18  C14 UNL     1      30.362  12.673   6.517  1.00  0.00     0.322 C 
HETATM   19  C15 UNL     1      30.351  14.061   7.058  1.00  0.00     0.218 C 
ENDROOT
BRANCH   1  20
HETATM   20  N2  UNL     1      30.765  15.491   8.936  1.00  0.00    -0.052 N 
ATOM     21  H22 UNL     1      29.809  15.640   9.258  1.00  0.00     0.279 HD
ATOM     22  H21 UNL     1      30.786  16.164   8.171  1.00  0.00     0.279 HD
BRANCH  20  23
HETATM   23  C6  UNL     1      31.720  15.842   9.963  1.00  0.00     0.235 C 
BRANCH  23  24
HETATM   24  C5  UNL     1      31.060  15.918  11.328  1.00  0.00     0.027 C 
BRANCH  24  25
HETATM   25  C4  UNL     1      32.079  16.096  12.426  1.00  0.00     0.002 C 
BRANCH  25  26
HETATM   26  C3  UNL     1      31.540  15.773  13.793  1.00  0.00     0.002 C 
BRANCH  26  27
HETATM   27  C2  UNL     1      31.200  17.016  14.556  1.00  0.00     0.027 C 
BRANCH  27  28
HETATM   28  C1  UNL     1      31.591  16.805  16.002  1.00  0.00     0.229 C 
BRANCH  28  29
HETATM   29  N1  UNL     1      31.600  18.051  16.726  1.00  0.00    -0.079 N 
ATOM     30  H13 UNL     1      32.207  18.739  16.280  1.00  0.00     0.274 HD
ATOM     31  H12 UNL     1      30.712  18.544  16.635  1.00  0.00     0.274 HD
ATOM     32  H11 UNL     1      31.851  17.907  17.704  1.00  0.00     0.274 HD
ENDBRANCH  28  29
ENDBRANCH  27  28
ENDBRANCH  26  27
ENDBRANCH  25  26
ENDBRANCH  24  25
ENDBRANCH  23  24
ENDBRANCH  20  23
ENDBRANCH   1  20
BRANCH  19  33
HETATM   33  O2  UNL     1      30.983  14.979   6.219  1.00  0.00    -0.388 OA
ATOM     34  H2  UNL     1      31.926  14.895   6.305  1.00  0.00     0.210 HD
ENDBRANCH  19  33
BRANCH  13  35
HETATM   35  O1  UNL     1      32.166  10.643   4.432  1.00  0.00    -0.375 OA
ATOM     36  H1  UNL     1      33.064  10.951   4.432  1.00  0.00     0.212 HD
ENDBRANCH  13  35
TORSDOF 10
ENDMDL
MODEL 5
REMARK VINA RESULT: -7.057176619      2.632      3.086
REMARK  10 active torsions:
REMARK  status: ('A' for Active; 'I' for Inactive)
REMARK    1  A    between atoms: N1_1  and  C1_5 
REMARK    2  A    between atoms: C1_5  and  C2_6 
REMARK    3  A    between atoms: C2_6  and  C3_7 
REMARK    4  A    between atoms: C3_7  and  C4_8 
REMARK    5  A    between atoms: C4_8  and  C5_9 
REMARK    6  A    between atoms: C5_9  and  C6_10 
REMARK    7  A    between atoms: C6_10  and  N2_11 
REMARK    8  A    between atoms: N2_11  and  C7_14 
REMARK    9  A    between atoms: C12_26  and  O1_27 
REMARK   10  A    between atoms: C15_34  and  O2_35 
ROOT
HETATM    1  C7  UNL     1      30.723  14.297   8.480  1.00  0.00     0.318 C 
HETATM    2  N3  UNL     1      32.111  13.988   8.636  1.00  0.00    -0.344 N 
ATOM      3  H3  UNL     1      32.444  14.009   9.600  1.00  0.00     0.163 HD
HETATM    4  C8  UNL     1      33.121  13.651   7.662  1.00  0.00     0.147 A 
HETATM    5  N4  UNL     1      34.338  14.049   8.002  1.00  0.00    -0.348 N 
ATOM      6  H4  UNL     1      34.504  14.542   8.879  1.00  0.00     0.167 HD
HETATM    7  C9  UNL     1      35.359  13.779   7.147  1.00  0.00     0.107 A 
HETATM    8  C10 UNL     1      35.084  13.108   5.974  1.00  0.00     0.107 A 
HETATM    9  N5  UNL     1      33.849  12.704   5.628  1.00  0.00    -0.348 N 
ATOM     10  H5  UNL     1      33.680  12.210   4.752  1.00  0.00     0.167 HD
HETATM   11  C11 UNL     1      32.848  12.976   6.477  1.00  0.00     0.152 A 
HETATM   12  N6  UNL     1      31.616  12.475   5.955  1.00  0.00    -0.305 N 
HETATM   13  C12 UNL     1      31.431  11.671   4.760  1.00  0.00     0.249 C 
HETATM   14  C13 UNL     1      29.988  11.202   4.954  1.00  0.00     0.288 C 
HETATM   15  N7  UNL     1      29.408  12.402   5.526  1.00  0.00    -0.047 N 
ATOM     16  H71 UNL     1      28.433  12.312   5.813  1.00  0.00     0.279 HD
ATOM     17  H72 UNL     1      29.248  13.160   4.862  1.00  0.00     0.279 HD
HETATM   18  C14 UNL     1      30.320  12.714   6.585  1.00  0.00     0.322 C 
HETATM   19  C15 UNL     1      30.252  14.128   7.047  1.00  0.00     0.218 C 
ENDROOT
BRANCH   1  20
HETATM   20  N2  UNL     1      30.491  15.662   8.874  1.00  0.00    -0.052 N 
ATOM     21  H22 UNL     1      29.535  15.947   8.663  1.00  0.00     0.279 HD
ATOM     22  H21 UNL     1      30.993  16.309   8.268  1.00  0.00     0.279 HD
BRANCH  20  23
HETATM   23  C6  UNL     1      30.811  15.898  10.264  1.00  0.00     0.235 C 
BRANCH  23  24
HETATM   24  C5  UNL     1      29.693  15.422  11.175  1.00  0.00     0.027 C 
BRANCH  24  25
HETATM   25  C4  UNL     1      30.065  15.572  12.630  1.00  0.00     0.002 C 
BRANCH  25  26
HETATM   26  C3  UNL     1      28.958  15.175  13.569  1.00  0.00     0.002 C 
BRANCH  26  27
HETATM   27  C2  UNL     1      27.760  14.674  12.823  1.00  0.00     0.027 C 
BRANCH  27  28
HETATM   28  C1  UNL     1      27.049  13.663  13.696  1.00  0.00     0.229 C 
BRANCH  28  29
HETATM   29  N1  UNL     1      25.986  13.010  12.976  1.00  0.00    -0.079 N 
ATOM     30  H13 UNL     1      25.431  12.411  13.587  1.00  0.00     0.274 HD
ATOM     31  H12 UNL     1      25.259  13.669  12.701  1.00  0.00     0.274 HD
ATOM     32  H11 UNL     1      26.348  12.495  12.173  1.00  0.00     0.274 HD
ENDBRANCH  28  29
ENDBRANCH  27  28
ENDBRANCH  26  27
ENDBRANCH  25  26
ENDBRANCH  24  25
ENDBRANCH  23  24
ENDBRANCH  20  23
ENDBRANCH   1  20
BRANCH  19  33
HETATM   33  O2  UNL     1      30.948  15.008   6.218  1.00  0.00    -0.388 OA
ATOM     34  H2  UNL     1      30.364  15.347   5.550  1.00  0.00     0.210 HD
ENDBRANCH  19  33
BRANCH  13  35
HETATM   35  O1  UNL     1      32.312  10.597   4.776  1.00  0.00    -0.375 OA
ATOM     36  H1  UNL     1      32.285  10.172   5.625  1.00  0.00     0.212 HD
ENDBRANCH  13  35
TORSDOF 10
ENDMDL
