MODEL 1
REMARK VINA RESULT: -5.576049212      0.000      0.000
REMARK  3 active torsions:
REMARK  status: ('A' for Active; 'I' for Inactive)
REMARK    1  A    between atoms: C4_4  and  N1_5 
REMARK    2  A    between atoms: C12_14  and  N3_15 
REMARK    3  A    between atoms: N3_15  and  C13_17 
ROOT
HETATM    1  N1  UNL     1       9.622   4.317  10.251  1.00  0.00    -0.306 N 
HETATM    2  C5  UNL     1      10.770   4.546  11.004  1.00  0.00     0.112 A 
HETATM    3  C6  UNL     1      12.000   4.439  10.472  1.00  0.00     0.008 A 
HETATM    4  C7  UNL     1      13.126   4.677  11.257  1.00  0.00     0.015 A 
HETATM    5  C8  UNL     1      14.383   4.570  10.724  1.00  0.00     0.001 A 
HETATM    6  C9  UNL     1      14.529   4.225   9.404  1.00  0.00     0.002 A 
HETATM    7  C10 UNL     1      13.402   3.982   8.597  1.00  0.00     0.031 A 
HETATM    8  C11 UNL     1      12.162   4.093   9.146  1.00  0.00     0.070 A 
HETATM    9  N2  UNL     1      11.047   3.868   8.404  1.00  0.00    -0.130 N 
HETATM   10  C12 UNL     1      11.181   3.538   7.138  1.00  0.00     0.692 A 
HETATM   11  N5  UNL     1      10.062   3.310   6.389  1.00  0.00    -0.190 N 
ATOM     12  H5  UNL     1      10.170   3.054   5.408  1.00  0.00     0.184 HD
HETATM   13  C21 UNL     1       8.853   3.410   6.892  1.00  0.00     0.063 A 
HETATM   14  C22 UNL     1       7.747   3.164   6.074  1.00  0.00     0.031 A 
HETATM   15  C23 UNL     1       6.478   3.261   6.569  1.00  0.00     0.002 A 
HETATM   16  C24 UNL     1       6.300   3.602   7.881  1.00  0.00     0.001 A 
HETATM   17  C25 UNL     1       7.393   3.850   8.713  1.00  0.00     0.017 A 
HETATM   18  C26 UNL     1       8.658   3.752   8.207  1.00  0.00     0.037 A 
HETATM   19  C27 UNL     1       9.773   3.994   9.010  1.00  0.00     0.148 A 
ENDROOT
BRANCH  10  20
HETATM   20  N3  UNL     1      12.271   3.397   6.493  1.00  0.00    -0.191 N 
ATOM     21  H3  UNL     1      12.700   2.472   6.465  1.00  0.00     0.184 HD
BRANCH  20  22
HETATM   22  C13 UNL     1      12.922   4.465   5.809  1.00  0.00     0.050 A 
HETATM   23  C14 UNL     1      14.293   4.497   5.825  1.00  0.00     0.031 A 
HETATM   24  C15 UNL     1      15.003   5.518   5.174  1.00  0.00     0.016 A 
HETATM   25  C16 UNL     1      14.327   6.508   4.508  1.00  0.00    -0.009 A 
HETATM   26  C17 UNL     1      14.734   7.618   3.791  1.00  0.00     0.100 A 
HETATM   27  C19 UNL     1      12.956   6.483   4.489  1.00  0.00    -0.007 A 
HETATM   28  N4  UNL     1      13.644   8.232   3.362  1.00  0.00    -0.374 N 
HETATM   29  C18 UNL     1      12.545   7.576   3.763  1.00  0.00     0.100 A 
ATOM     30  H4  UNL     1      13.640   9.086   2.803  1.00  0.00     0.164 HD
HETATM   31  C20 UNL     1      12.253   5.457   5.143  1.00  0.00     0.043 A 
ENDBRANCH  20  22
ENDBRANCH  10  20
BRANCH   1  32
HETATM   32  C4  UNL     1       8.519   4.506  11.070  1.00  0.00     0.040 A 
HETATM   33  C3  UNL     1       8.041   5.802  11.236  1.00  0.00     0.030 A 
HETATM   34  C2  UNL     1       7.079   6.130  12.155  1.00  0.00     0.002 A 
HETATM   35  C1  UNL     1       6.538   5.173  12.963  1.00  0.00     0.000 A 
HETATM   36  C29 UNL     1       7.013   3.883  12.798  1.00  0.00     0.002 A 
HETATM   37  C28 UNL     1       7.972   3.537  11.888  1.00  0.00     0.030 A 
ENDBRANCH   1  32
TORSDOF 3
ENDMDL
MODEL 2
REMARK VINA RESULT: -5.050999705      2.350      5.652
REMARK  3 active torsions:
REMARK  status: ('A' for Active; 'I' for Inactive)
REMARK    1  A    between atoms: C4_4  and  N1_5 
REMARK    2  A    between atoms: C12_14  and  N3_15 
REMARK    3  A    between atoms: N3_15  and  C13_17 
ROOT
HETATM    1  N1  UNL     1      11.082   6.269   9.982  1.00  0.00    -0.306 N 
HETATM    2  C5  UNL     1      11.971   6.734   9.016  1.00  0.00     0.112 A 
HETATM    3  C6  UNL     1      12.041   6.182   7.792  1.00  0.00     0.008 A 
HETATM    4  C7  UNL     1      12.943   6.675   6.852  1.00  0.00     0.015 A 
HETATM    5  C8  UNL     1      13.022   6.119   5.603  1.00  0.00     0.001 A 
HETATM    6  C9  UNL     1      12.203   5.067   5.280  1.00  0.00     0.002 A 
HETATM    7  C10 UNL     1      11.285   4.556   6.218  1.00  0.00     0.031 A 
HETATM    8  C11 UNL     1      11.223   5.124   7.454  1.00  0.00     0.070 A 
HETATM    9  N2  UNL     1      10.353   4.664   8.390  1.00  0.00    -0.130 N 
HETATM   10  C12 UNL     1       9.565   3.656   8.085  1.00  0.00     0.692 A 
HETATM   11  N5  UNL     1       8.689   3.191   9.024  1.00  0.00    -0.190 N 
ATOM     12  H5  UNL     1       8.080   2.409   8.785  1.00  0.00     0.184 HD
HETATM   13  C21 UNL     1       8.607   3.718  10.224  1.00  0.00     0.063 A 
HETATM   14  C22 UNL     1       7.690   3.197  11.141  1.00  0.00     0.031 A 
HETATM   15  C23 UNL     1       7.582   3.724  12.396  1.00  0.00     0.002 A 
HETATM   16  C24 UNL     1       8.386   4.773  12.748  1.00  0.00     0.001 A 
HETATM   17  C25 UNL     1       9.308   5.306  11.845  1.00  0.00     0.017 A 
HETATM   18  C26 UNL     1       9.406   4.771  10.593  1.00  0.00     0.037 A 
HETATM   19  C27 UNL     1      10.316   5.279   9.664  1.00  0.00     0.148 A 
ENDROOT
BRANCH  10  20
HETATM   20  N3  UNL     1       9.513   3.030   6.977  1.00  0.00    -0.191 N 
ATOM     21  H3  UNL     1      10.378   2.645   6.597  1.00  0.00     0.184 HD
BRANCH  20  22
HETATM   22  C13 UNL     1       8.307   2.842   6.238  1.00  0.00     0.050 A 
HETATM   23  C14 UNL     1       7.227   3.622   6.562  1.00  0.00     0.031 A 
HETATM   24  C15 UNL     1       6.008   3.493   5.879  1.00  0.00     0.016 A 
HETATM   25  C16 UNL     1       5.880   2.574   4.869  1.00  0.00    -0.009 A 
HETATM   26  C17 UNL     1       4.836   2.221   4.034  1.00  0.00     0.100 A 
HETATM   27  C19 UNL     1       6.956   1.790   4.541  1.00  0.00    -0.007 A 
HETATM   28  N4  UNL     1       5.275   1.261   3.237  1.00  0.00    -0.374 N 
HETATM   29  C18 UNL     1       6.555   0.971   3.511  1.00  0.00     0.100 A 
ATOM     30  H4  UNL     1       4.717   0.805   2.515  1.00  0.00     0.164 HD
HETATM   31  C20 UNL     1       8.173   1.926   5.229  1.00  0.00     0.043 A 
ENDBRANCH  20  22
ENDBRANCH  10  20
BRANCH   1  32
HETATM   32  C4  UNL     1      11.243   7.034  11.126  1.00  0.00     0.040 A 
HETATM   33  C3  UNL     1      12.428   6.900  11.843  1.00  0.00     0.030 A 
HETATM   34  C2  UNL     1      12.622   7.466  13.076  1.00  0.00     0.002 A 
HETATM   35  C1  UNL     1      11.635   8.202  13.663  1.00  0.00     0.000 A 
HETATM   36  C29 UNL     1      10.456   8.336  12.951  1.00  0.00     0.002 A 
HETATM   37  C28 UNL     1      10.244   7.779  11.721  1.00  0.00     0.030 A 
ENDBRANCH   1  32
TORSDOF 3
ENDMDL
MODEL 3
REMARK VINA RESULT: -4.699300825      1.405      3.948
REMARK  3 active torsions:
REMARK  status: ('A' for Active; 'I' for Inactive)
REMARK    1  A    between atoms: C4_4  and  N1_5 
REMARK    2  A    between atoms: C12_14  and  N3_15 
REMARK    3  A    between atoms: N3_15  and  C13_17 
ROOT
HETATM    1  N1  UNL     1       8.556   4.744  10.122  1.00  0.00    -0.306 N 
HETATM    2  C5  UNL     1       7.672   3.946   9.400  1.00  0.00     0.112 A 
HETATM    3  C6  UNL     1       7.986   3.459   8.187  1.00  0.00     0.008 A 
HETATM    4  C7  UNL     1       7.076   2.663   7.494  1.00  0.00     0.015 A 
HETATM    5  C8  UNL     1       7.387   2.164   6.258  1.00  0.00     0.001 A 
HETATM    6  C9  UNL     1       8.606   2.452   5.700  1.00  0.00     0.002 A 
HETATM    7  C10 UNL     1       9.538   3.254   6.386  1.00  0.00     0.031 A 
HETATM    8  C11 UNL     1       9.209   3.741   7.614  1.00  0.00     0.070 A 
HETATM    9  N2  UNL     1      10.077   4.519   8.311  1.00  0.00    -0.130 N 
HETATM   10  C12 UNL     1      11.248   4.798   7.782  1.00  0.00     0.692 A 
HETATM   11  N5  UNL     1      12.123   5.580   8.480  1.00  0.00    -0.190 N 
ATOM     12  H5  UNL     1      13.030   5.795   8.067  1.00  0.00     0.184 HD
HETATM   13  C21 UNL     1      11.834   6.064   9.667  1.00  0.00     0.063 A 
HETATM   14  C22 UNL     1      12.772   6.858  10.331  1.00  0.00     0.031 A 
HETATM   15  C23 UNL     1      12.499   7.375  11.566  1.00  0.00     0.002 A 
HETATM   16  C24 UNL     1      11.291   7.106  12.147  1.00  0.00     0.001 A 
HETATM   17  C25 UNL     1      10.342   6.314  11.498  1.00  0.00     0.017 A 
HETATM   18  C26 UNL     1      10.626   5.802  10.264  1.00  0.00     0.037 A 
HETATM   19  C27 UNL     1       9.701   5.007   9.586  1.00  0.00     0.148 A 
ENDROOT
BRANCH  10  20
HETATM   20  N3  UNL     1      11.689   4.415   6.650  1.00  0.00    -0.191 N 
ATOM     21  H3  UNL     1      11.436   3.483   6.322  1.00  0.00     0.184 HD
BRANCH  20  22
HETATM   22  C13 UNL     1      12.520   5.223   5.818  1.00  0.00     0.050 A 
HETATM   23  C14 UNL     1      13.856   4.918   5.754  1.00  0.00     0.031 A 
HETATM   24  C15 UNL     1      14.734   5.668   4.957  1.00  0.00     0.016 A 
HETATM   25  C16 UNL     1      14.263   6.727   4.224  1.00  0.00    -0.009 A 
HETATM   26  C17 UNL     1      14.864   7.630   3.368  1.00  0.00     0.100 A 
HETATM   27  C19 UNL     1      12.928   7.037   4.283  1.00  0.00    -0.007 A 
HETATM   28  N4  UNL     1      13.921   8.450   2.934  1.00  0.00    -0.374 N 
HETATM   29  C18 UNL     1      12.733   8.125   3.464  1.00  0.00     0.100 A 
ATOM     30  H4  UNL     1      14.077   9.223   2.286  1.00  0.00     0.164 HD
HETATM   31  C20 UNL     1      12.056   6.281   5.083  1.00  0.00     0.043 A 
ENDBRANCH  20  22
ENDBRANCH  10  20
BRANCH   1  32
HETATM   32  C4  UNL     1       7.954   5.083  11.324  1.00  0.00     0.040 A 
HETATM   33  C3  UNL     1       7.116   6.194  11.346  1.00  0.00     0.030 A 
HETATM   34  C2  UNL     1       6.614   6.726  12.505  1.00  0.00     0.002 A 
HETATM   35  C1  UNL     1       6.923   6.172  13.712  1.00  0.00     0.000 A 
HETATM   36  C29 UNL     1       7.755   5.067  13.691  1.00  0.00     0.002 A 
HETATM   37  C28 UNL     1       8.267   4.522  12.546  1.00  0.00     0.030 A 
ENDBRANCH   1  32
TORSDOF 3
ENDMDL
MODEL 4
REMARK VINA RESULT: -4.008066446      2.328      6.328
REMARK  3 active torsions:
REMARK  status: ('A' for Active; 'I' for Inactive)
REMARK    1  A    between atoms: C4_4  and  N1_5 
REMARK    2  A    between atoms: C12_14  and  N3_15 
REMARK    3  A    between atoms: N3_15  and  C13_17 
ROOT
HETATM    1  N1  UNL     1      11.250   6.066  10.310  1.00  0.00    -0.306 N 
HETATM    2  C5  UNL     1      10.357   6.058  11.378  1.00  0.00     0.112 A 
HETATM    3  C6  UNL     1       9.323   5.201  11.431  1.00  0.00     0.008 A 
HETATM    4  C7  UNL     1       8.449   5.223  12.517  1.00  0.00     0.015 A 
HETATM    5  C8  UNL     1       7.393   4.354  12.580  1.00  0.00     0.001 A 
HETATM    6  C9  UNL     1       7.197   3.456  11.562  1.00  0.00     0.002 A 
HETATM    7  C10 UNL     1       8.070   3.419  10.458  1.00  0.00     0.031 A 
HETATM    8  C11 UNL     1       9.113   4.292  10.415  1.00  0.00     0.070 A 
HETATM    9  N2  UNL     1       9.980   4.292   9.369  1.00  0.00    -0.130 N 
HETATM   10  C12 UNL     1       9.797   3.433   8.391  1.00  0.00     0.692 A 
HETATM   11  N5  UNL     1      10.666   3.431   7.338  1.00  0.00    -0.190 N 
ATOM     12  H5  UNL     1      10.521   2.763   6.580  1.00  0.00     0.184 HD
HETATM   13  C21 UNL     1      11.683   4.261   7.269  1.00  0.00     0.063 A 
HETATM   14  C22 UNL     1      12.536   4.209   6.164  1.00  0.00     0.031 A 
HETATM   15  C23 UNL     1      13.601   5.060   6.065  1.00  0.00     0.002 A 
HETATM   16  C24 UNL     1      13.822   5.967   7.064  1.00  0.00     0.001 A 
HETATM   17  C25 UNL     1      12.978   6.033   8.174  1.00  0.00     0.017 A 
HETATM   18  C26 UNL     1      11.918   5.177   8.263  1.00  0.00     0.037 A 
HETATM   19  C27 UNL     1      11.054   5.214   9.359  1.00  0.00     0.148 A 
ENDROOT
BRANCH  10  20
HETATM   20  N3  UNL     1       8.871   2.563   8.296  1.00  0.00    -0.191 N 
ATOM     21  H3  UNL     1       8.802   1.849   9.021  1.00  0.00     0.184 HD
BRANCH  20  22
HETATM   22  C13 UNL     1       7.925   2.538   7.229  1.00  0.00     0.050 A 
HETATM   23  C14 UNL     1       6.919   3.471   7.239  1.00  0.00     0.031 A 
HETATM   24  C15 UNL     1       5.953   3.507   6.223  1.00  0.00     0.016 A 
HETATM   25  C16 UNL     1       6.000   2.599   5.196  1.00  0.00    -0.009 A 
HETATM   26  C17 UNL     1       5.213   2.386   4.081  1.00  0.00     0.100 A 
HETATM   27  C19 UNL     1       7.003   1.663   5.180  1.00  0.00    -0.007 A 
HETATM   28  N4  UNL     1       5.727   1.359   3.424  1.00  0.00    -0.374 N 
HETATM   29  C18 UNL     1       6.813   0.892   4.057  1.00  0.00     0.100 A 
ATOM     30  H4  UNL     1       5.349   0.976   2.557  1.00  0.00     0.164 HD
HETATM   31  C20 UNL     1       7.967   1.634   6.201  1.00  0.00     0.043 A 
ENDBRANCH  20  22
ENDBRANCH  10  20
BRANCH   1  32
HETATM   32  C4  UNL     1      12.198   7.049  10.543  1.00  0.00     0.040 A 
HETATM   33  C3  UNL     1      12.600   7.275  11.856  1.00  0.00     0.030 A 
HETATM   34  C2  UNL     1      13.390   8.333  12.223  1.00  0.00     0.002 A 
HETATM   35  C1  UNL     1      13.824   9.230  11.291  1.00  0.00     0.000 A 
HETATM   36  C29 UNL     1      13.424   9.006   9.985  1.00  0.00     0.002 A 
HETATM   37  C28 UNL     1      12.637   7.957   9.599  1.00  0.00     0.030 A 
ENDBRANCH   1  32
TORSDOF 3
ENDMDL
MODEL 5
REMARK VINA RESULT: -3.648860319      1.543      4.132
REMARK  3 active torsions:
REMARK  status: ('A' for Active; 'I' for Inactive)
REMARK    1  A    between atoms: C4_4  and  N1_5 
REMARK    2  A    between atoms: C12_14  and  N3_15 
REMARK    3  A    between atoms: N3_15  and  C13_17 
ROOT
HETATM    1  N1  UNL     1       8.525   4.781  10.301  1.00  0.00    -0.306 N 
HETATM    2  C5  UNL     1       7.649   3.962   9.593  1.00  0.00     0.112 A 
HETATM    3  C6  UNL     1       7.949   3.495   8.369  1.00  0.00     0.008 A 
HETATM    4  C7  UNL     1       7.047   2.677   7.690  1.00  0.00     0.015 A 
HETATM    5  C8  UNL     1       7.343   2.196   6.443  1.00  0.00     0.001 A 
HETATM    6  C9  UNL     1       8.540   2.526   5.860  1.00  0.00     0.002 A 
HETATM    7  C10 UNL     1       9.464   3.350   6.531  1.00  0.00     0.031 A 
HETATM    8  C11 UNL     1       9.149   3.817   7.770  1.00  0.00     0.070 A 
HETATM    9  N2  UNL     1      10.009   4.615   8.454  1.00  0.00    -0.130 N 
HETATM   10  C12 UNL     1      11.159   4.933   7.900  1.00  0.00     0.692 A 
HETATM   11  N5  UNL     1      12.026   5.736   8.584  1.00  0.00    -0.190 N 
ATOM     12  H5  UNL     1      12.917   5.981   8.152  1.00  0.00     0.184 HD
HETATM   13  C21 UNL     1      11.751   6.202   9.782  1.00  0.00     0.063 A 
HETATM   14  C22 UNL     1      12.680   7.019  10.430  1.00  0.00     0.031 A 
HETATM   15  C23 UNL     1      12.420   7.518  11.675  1.00  0.00     0.002 A 
HETATM   16  C24 UNL     1      11.235   7.208  12.282  1.00  0.00     0.001 A 
HETATM   17  C25 UNL     1      10.295   6.394  11.648  1.00  0.00     0.017 A 
HETATM   18  C26 UNL     1      10.565   5.900  10.404  1.00  0.00     0.037 A 
HETATM   19  C27 UNL     1       9.649   5.082   9.741  1.00  0.00     0.148 A 
ENDROOT
BRANCH  10  20
HETATM   20  N3  UNL     1      11.585   4.572   6.755  1.00  0.00    -0.191 N 
ATOM     21  H3  UNL     1      11.573   3.578   6.526  1.00  0.00     0.184 HD
BRANCH  20  22
HETATM   22  C13 UNL     1      12.079   5.486   5.777  1.00  0.00     0.050 A 
HETATM   23  C14 UNL     1      11.167   6.252   5.096  1.00  0.00     0.031 A 
HETATM   24  C15 UNL     1      11.578   7.172   4.120  1.00  0.00     0.016 A 
HETATM   25  C16 UNL     1      12.911   7.319   3.831  1.00  0.00    -0.009 A 
HETATM   26  C17 UNL     1      13.608   8.120   2.946  1.00  0.00     0.100 A 
HETATM   27  C19 UNL     1      13.828   6.556   4.509  1.00  0.00    -0.007 A 
HETATM   28  N4  UNL     1      14.893   7.844   3.091  1.00  0.00    -0.374 N 
HETATM   29  C18 UNL     1      15.069   6.902   4.029  1.00  0.00     0.100 A 
ATOM     30  H4  UNL     1      15.645   8.287   2.563  1.00  0.00     0.164 HD
HETATM   31  C20 UNL     1      13.408   5.638   5.485  1.00  0.00     0.043 A 
ENDBRANCH  20  22
ENDBRANCH  10  20
BRANCH   1  32
HETATM   32  C4  UNL     1       7.940   5.093  11.518  1.00  0.00     0.040 A 
HETATM   33  C3  UNL     1       6.973   6.092  11.544  1.00  0.00     0.030 A 
HETATM   34  C2  UNL     1       6.461   6.606  12.707  1.00  0.00     0.002 A 
HETATM   35  C1  UNL     1       6.892   6.145  13.916  1.00  0.00     0.000 A 
HETATM   36  C29 UNL     1       7.855   5.151  13.892  1.00  0.00     0.002 A 
HETATM   37  C28 UNL     1       8.378   4.627  12.743  1.00  0.00     0.030 A 
ENDBRANCH   1  32
TORSDOF 3
ENDMDL
