MODEL 1
REMARK VINA RESULT: 3.606166238      0.000      0.000
REMARK  3 active torsions:
REMARK  status: ('A' for Active; 'I' for Inactive)
REMARK       I    between atoms: C2_2  and  N1_4 
REMARK    1  A    between atoms: N1_4  and  C3_6 
REMARK    2  A    between atoms: C6_9  and  C7_10 
REMARK    3  A    between atoms: C22_29  and  C23_30 
ROOT
HETATM    1  C3  UNL     1      11.147   4.197   8.481  1.00  0.00     0.144 A 
HETATM    2  C4  UNL     1       9.810   3.844   8.712  1.00  0.00     0.037 A 
HETATM    3  C5  UNL     1       8.950   3.585   7.672  1.00  0.00     0.030 A 
HETATM    4  C6  UNL     1       7.625   3.224   7.909  1.00  0.00    -0.025 A 
HETATM    5  C17 UNL     1       7.208   3.138   9.209  1.00  0.00     0.014 A 
HETATM    6  C18 UNL     1       8.041   3.390  10.274  1.00  0.00     0.032 A 
HETATM    7  C19 UNL     1       9.364   3.748  10.012  1.00  0.00     0.063 A 
HETATM    8  N2  UNL     1      10.197   3.989  11.029  1.00  0.00    -0.190 N 
ATOM      9  H2  UNL     1       9.849   3.916  11.985  1.00  0.00     0.184 HD
HETATM   10  C20 UNL     1      11.470   4.323  10.825  1.00  0.00     0.691 A 
HETATM   11  N3  UNL     1      12.411   4.633  11.753  1.00  0.00    -0.199 N 
ATOM     12  H3  UNL     1      12.302   4.638  12.767  1.00  0.00     0.183 HD
HETATM   13  C21 UNL     1      13.494   4.927  11.065  1.00  0.00     0.137 A 
HETATM   14  C22 UNL     1      13.239   4.799   9.657  1.00  0.00     0.085 A 
HETATM   15  N4  UNL     1      11.970   4.430   9.583  1.00  0.00    -0.129 N 
ENDROOT
BRANCH   4  16
HETATM   16  C7  UNL     1       6.742   2.958   6.753  1.00  0.00    -0.025 A 
HETATM   17  C8  UNL     1       5.565   3.658   6.559  1.00  0.00     0.013 A 
HETATM   18  C9  UNL     1       4.761   3.399   5.470  1.00  0.00     0.013 A 
HETATM   19  C10 UNL     1       5.108   2.432   4.540  1.00  0.00    -0.026 A 
HETATM   20  C11 UNL     1       4.298   2.175   3.444  1.00  0.00     0.012 A 
HETATM   21  C15 UNL     1       6.267   1.727   4.709  1.00  0.00    -0.025 A 
HETATM   22  C12 UNL     1       4.671   1.209   2.536  1.00  0.00     0.001 A 
HETATM   23  C13 UNL     1       5.834   0.481   2.680  1.00  0.00     0.001 A 
HETATM   24  C14 UNL     1       6.615   0.764   3.783  1.00  0.00     0.012 A 
HETATM   25  C16 UNL     1       7.069   2.000   5.816  1.00  0.00     0.024 A 
ENDBRANCH   4  16
BRANCH   1  26
HETATM   26  N1  UNL     1      11.526   4.400   7.351  1.00  0.00    -0.312 N 
HETATM   27  C2  UNL     1      11.523   4.985   6.164  1.00  0.00     0.219 C 
HETATM   28  C1  UNL     1      12.278   6.266   5.816  1.00  0.00     0.117 C 
HETATM   29  O1  UNL     1      10.877   4.533   5.151  1.00  0.00    -0.274 OA
ATOM     30  H1  UNL     1      12.294   3.734   7.261  1.00  0.00     0.170 HD
ENDBRANCH   1  26
BRANCH  14  31
HETATM   31  C23 UNL     1      14.260   5.114   8.688  1.00  0.00    -0.007 A 
HETATM   32  C24 UNL     1      14.878   4.000   8.067  1.00  0.00     0.014 A 
HETATM   33  C25 UNL     1      15.743   4.176   7.025  1.00  0.00     0.001 A 
HETATM   34  C26 UNL     1      16.026   5.453   6.562  1.00  0.00     0.000 A 
HETATM   35  C27 UNL     1      15.436   6.549   7.149  1.00  0.00     0.001 A 
HETATM   36  C28 UNL     1      14.557   6.356   8.209  1.00  0.00     0.014 A 
ENDBRANCH  14  31
TORSDOF 3
ENDMDL
MODEL 2
REMARK VINA RESULT: 6.925685257      3.645      7.374
REMARK  3 active torsions:
REMARK  status: ('A' for Active; 'I' for Inactive)
REMARK       I    between atoms: C2_2  and  N1_4 
REMARK    1  A    between atoms: N1_4  and  C3_6 
REMARK    2  A    between atoms: C6_9  and  C7_10 
REMARK    3  A    between atoms: C22_29  and  C23_30 
ROOT
HETATM    1  C3  UNL     1      11.401   4.674  10.279  1.00  0.00     0.144 A 
HETATM    2  C4  UNL     1      12.569   4.459   9.534  1.00  0.00     0.037 A 
HETATM    3  C5  UNL     1      12.781   5.101   8.338  1.00  0.00     0.030 A 
HETATM    4  C6  UNL     1      13.948   4.891   7.606  1.00  0.00    -0.025 A 
HETATM    5  C17 UNL     1      14.876   4.025   8.118  1.00  0.00     0.014 A 
HETATM    6  C18 UNL     1      14.698   3.366   9.311  1.00  0.00     0.032 A 
HETATM    7  C19 UNL     1      13.520   3.594  10.026  1.00  0.00     0.063 A 
HETATM    8  N2  UNL     1      13.326   2.973  11.194  1.00  0.00    -0.190 N 
ATOM      9  H2  UNL     1      14.040   2.334  11.543  1.00  0.00     0.184 HD
HETATM   10  C20 UNL     1      12.224   3.170  11.914  1.00  0.00     0.691 A 
HETATM   11  N3  UNL     1      11.876   2.582  13.087  1.00  0.00    -0.199 N 
ATOM     12  H3  UNL     1      12.419   1.906  13.626  1.00  0.00     0.183 HD
HETATM   13  C21 UNL     1      10.691   3.069  13.383  1.00  0.00     0.137 A 
HETATM   14  C22 UNL     1      10.267   3.996  12.371  1.00  0.00     0.085 A 
HETATM   15  N4  UNL     1      11.258   4.004  11.494  1.00  0.00    -0.129 N 
ENDROOT
BRANCH   4  16
HETATM   16  C7  UNL     1      14.124   5.605   6.324  1.00  0.00    -0.025 A 
HETATM   17  C8  UNL     1      15.261   5.451   5.553  1.00  0.00     0.013 A 
HETATM   18  C9  UNL     1      15.401   6.120   4.357  1.00  0.00     0.013 A 
HETATM   19  C10 UNL     1      14.406   6.966   3.892  1.00  0.00    -0.026 A 
HETATM   20  C11 UNL     1      14.548   7.637   2.687  1.00  0.00     0.012 A 
HETATM   21  C15 UNL     1      13.272   7.136   4.636  1.00  0.00    -0.025 A 
HETATM   22  C12 UNL     1      13.542   8.470   2.251  1.00  0.00     0.001 A 
HETATM   23  C13 UNL     1      12.386   8.661   2.979  1.00  0.00     0.001 A 
HETATM   24  C14 UNL     1      12.280   7.977   4.174  1.00  0.00     0.012 A 
HETATM   25  C16 UNL     1      13.146   6.452   5.844  1.00  0.00     0.024 A 
ENDBRANCH   4  16
BRANCH   1  26
HETATM   26  N1  UNL     1      10.506   5.337   9.811  1.00  0.00    -0.312 N 
HETATM   27  C2  UNL     1       9.645   5.718   8.879  1.00  0.00     0.219 C 
HETATM   28  C1  UNL     1       8.260   5.112   8.665  1.00  0.00     0.117 C 
HETATM   29  O1  UNL     1       9.880   6.658   8.038  1.00  0.00    -0.274 OA
ATOM     30  H1  UNL     1      10.284   5.971  10.580  1.00  0.00     0.170 HD
ENDBRANCH   1  26
BRANCH  14  31
HETATM   31  C23 UNL     1       8.974   4.632  12.443  1.00  0.00    -0.007 A 
HETATM   32  C24 UNL     1       8.992   6.045  12.534  1.00  0.00     0.014 A 
HETATM   33  C25 UNL     1       7.832   6.762  12.449  1.00  0.00     0.001 A 
HETATM   34  C26 UNL     1       6.621   6.111  12.272  1.00  0.00     0.000 A 
HETATM   35  C27 UNL     1       6.580   4.738  12.180  1.00  0.00     0.001 A 
HETATM   36  C28 UNL     1       7.768   4.020  12.267  1.00  0.00     0.014 A 
ENDBRANCH  14  31
TORSDOF 3
ENDMDL
MODEL 3
REMARK VINA RESULT: 6.983462212      4.650      6.124
REMARK  3 active torsions:
REMARK  status: ('A' for Active; 'I' for Inactive)
REMARK       I    between atoms: C2_2  and  N1_4 
REMARK    1  A    between atoms: N1_4  and  C3_6 
REMARK    2  A    between atoms: C6_9  and  C7_10 
REMARK    3  A    between atoms: C22_29  and  C23_30 
ROOT
HETATM    1  C3  UNL     1      12.807   5.013   7.902  1.00  0.00     0.144 A 
HETATM    2  C4  UNL     1      12.562   4.548   9.201  1.00  0.00     0.037 A 
HETATM    3  C5  UNL     1      11.334   4.706   9.796  1.00  0.00     0.030 A 
HETATM    4  C6  UNL     1      11.093   4.232  11.084  1.00  0.00    -0.025 A 
HETATM    5  C17 UNL     1      12.119   3.605  11.737  1.00  0.00     0.014 A 
HETATM    6  C18 UNL     1      13.360   3.428  11.172  1.00  0.00     0.032 A 
HETATM    7  C19 UNL     1      13.577   3.911   9.880  1.00  0.00     0.063 A 
HETATM    8  N2  UNL     1      14.771   3.744   9.304  1.00  0.00    -0.190 N 
ATOM      9  H2  UNL     1      15.512   3.273   9.823  1.00  0.00     0.184 HD
HETATM   10  C20 UNL     1      15.018   4.178   8.070  1.00  0.00     0.691 A 
HETATM   11  N3  UNL     1      16.185   4.115   7.380  1.00  0.00    -0.199 N 
ATOM     12  H3  UNL     1      17.065   3.700   7.688  1.00  0.00     0.183 HD
HETATM   13  C21 UNL     1      15.942   4.704   6.229  1.00  0.00     0.137 A 
HETATM   14  C22 UNL     1      14.579   5.156   6.180  1.00  0.00     0.085 A 
HETATM   15  N4  UNL     1      14.072   4.803   7.351  1.00  0.00    -0.129 N 
ENDROOT
BRANCH   4  16
HETATM   16  C7  UNL     1       9.754   4.431  11.678  1.00  0.00    -0.025 A 
HETATM   17  C8  UNL     1       9.148   3.460  12.453  1.00  0.00     0.013 A 
HETATM   18  C9  UNL     1       7.902   3.669  13.004  1.00  0.00     0.013 A 
HETATM   19  C10 UNL     1       7.223   4.860  12.798  1.00  0.00    -0.026 A 
HETATM   20  C11 UNL     1       5.970   5.069  13.354  1.00  0.00     0.012 A 
HETATM   21  C15 UNL     1       7.800   5.836  12.035  1.00  0.00    -0.025 A 
HETATM   22  C12 UNL     1       5.320   6.262  13.133  1.00  0.00     0.001 A 
HETATM   23  C13 UNL     1       5.877   7.267  12.368  1.00  0.00     0.001 A 
HETATM   24  C14 UNL     1       7.124   7.022  11.830  1.00  0.00     0.012 A 
HETATM   25  C16 UNL     1       9.060   5.608  11.485  1.00  0.00     0.024 A 
ENDBRANCH   4  16
BRANCH   1  26
HETATM   26  N1  UNL     1      11.970   5.675   7.335  1.00  0.00    -0.312 N 
HETATM   27  C2  UNL     1      11.162   6.710   7.162  1.00  0.00     0.219 C 
HETATM   28  C1  UNL     1      11.543   8.013   6.464  1.00  0.00     0.117 C 
HETATM   29  O1  UNL     1       9.944   6.734   7.566  1.00  0.00    -0.274 OA
ATOM     30  H1  UNL     1      11.770   5.107   6.511  1.00  0.00     0.170 HD
ENDBRANCH   1  26
BRANCH  14  31
HETATM   31  C23 UNL     1      14.078   5.877   5.036  1.00  0.00    -0.007 A 
HETATM   32  C24 UNL     1      12.808   5.467   4.562  1.00  0.00     0.014 A 
HETATM   33  C25 UNL     1      12.166   6.178   3.588  1.00  0.00     0.001 A 
HETATM   34  C26 UNL     1      12.754   7.313   3.051  1.00  0.00     0.000 A 
HETATM   35  C27 UNL     1      13.988   7.731   3.497  1.00  0.00     0.001 A 
HETATM   36  C28 UNL     1      14.630   6.999   4.490  1.00  0.00     0.014 A 
ENDBRANCH  14  31
TORSDOF 3
ENDMDL
MODEL 4
REMARK VINA RESULT: 7.311041146      2.200      2.767
REMARK  3 active torsions:
REMARK  status: ('A' for Active; 'I' for Inactive)
REMARK       I    between atoms: C2_2  and  N1_4 
REMARK    1  A    between atoms: N1_4  and  C3_6 
REMARK    2  A    between atoms: C6_9  and  C7_10 
REMARK    3  A    between atoms: C22_29  and  C23_30 
ROOT
HETATM    1  C3  UNL     1       9.834   5.446   9.915  1.00  0.00     0.144 A 
HETATM    2  C4  UNL     1       8.775   4.534   9.807  1.00  0.00     0.037 A 
HETATM    3  C5  UNL     1       8.306   4.127   8.581  1.00  0.00     0.030 A 
HETATM    4  C6  UNL     1       7.261   3.212   8.479  1.00  0.00    -0.025 A 
HETATM    5  C17 UNL     1       6.716   2.730   9.639  1.00  0.00     0.014 A 
HETATM    6  C18 UNL     1       7.161   3.114  10.882  1.00  0.00     0.032 A 
HETATM    7  C19 UNL     1       8.210   4.032  10.958  1.00  0.00     0.063 A 
HETATM    8  N2  UNL     1       8.668   4.414  12.155  1.00  0.00    -0.190 N 
ATOM      9  H2  UNL     1       8.236   4.035  12.997  1.00  0.00     0.184 HD
HETATM   10  C20 UNL     1       9.674   5.278  12.274  1.00  0.00     0.691 A 
HETATM   11  N3  UNL     1      10.210   5.784  13.414  1.00  0.00    -0.199 N 
ATOM     12  H3  UNL     1       9.944   5.563  14.373  1.00  0.00     0.183 HD
HETATM   13  C21 UNL     1      11.147   6.618  13.017  1.00  0.00     0.137 A 
HETATM   14  C22 UNL     1      11.213   6.647  11.582  1.00  0.00     0.085 A 
HETATM   15  N4  UNL     1      10.272   5.802  11.191  1.00  0.00    -0.129 N 
ENDROOT
BRANCH   4  16
HETATM   16  C7  UNL     1       6.793   2.811   7.135  1.00  0.00    -0.025 A 
HETATM   17  C8  UNL     1       5.894   3.577   6.417  1.00  0.00     0.013 A 
HETATM   18  C9  UNL     1       5.478   3.189   5.162  1.00  0.00     0.013 A 
HETATM   19  C10 UNL     1       5.948   2.020   4.585  1.00  0.00    -0.026 A 
HETATM   20  C11 UNL     1       5.529   1.632   3.321  1.00  0.00     0.012 A 
HETATM   21  C15 UNL     1       6.837   1.244   5.274  1.00  0.00    -0.025 A 
HETATM   22  C12 UNL     1       6.015   0.466   2.773  1.00  0.00     0.001 A 
HETATM   23  C13 UNL     1       6.913  -0.337   3.444  1.00  0.00     0.001 A 
HETATM   24  C14 UNL     1       7.307   0.080   4.699  1.00  0.00     0.012 A 
HETATM   25  C16 UNL     1       7.248   1.651   6.542  1.00  0.00     0.024 A 
ENDBRANCH   4  16
BRANCH   1  26
HETATM   26  N1  UNL     1      10.264   5.985   8.923  1.00  0.00    -0.312 N 
HETATM   27  C2  UNL     1      10.747   6.038   7.692  1.00  0.00     0.219 C 
HETATM   28  C1  UNL     1       9.903   6.118   6.421  1.00  0.00     0.117 C 
HETATM   29  O1  UNL     1      12.001   6.033   7.420  1.00  0.00    -0.274 OA
ATOM     30  H1  UNL     1      10.244   6.970   9.189  1.00  0.00     0.170 HD
ENDBRANCH   1  26
BRANCH  14  31
HETATM   31  C23 UNL     1      12.132   7.525  10.901  1.00  0.00    -0.007 A 
HETATM   32  C24 UNL     1      12.462   8.718  11.590  1.00  0.00     0.014 A 
HETATM   33  C25 UNL     1      13.439   9.547  11.116  1.00  0.00     0.001 A 
HETATM   34  C26 UNL     1      14.121   9.227   9.952  1.00  0.00     0.000 A 
HETATM   35  C27 UNL     1      13.817   8.073   9.266  1.00  0.00     0.001 A 
HETATM   36  C28 UNL     1      12.821   7.237   9.759  1.00  0.00     0.014 A 
ENDBRANCH  14  31
TORSDOF 3
ENDMDL
MODEL 5
REMARK VINA RESULT: 7.480168965      2.647      4.675
REMARK  3 active torsions:
REMARK  status: ('A' for Active; 'I' for Inactive)
REMARK       I    between atoms: C2_2  and  N1_4 
REMARK    1  A    between atoms: N1_4  and  C3_6 
REMARK    2  A    between atoms: C6_9  and  C7_10 
REMARK    3  A    between atoms: C22_29  and  C23_30 
ROOT
HETATM    1  C3  UNL     1      10.428   5.848   9.181  1.00  0.00     0.144 A 
HETATM    2  C4  UNL     1      10.442   5.404   7.852  1.00  0.00     0.037 A 
HETATM    3  C5  UNL     1       9.434   4.615   7.352  1.00  0.00     0.030 A 
HETATM    4  C6  UNL     1       9.448   4.184   6.027  1.00  0.00    -0.025 A 
HETATM    5  C17 UNL     1      10.498   4.572   5.240  1.00  0.00     0.014 A 
HETATM    6  C18 UNL     1      11.523   5.360   5.706  1.00  0.00     0.032 A 
HETATM    7  C19 UNL     1      11.487   5.780   7.037  1.00  0.00     0.063 A 
HETATM    8  N2  UNL     1      12.466   6.556   7.512  1.00  0.00    -0.190 N 
ATOM      9  H2  UNL     1      13.233   6.823   6.895  1.00  0.00     0.184 HD
HETATM   10  C20 UNL     1      12.465   6.988   8.771  1.00  0.00     0.691 A 
HETATM   11  N3  UNL     1      13.406   7.741   9.397  1.00  0.00    -0.199 N 
ATOM     12  H3  UNL     1      14.262   8.121   8.994  1.00  0.00     0.183 HD
HETATM   13  C21 UNL     1      12.978   7.875  10.633  1.00  0.00     0.137 A 
HETATM   14  C22 UNL     1      11.726   7.190  10.804  1.00  0.00     0.085 A 
HETATM   15  N4  UNL     1      11.474   6.661   9.618  1.00  0.00    -0.129 N 
ENDROOT
BRANCH   4  16
HETATM   16  C7  UNL     1       8.339   3.335   5.542  1.00  0.00    -0.025 A 
HETATM   17  C8  UNL     1       7.016   3.704   5.698  1.00  0.00     0.013 A 
HETATM   18  C9  UNL     1       5.998   2.901   5.230  1.00  0.00     0.013 A 
HETATM   19  C10 UNL     1       6.272   1.702   4.592  1.00  0.00    -0.026 A 
HETATM   20  C11 UNL     1       5.246   0.896   4.121  1.00  0.00     0.012 A 
HETATM   21  C15 UNL     1       7.572   1.314   4.425  1.00  0.00    -0.025 A 
HETATM   22  C12 UNL     1       5.549  -0.288   3.489  1.00  0.00     0.001 A 
HETATM   23  C13 UNL     1       6.851  -0.707   3.306  1.00  0.00     0.001 A 
HETATM   24  C14 UNL     1       7.846   0.121   3.788  1.00  0.00     0.012 A 
HETATM   25  C16 UNL     1       8.590   2.138   4.904  1.00  0.00     0.024 A 
ENDBRANCH   4  16
BRANCH   1  26
HETATM   26  N1  UNL     1       9.585   5.436   9.942  1.00  0.00    -0.312 N 
HETATM   27  C2  UNL     1       8.828   4.517  10.523  1.00  0.00     0.219 C 
HETATM   28  C1  UNL     1       9.224   3.707  11.755  1.00  0.00     0.117 C 
HETATM   29  O1  UNL     1       7.655   4.200  10.111  1.00  0.00    -0.274 OA
ATOM     30  H1  UNL     1       9.279   6.291  10.406  1.00  0.00     0.170 HD
ENDBRANCH   1  26
BRANCH  14  31
HETATM   31  C23 UNL     1      11.074   7.150  12.090  1.00  0.00    -0.007 A 
HETATM   32  C24 UNL     1      11.642   7.977  13.090  1.00  0.00     0.014 A 
HETATM   33  C25 UNL     1      11.019   8.140  14.295  1.00  0.00     0.001 A 
HETATM   34  C26 UNL     1       9.819   7.495  14.552  1.00  0.00     0.000 A 
HETATM   35  C27 UNL     1       9.248   6.687  13.595  1.00  0.00     0.001 A 
HETATM   36  C28 UNL     1       9.892   6.530  12.372  1.00  0.00     0.014 A 
ENDBRANCH  14  31
TORSDOF 3
ENDMDL
