MODEL 1
REMARK VINA RESULT: -10.213048247      0.000      0.000
REMARK  4 active torsions:
REMARK  status: ('A' for Active; 'I' for Inactive)
REMARK    1  A    between atoms: N1_10  and  N2_12 
REMARK    2  A    between atoms: N2_12  and  C9_14 
REMARK    3  A    between atoms: C9_14  and  O2_15 
REMARK    4  A    between atoms: C9_14  and  C10_17 
ROOT
HETATM    1  O1  UNL     1       7.675   3.106  11.007  1.00  0.00    -0.287 OA
HETATM    2  C1  UNL     1       8.227   3.796  10.115  1.00  0.00     0.194 A 
HETATM    3  C2  UNL     1       7.752   3.733   8.748  1.00  0.00     0.027 A 
HETATM    4  C3  UNL     1       6.696   2.906   8.421  1.00  0.00     0.016 A 
HETATM    5  C4  UNL     1       6.245   2.836   7.121  1.00  0.00     0.001 A 
HETATM    6  C5  UNL     1       6.829   3.579   6.128  1.00  0.00     0.001 A 
HETATM    7  C6  UNL     1       7.913   4.428   6.459  1.00  0.00     0.015 A 
HETATM    8  C7  UNL     1       8.346   4.482   7.763  1.00  0.00     0.007 A 
HETATM    9  C8  UNL     1       9.499   5.384   8.076  1.00  0.00     0.071 A 
HETATM   10  N1  UNL     1       9.958   6.089   7.225  1.00  0.00    -0.297 N 
ATOM     11  H1  UNL     1      10.715   6.583   7.697  1.00  0.00     0.187 HD
HETATM   12  C20 UNL     1       9.967   5.424   9.492  1.00  0.00     0.018 A 
HETATM   13  C21 UNL     1       9.330   4.645  10.462  1.00  0.00     0.028 A 
HETATM   14  C22 UNL     1       9.758   4.704  11.789  1.00  0.00     0.017 A 
HETATM   15  C23 UNL     1      10.785   5.505  12.167  1.00  0.00     0.013 A 
HETATM   16  C24 UNL     1      11.399   6.260  11.198  1.00  0.00    -0.025 A 
HETATM   17  C25 UNL     1      12.443   7.055  11.603  1.00  0.00     0.012 A 
HETATM   18  C26 UNL     1      13.131   7.837  10.713  1.00  0.00     0.001 A 
HETATM   19  C27 UNL     1      12.754   7.813   9.385  1.00  0.00     0.001 A 
HETATM   20  C28 UNL     1      11.699   7.017   8.954  1.00  0.00     0.013 A 
HETATM   21  C29 UNL     1      11.021   6.247   9.849  1.00  0.00    -0.012 A 
ENDROOT
BRANCH  10  22
HETATM   22  N2  UNL     1       9.994   6.570   5.961  1.00  0.00    -0.279 N 
ATOM     23  H2  UNL     1       9.314   7.273   5.673  1.00  0.00     0.189 HD
BRANCH  22  24
HETATM   24  C9  UNL     1      10.964   6.113   5.025  1.00  0.00     0.166 C 
BRANCH  24  25
HETATM   25  O2  UNL     1      10.448   5.638   3.910  1.00  0.00    -0.344 OA
ATOM     26  H2  UNL     1      11.092   5.446   3.239  1.00  0.00     0.219 HD
ENDBRANCH  24  25
BRANCH  24  27
HETATM   27  C10 UNL     1      12.382   6.075   5.036  1.00  0.00     0.027 A 
HETATM   28  C11 UNL     1      13.051   6.900   4.087  1.00  0.00     0.017 A 
HETATM   29  C12 UNL     1      14.417   7.002   4.051  1.00  0.00     0.002 A 
HETATM   30  C13 UNL     1      15.174   6.297   4.948  1.00  0.00     0.012 A 
HETATM   31  C14 UNL     1      14.575   5.482   5.887  1.00  0.00    -0.025 A 
HETATM   32  C15 UNL     1      15.380   4.770   6.753  1.00  0.00     0.012 A 
HETATM   33  C19 UNL     1      13.175   5.401   5.895  1.00  0.00    -0.011 A 
HETATM   34  C16 UNL     1      14.803   3.930   7.678  1.00  0.00     0.001 A 
HETATM   35  C17 UNL     1      13.429   3.821   7.715  1.00  0.00     0.001 A 
HETATM   36  C18 UNL     1      12.649   4.554   6.827  1.00  0.00     0.013 A 
ENDBRANCH  24  27
ENDBRANCH  22  24
ENDBRANCH  10  22
TORSDOF 4
ENDMDL
MODEL 2
REMARK VINA RESULT: -8.513278447      1.931      6.860
REMARK  4 active torsions:
REMARK  status: ('A' for Active; 'I' for Inactive)
REMARK    1  A    between atoms: N1_10  and  N2_12 
REMARK    2  A    between atoms: N2_12  and  C9_14 
REMARK    3  A    between atoms: C9_14  and  O2_15 
REMARK    4  A    between atoms: C9_14  and  C10_17 
ROOT
HETATM    1  O1  UNL     1      11.138   5.951   4.023  1.00  0.00    -0.287 OA
HETATM    2  C1  UNL     1      11.343   5.377   5.121  1.00  0.00     0.194 A 
HETATM    3  C2  UNL     1      12.681   5.316   5.671  1.00  0.00     0.027 A 
HETATM    4  C3  UNL     1      13.737   5.881   4.984  1.00  0.00     0.016 A 
HETATM    5  C4  UNL     1      15.015   5.818   5.498  1.00  0.00     0.001 A 
HETATM    6  C5  UNL     1      15.266   5.199   6.695  1.00  0.00     0.001 A 
HETATM    7  C6  UNL     1      14.186   4.618   7.403  1.00  0.00     0.015 A 
HETATM    8  C7  UNL     1      12.921   4.693   6.871  1.00  0.00     0.007 A 
HETATM    9  C8  UNL     1      11.803   4.061   7.642  1.00  0.00     0.071 A 
HETATM   10  N1  UNL     1      12.012   3.588   8.721  1.00  0.00    -0.297 N 
ATOM     11  H1  UNL     1      11.101   3.233   9.013  1.00  0.00     0.187 HD
HETATM   12  C20 UNL     1      10.438   4.138   7.047  1.00  0.00     0.018 A 
HETATM   13  C21 UNL     1      10.242   4.785   5.823  1.00  0.00     0.028 A 
HETATM   14  C22 UNL     1       8.958   4.874   5.283  1.00  0.00     0.017 A 
HETATM   15  C23 UNL     1       7.884   4.344   5.921  1.00  0.00     0.013 A 
HETATM   16  C24 UNL     1       8.099   3.710   7.119  1.00  0.00    -0.025 A 
HETATM   17  C25 UNL     1       6.997   3.172   7.740  1.00  0.00     0.012 A 
HETATM   18  C26 UNL     1       7.104   2.507   8.933  1.00  0.00     0.001 A 
HETATM   19  C27 UNL     1       8.353   2.385   9.510  1.00  0.00     0.001 A 
HETATM   20  C28 UNL     1       9.480   2.923   8.900  1.00  0.00     0.013 A 
HETATM   21  C29 UNL     1       9.360   3.584   7.716  1.00  0.00    -0.012 A 
ENDROOT
BRANCH  10  22
HETATM   22  N2  UNL     1      12.828   3.280   9.755  1.00  0.00    -0.279 N 
ATOM     23  H2  UNL     1      13.549   2.570   9.630  1.00  0.00     0.189 HD
BRANCH  22  24
HETATM   24  C9  UNL     1      12.699   3.929  11.015  1.00  0.00     0.166 C 
BRANCH  24  25
HETATM   25  O2  UNL     1      13.393   3.363  11.981  1.00  0.00    -0.344 OA
ATOM     26  H2  UNL     1      13.370   3.840  12.802  1.00  0.00     0.219 HD
ENDBRANCH  24  25
BRANCH  24  27
HETATM   27  C10 UNL     1      11.985   5.076  11.449  1.00  0.00     0.027 A 
HETATM   28  C11 UNL     1      12.652   6.328  11.328  1.00  0.00     0.017 A 
HETATM   29  C12 UNL     1      12.037   7.510  11.645  1.00  0.00     0.002 A 
HETATM   30  C13 UNL     1      10.743   7.504  12.092  1.00  0.00     0.012 A 
HETATM   31  C14 UNL     1      10.051   6.317  12.229  1.00  0.00    -0.025 A 
HETATM   32  C15 UNL     1       8.758   6.358  12.708  1.00  0.00     0.012 A 
HETATM   33  C19 UNL     1      10.712   5.125  11.894  1.00  0.00    -0.011 A 
HETATM   34  C16 UNL     1       8.061   5.182  12.878  1.00  0.00     0.001 A 
HETATM   35  C17 UNL     1       8.678   3.990  12.563  1.00  0.00     0.001 A 
HETATM   36  C18 UNL     1       9.983   3.987  12.082  1.00  0.00     0.013 A 
ENDBRANCH  24  27
ENDBRANCH  22  24
ENDBRANCH  10  22
TORSDOF 4
ENDMDL
MODEL 3
REMARK VINA RESULT: -8.228570697      0.789      4.294
REMARK  4 active torsions:
REMARK  status: ('A' for Active; 'I' for Inactive)
REMARK    1  A    between atoms: N1_10  and  N2_12 
REMARK    2  A    between atoms: N2_12  and  C9_14 
REMARK    3  A    between atoms: C9_14  and  O2_15 
REMARK    4  A    between atoms: C9_14  and  C10_17 
ROOT
HETATM    1  O1  UNL     1      10.174   4.036  12.047  1.00  0.00    -0.287 OA
HETATM    2  C1  UNL     1      10.084   4.558  10.909  1.00  0.00     0.194 A 
HETATM    3  C2  UNL     1      10.987   5.622  10.523  1.00  0.00     0.027 A 
HETATM    4  C3  UNL     1      11.944   6.072  11.411  1.00  0.00     0.016 A 
HETATM    5  C4  UNL     1      12.800   7.091  11.052  1.00  0.00     0.001 A 
HETATM    6  C5  UNL     1      12.724   7.677   9.815  1.00  0.00     0.001 A 
HETATM    7  C6  UNL     1      11.744   7.219   8.902  1.00  0.00     0.015 A 
HETATM    8  C7  UNL     1      10.900   6.202   9.282  1.00  0.00     0.007 A 
HETATM    9  C8  UNL     1       9.870   5.748   8.294  1.00  0.00     0.071 A 
HETATM   10  N1  UNL     1       9.854   6.208   7.190  1.00  0.00    -0.297 N 
ATOM     11  H1  UNL     1       9.069   5.736   6.740  1.00  0.00     0.187 HD
HETATM   12  C20 UNL     1       8.953   4.653   8.724  1.00  0.00     0.018 A 
HETATM   13  C21 UNL     1       9.080   4.091   9.997  1.00  0.00     0.028 A 
HETATM   14  C22 UNL     1       8.234   3.051  10.384  1.00  0.00     0.017 A 
HETATM   15  C23 UNL     1       7.282   2.565   9.549  1.00  0.00     0.013 A 
HETATM   16  C24 UNL     1       7.171   3.133   8.304  1.00  0.00    -0.025 A 
HETATM   17  C25 UNL     1       6.193   2.631   7.480  1.00  0.00     0.012 A 
HETATM   18  C26 UNL     1       5.991   3.136   6.223  1.00  0.00     0.001 A 
HETATM   19  C27 UNL     1       6.797   4.171   5.791  1.00  0.00     0.001 A 
HETATM   20  C28 UNL     1       7.793   4.691   6.606  1.00  0.00     0.013 A 
HETATM   21  C29 UNL     1       7.986   4.179   7.853  1.00  0.00    -0.012 A 
ENDROOT
BRANCH  10  22
HETATM   22  N2  UNL     1      10.336   7.028   6.228  1.00  0.00    -0.279 N 
ATOM     23  H2  UNL     1      10.102   8.021   6.253  1.00  0.00     0.189 HD
BRANCH  22  24
HETATM   24  C9  UNL     1      11.164   6.532   5.183  1.00  0.00     0.166 C 
BRANCH  24  25
HETATM   25  O2  UNL     1      10.504   6.193   4.095  1.00  0.00    -0.344 OA
ATOM     26  H2  UNL     1      11.059   6.044   3.339  1.00  0.00     0.219 HD
ENDBRANCH  24  25
BRANCH  24  27
HETATM   27  C10 UNL     1      12.564   6.339   5.061  1.00  0.00     0.027 A 
HETATM   28  C11 UNL     1      13.223   7.069   4.031  1.00  0.00     0.017 A 
HETATM   29  C12 UNL     1      14.582   7.019   3.865  1.00  0.00     0.002 A 
HETATM   30  C13 UNL     1      15.342   6.252   4.705  1.00  0.00     0.012 A 
HETATM   31  C14 UNL     1      14.753   5.523   5.718  1.00  0.00    -0.025 A 
HETATM   32  C15 UNL     1      15.556   4.742   6.524  1.00  0.00     0.012 A 
HETATM   33  C19 UNL     1      13.359   5.597   5.861  1.00  0.00    -0.011 A 
HETATM   34  C16 UNL     1      14.984   3.986   7.522  1.00  0.00     0.001 A 
HETATM   35  C17 UNL     1      13.616   4.030   7.691  1.00  0.00     0.001 A 
HETATM   36  C18 UNL     1      12.837   4.829   6.861  1.00  0.00     0.013 A 
ENDBRANCH  24  27
ENDBRANCH  22  24
ENDBRANCH  10  22
TORSDOF 4
ENDMDL
MODEL 4
REMARK VINA RESULT: -8.208899138      1.955      6.061
REMARK  4 active torsions:
REMARK  status: ('A' for Active; 'I' for Inactive)
REMARK    1  A    between atoms: N1_10  and  N2_12 
REMARK    2  A    between atoms: N2_12  and  C9_14 
REMARK    3  A    between atoms: C9_14  and  O2_15 
REMARK    4  A    between atoms: C9_14  and  C10_17 
ROOT
HETATM    1  O1  UNL     1       8.561   4.730   5.005  1.00  0.00    -0.287 OA
HETATM    2  C1  UNL     1       9.383   4.473   5.918  1.00  0.00     0.194 A 
HETATM    3  C2  UNL     1       8.943   3.808   7.127  1.00  0.00     0.027 A 
HETATM    4  C3  UNL     1       7.615   3.465   7.282  1.00  0.00     0.016 A 
HETATM    5  C4  UNL     1       7.189   2.840   8.434  1.00  0.00     0.001 A 
HETATM    6  C5  UNL     1       8.065   2.546   9.447  1.00  0.00     0.001 A 
HETATM    7  C6  UNL     1       9.428   2.898   9.292  1.00  0.00     0.015 A 
HETATM    8  C7  UNL     1       9.831   3.520   8.134  1.00  0.00     0.007 A 
HETATM    9  C8  UNL     1      11.278   3.885   8.007  1.00  0.00     0.071 A 
HETATM   10  N1  UNL     1      12.055   3.561   8.857  1.00  0.00    -0.297 N 
ATOM     11  H1  UNL     1      12.947   3.931   8.528  1.00  0.00     0.187 HD
HETATM   12  C20 UNL     1      11.699   4.572   6.751  1.00  0.00     0.018 A 
HETATM   13  C21 UNL     1      10.759   4.842   5.752  1.00  0.00     0.028 A 
HETATM   14  C22 UNL     1      11.163   5.464   4.570  1.00  0.00     0.017 A 
HETATM   15  C23 UNL     1      12.457   5.816   4.362  1.00  0.00     0.013 A 
HETATM   16  C24 UNL     1      13.363   5.544   5.357  1.00  0.00    -0.025 A 
HETATM   17  C25 UNL     1      14.665   5.919   5.128  1.00  0.00     0.012 A 
HETATM   18  C26 UNL     1      15.644   5.705   6.061  1.00  0.00     0.001 A 
HETATM   19  C27 UNL     1      15.298   5.098   7.252  1.00  0.00     0.001 A 
HETATM   20  C28 UNL     1      13.988   4.708   7.504  1.00  0.00     0.013 A 
HETATM   21  C29 UNL     1      13.024   4.925   6.567  1.00  0.00    -0.012 A 
ENDROOT
BRANCH  10  22
HETATM   22  N2  UNL     1      12.365   2.958  10.028  1.00  0.00    -0.279 N 
ATOM     23  H2  UNL     1      12.717   2.002  10.021  1.00  0.00     0.189 HD
BRANCH  22  24
HETATM   24  C9  UNL     1      12.207   3.635  11.270  1.00  0.00     0.166 C 
BRANCH  24  25
HETATM   25  O2  UNL     1      12.748   3.005  12.293  1.00  0.00    -0.344 OA
ATOM     26  H2  UNL     1      12.542   3.392  13.135  1.00  0.00     0.219 HD
ENDBRANCH  24  25
BRANCH  24  27
HETATM   27  C10 UNL     1      11.597   4.862  11.638  1.00  0.00     0.027 A 
HETATM   28  C11 UNL     1      12.397   6.034  11.520  1.00  0.00     0.017 A 
HETATM   29  C12 UNL     1      11.894   7.282  11.777  1.00  0.00     0.002 A 
HETATM   30  C13 UNL     1      10.586   7.423  12.155  1.00  0.00     0.012 A 
HETATM   31  C14 UNL     1       9.769   6.319  12.286  1.00  0.00    -0.025 A 
HETATM   32  C15 UNL     1       8.464   6.507  12.696  1.00  0.00     0.012 A 
HETATM   33  C19 UNL     1      10.316   5.056  12.015  1.00  0.00    -0.011 A 
HETATM   34  C16 UNL     1       7.641   5.416  12.858  1.00  0.00     0.001 A 
HETATM   35  C17 UNL     1       8.144   4.158  12.606  1.00  0.00     0.001 A 
HETATM   36  C18 UNL     1       9.464   4.005  12.193  1.00  0.00     0.013 A 
ENDBRANCH  24  27
ENDBRANCH  22  24
ENDBRANCH  10  22
TORSDOF 4
ENDMDL
MODEL 5
REMARK VINA RESULT: -7.689491525      2.273      5.061
REMARK  4 active torsions:
REMARK  status: ('A' for Active; 'I' for Inactive)
REMARK    1  A    between atoms: N1_10  and  N2_12 
REMARK    2  A    between atoms: N2_12  and  C9_14 
REMARK    3  A    between atoms: C9_14  and  O2_15 
REMARK    4  A    between atoms: C9_14  and  C10_17 
ROOT
HETATM    1  O1  UNL     1       8.967   3.819  12.140  1.00  0.00    -0.287 OA
HETATM    2  C1  UNL     1       9.586   3.671  11.058  1.00  0.00     0.194 A 
HETATM    3  C2  UNL     1      11.033   3.726  11.034  1.00  0.00     0.027 A 
HETATM    4  C3  UNL     1      11.735   3.951  12.202  1.00  0.00     0.016 A 
HETATM    5  C4  UNL     1      13.112   4.012  12.185  1.00  0.00     0.001 A 
HETATM    6  C5  UNL     1      13.813   3.852  11.017  1.00  0.00     0.001 A 
HETATM    7  C6  UNL     1      13.097   3.622   9.818  1.00  0.00     0.015 A 
HETATM    8  C7  UNL     1      11.724   3.565   9.859  1.00  0.00     0.007 A 
HETATM    9  C8  UNL     1      10.998   3.327   8.571  1.00  0.00     0.071 A 
HETATM   10  N1  UNL     1      11.613   3.113   7.567  1.00  0.00    -0.297 N 
ATOM     11  H1  UNL     1      10.890   2.993   6.857  1.00  0.00     0.187 HD
HETATM   12  C20 UNL     1       9.509   3.280   8.627  1.00  0.00     0.018 A 
HETATM   13  C21 UNL     1       8.848   3.447   9.848  1.00  0.00     0.028 A 
HETATM   14  C22 UNL     1       7.456   3.379   9.898  1.00  0.00     0.017 A 
HETATM   15  C23 UNL     1       6.717   3.152   8.783  1.00  0.00     0.013 A 
HETATM   16  C24 UNL     1       7.385   2.994   7.594  1.00  0.00    -0.025 A 
HETATM   17  C25 UNL     1       6.615   2.776   6.477  1.00  0.00     0.012 A 
HETATM   18  C26 UNL     1       7.182   2.618   5.240  1.00  0.00     0.001 A 
HETATM   19  C27 UNL     1       8.557   2.682   5.132  1.00  0.00     0.001 A 
HETATM   20  C28 UNL     1       9.355   2.900   6.248  1.00  0.00     0.013 A 
HETATM   21  C29 UNL     1       8.779   3.052   7.473  1.00  0.00    -0.012 A 
ENDROOT
BRANCH  10  22
HETATM   22  N2  UNL     1      12.770   2.947   6.884  1.00  0.00    -0.279 N 
ATOM     23  H2  UNL     1      13.001   2.028   6.508  1.00  0.00     0.189 HD
BRANCH  22  24
HETATM   24  C9  UNL     1      13.669   4.030   6.682  1.00  0.00     0.166 C 
BRANCH  24  25
HETATM   25  O2  UNL     1      14.775   3.946   7.392  1.00  0.00    -0.344 OA
ATOM     26  H2  UNL     1      15.249   3.131   7.270  1.00  0.00     0.219 HD
ENDBRANCH  24  25
BRANCH  24  27
HETATM   27  C10 UNL     1      13.629   5.186   5.859  1.00  0.00     0.027 A 
HETATM   28  C11 UNL     1      14.829   5.519   5.169  1.00  0.00     0.017 A 
HETATM   29  C12 UNL     1      14.890   6.569   4.290  1.00  0.00     0.002 A 
HETATM   30  C13 UNL     1      13.774   7.326   4.057  1.00  0.00     0.012 A 
HETATM   31  C14 UNL     1      12.586   7.046   4.703  1.00  0.00    -0.025 A 
HETATM   32  C15 UNL     1      11.494   7.854   4.457  1.00  0.00     0.012 A 
HETATM   33  C19 UNL     1      12.559   5.964   5.596  1.00  0.00    -0.011 A 
HETATM   34  C16 UNL     1      10.309   7.607   5.112  1.00  0.00     0.001 A 
HETATM   35  C17 UNL     1      10.244   6.555   6.001  1.00  0.00     0.001 A 
HETATM   36  C18 UNL     1      11.364   5.761   6.223  1.00  0.00     0.013 A 
ENDBRANCH  24  27
ENDBRANCH  22  24
ENDBRANCH  10  22
TORSDOF 4
ENDMDL
