MODEL 1
REMARK VINA RESULT: -6.795767977      0.000      0.000
REMARK  7 active torsions:
REMARK  status: ('A' for Active; 'I' for Inactive)
REMARK    1  A    between atoms: C1_2  and  C2_4 
REMARK    2  A    between atoms: C2_4  and  C3_5 
REMARK    3  A    between atoms: N1_6  and  N2_8 
REMARK    4  A    between atoms: N2_8  and  C4_10 
REMARK    5  A    between atoms: C6_13  and  O3_14 
REMARK    6  A    between atoms: N3_16  and  C7_17 
REMARK    7  A    between atoms: C7_17  and  C8_18 
ROOT
HETATM    1  C4  UNL     1      11.039  -3.208  20.277  1.00  0.00     0.167 A 
HETATM    2  S1  UNL     1      10.599  -4.677  21.010  1.00  0.00    -0.060 SA
HETATM    3  C5  UNL     1      10.557  -5.654  19.614  1.00  0.00     0.109 A 
HETATM    4  C6  UNL     1      10.896  -4.767  18.629  1.00  0.00     0.151 A 
HETATM    5  N3  UNL     1      11.138  -3.525  18.984  1.00  0.00    -0.302 N 
ENDROOT
BRANCH   1   6
HETATM    6  N2  UNL     1      11.253  -2.022  20.817  1.00  0.00    -0.280 N 
ATOM      7  H2  UNL     1      11.168  -1.147  20.298  1.00  0.00     0.189 HD
BRANCH   6   8
HETATM    8  N1  UNL     1      11.613  -2.084  22.194  1.00  0.00    -0.313 N 
HETATM    9  C3  UNL     1      12.793  -1.789  22.575  1.00  0.00     0.090 C 
ATOM     10  H1  UNL     1      10.918  -2.368  22.883  1.00  0.00     0.185 HD
BRANCH   9  11
HETATM   11  C2  UNL     1      13.878  -1.364  21.661  1.00  0.00     0.159 C 
BRANCH  11  12
HETATM   12  C1  UNL     1      13.912   0.107  21.446  1.00  0.00     0.177 C 
HETATM   13  O1  UNL     1      14.958   0.784  21.514  1.00  0.00    -0.648 OA
HETATM   14  O2  UNL     1      12.703   0.734  21.152  1.00  0.00    -0.648 OA
ENDBRANCH  11  12
ENDBRANCH   9  11
ENDBRANCH   6   8
ENDBRANCH   1   6
BRANCH   5  15
HETATM   15  C7  UNL     1      11.522  -2.500  17.970  1.00  0.00     0.179 C 
BRANCH  15  16
HETATM   16  C8  UNL     1      10.283  -1.868  17.413  1.00  0.00     0.001 A 
HETATM   17  C9  UNL     1       9.631  -0.742  17.815  1.00  0.00     0.017 A 
HETATM   18  C10 UNL     1       8.515  -0.392  17.136  1.00  0.00     0.008 A 
HETATM   19  C11 UNL     1       8.140  -1.203  16.100  1.00  0.00     0.050 A 
HETATM   20  S2  UNL     1       9.338  -2.415  16.104  1.00  0.00    -0.105 SA
ENDBRANCH  15  16
ENDBRANCH   5  15
BRANCH   4  21
HETATM   21  O3  UNL     1      10.964  -5.251  17.282  1.00  0.00    -0.346 OA
ATOM     22  H3  UNL     1      10.315  -4.937  16.663  1.00  0.00     0.219 HD
ENDBRANCH   4  21
TORSDOF 7
ENDMDL
MODEL 2
REMARK VINA RESULT: -6.709683136      1.111      1.207
REMARK  7 active torsions:
REMARK  status: ('A' for Active; 'I' for Inactive)
REMARK    1  A    between atoms: C1_2  and  C2_4 
REMARK    2  A    between atoms: C2_4  and  C3_5 
REMARK    3  A    between atoms: N1_6  and  N2_8 
REMARK    4  A    between atoms: N2_8  and  C4_10 
REMARK    5  A    between atoms: C6_13  and  O3_14 
REMARK    6  A    between atoms: N3_16  and  C7_17 
REMARK    7  A    between atoms: C7_17  and  C8_18 
ROOT
HETATM    1  C4  UNL     1      11.703  -2.993  20.340  1.00  0.00     0.167 A 
HETATM    2  S1  UNL     1      11.097  -3.973  21.590  1.00  0.00    -0.060 SA
HETATM    3  C5  UNL     1      10.187  -5.058  20.643  1.00  0.00     0.109 A 
HETATM    4  C6  UNL     1      10.408  -4.592  19.375  1.00  0.00     0.151 A 
HETATM    5  N3  UNL     1      11.182  -3.539  19.239  1.00  0.00    -0.302 N 
ENDROOT
BRANCH   1   6
HETATM    6  N2  UNL     1      12.505  -1.946  20.397  1.00  0.00    -0.280 N 
ATOM      7  H2  UNL     1      12.172  -0.982  20.352  1.00  0.00     0.189 HD
BRANCH   6   8
HETATM    8  N1  UNL     1      13.881  -2.293  20.528  1.00  0.00    -0.313 N 
HETATM    9  C3  UNL     1      14.545  -1.958  21.563  1.00  0.00     0.090 C 
ATOM     10  H1  UNL     1      14.340  -2.817  19.783  1.00  0.00     0.185 HD
BRANCH   9  11
HETATM   11  C2  UNL     1      13.978  -1.200  22.702  1.00  0.00     0.159 C 
BRANCH  11  12
HETATM   12  C1  UNL     1      14.110   0.272  22.541  1.00  0.00     0.177 C 
HETATM   13  O1  UNL     1      14.706   0.999  23.362  1.00  0.00    -0.648 OA
HETATM   14  O2  UNL     1      13.534   0.841  21.407  1.00  0.00    -0.648 OA
ENDBRANCH  11  12
ENDBRANCH   9  11
ENDBRANCH   6   8
ENDBRANCH   1   6
BRANCH   5  15
HETATM   15  C7  UNL     1      11.477  -2.975  17.889  1.00  0.00     0.179 C 
BRANCH  15  16
HETATM   16  C8  UNL     1      10.334  -2.113  17.452  1.00  0.00     0.001 A 
HETATM   17  C9  UNL     1       9.950  -0.888  17.908  1.00  0.00     0.017 A 
HETATM   18  C10 UNL     1       8.860  -0.325  17.340  1.00  0.00     0.008 A 
HETATM   19  C11 UNL     1       8.238  -1.038  16.352  1.00  0.00     0.050 A 
HETATM   20  S2  UNL     1       9.178  -2.455  16.246  1.00  0.00    -0.105 SA
ENDBRANCH  15  16
ENDBRANCH   5  15
BRANCH   4  21
HETATM   21  O3  UNL     1       9.780  -5.280  18.286  1.00  0.00    -0.346 OA
ATOM     22  H3  UNL     1       9.243  -4.774  17.689  1.00  0.00     0.219 HD
ENDBRANCH   4  21
TORSDOF 7
ENDMDL
MODEL 3
REMARK VINA RESULT: -6.684484958      1.128      1.231
REMARK  7 active torsions:
REMARK  status: ('A' for Active; 'I' for Inactive)
REMARK    1  A    between atoms: C1_2  and  C2_4 
REMARK    2  A    between atoms: C2_4  and  C3_5 
REMARK    3  A    between atoms: N1_6  and  N2_8 
REMARK    4  A    between atoms: N2_8  and  C4_10 
REMARK    5  A    between atoms: C6_13  and  O3_14 
REMARK    6  A    between atoms: N3_16  and  C7_17 
REMARK    7  A    between atoms: C7_17  and  C8_18 
ROOT
HETATM    1  C4  UNL     1      10.949  -3.419  20.260  1.00  0.00     0.167 A 
HETATM    2  S1  UNL     1      10.491  -4.941  20.863  1.00  0.00    -0.060 SA
HETATM    3  C5  UNL     1      10.523  -5.814  19.400  1.00  0.00     0.109 A 
HETATM    4  C6  UNL     1      10.898  -4.855  18.498  1.00  0.00     0.151 A 
HETATM    5  N3  UNL     1      11.111  -3.640  18.953  1.00  0.00    -0.302 N 
ENDROOT
BRANCH   1   6
HETATM    6  N2  UNL     1      11.125  -2.274  20.894  1.00  0.00    -0.280 N 
ATOM      7  H2  UNL     1      10.967  -1.364  20.461  1.00  0.00     0.189 HD
BRANCH   6   8
HETATM    8  N1  UNL     1      11.558  -2.435  22.242  1.00  0.00    -0.313 N 
HETATM    9  C3  UNL     1      12.629  -1.881  22.656  1.00  0.00     0.090 C 
ATOM     10  H1  UNL     1      11.004  -3.002  22.884  1.00  0.00     0.185 HD
BRANCH   9  11
HETATM   11  C2  UNL     1      13.507  -1.039  21.811  1.00  0.00     0.159 C 
BRANCH  11  12
HETATM   12  C1  UNL     1      14.521  -1.828  21.063  1.00  0.00     0.177 C 
HETATM   13  O1  UNL     1      15.551  -1.324  20.570  1.00  0.00    -0.648 OA
HETATM   14  O2  UNL     1      14.286  -3.194  20.923  1.00  0.00    -0.648 OA
ENDBRANCH  11  12
ENDBRANCH   9  11
ENDBRANCH   6   8
ENDBRANCH   1   6
BRANCH   5  15
HETATM   15  C7  UNL     1      11.529  -2.541  18.035  1.00  0.00     0.179 C 
BRANCH  15  16
HETATM   16  C8  UNL     1      10.312  -1.878  17.469  1.00  0.00     0.001 A 
HETATM   17  C9  UNL     1       9.668  -0.752  17.883  1.00  0.00     0.017 A 
HETATM   18  C10 UNL     1       8.571  -0.370  17.191  1.00  0.00     0.008 A 
HETATM   19  C11 UNL     1       8.204  -1.152  16.131  1.00  0.00     0.050 A 
HETATM   20  S2  UNL     1       9.384  -2.382  16.130  1.00  0.00    -0.105 SA
ENDBRANCH  15  16
ENDBRANCH   5  15
BRANCH   4  21
HETATM   21  O3  UNL     1      11.032  -5.238  17.124  1.00  0.00    -0.346 OA
ATOM     22  H3  UNL     1      10.241  -5.440  16.639  1.00  0.00     0.219 HD
ENDBRANCH   4  21
TORSDOF 7
ENDMDL
MODEL 4
REMARK VINA RESULT: -6.553567433      2.518      5.740
REMARK  7 active torsions:
REMARK  status: ('A' for Active; 'I' for Inactive)
REMARK    1  A    between atoms: C1_2  and  C2_4 
REMARK    2  A    between atoms: C2_4  and  C3_5 
REMARK    3  A    between atoms: N1_6  and  N2_8 
REMARK    4  A    between atoms: N2_8  and  C4_10 
REMARK    5  A    between atoms: C6_13  and  O3_14 
REMARK    6  A    between atoms: N3_16  and  C7_17 
REMARK    7  A    between atoms: C7_17  and  C8_18 
ROOT
HETATM    1  C4  UNL     1      10.608  -3.022  19.321  1.00  0.00     0.167 A 
HETATM    2  S1  UNL     1      11.177  -4.220  18.257  1.00  0.00    -0.060 SA
HETATM    3  C5  UNL     1      12.258  -5.006  19.315  1.00  0.00     0.109 A 
HETATM    4  C6  UNL     1      12.116  -4.279  20.466  1.00  0.00     0.151 A 
HETATM    5  N3  UNL     1      11.272  -3.272  20.452  1.00  0.00    -0.302 N 
ENDROOT
BRANCH   1   6
HETATM    6  N2  UNL     1       9.720  -2.065  19.123  1.00  0.00    -0.280 N 
ATOM      7  H2  UNL     1       8.745  -2.136  19.415  1.00  0.00     0.189 HD
BRANCH   6   8
HETATM    8  N1  UNL     1      10.257  -0.923  18.461  1.00  0.00    -0.313 N 
HETATM    9  C3  UNL     1       9.594  -0.319  17.555  1.00  0.00     0.090 C 
ATOM     10  H1  UNL     1      11.185  -0.584  18.717  1.00  0.00     0.185 HD
BRANCH   9  11
HETATM   11  C2  UNL     1       8.242  -0.725  17.108  1.00  0.00     0.159 C 
BRANCH  11  12
HETATM   12  C1  UNL     1       8.270  -1.764  16.045  1.00  0.00     0.177 C 
HETATM   13  O1  UNL     1       7.272  -2.069  15.360  1.00  0.00    -0.648 OA
HETATM   14  O2  UNL     1       9.485  -2.410  15.820  1.00  0.00    -0.648 OA
ENDBRANCH  11  12
ENDBRANCH   9  11
ENDBRANCH   6   8
ENDBRANCH   1   6
BRANCH   5  15
HETATM   15  C7  UNL     1      11.056  -2.437  21.669  1.00  0.00     0.179 C 
BRANCH  15  16
HETATM   16  C8  UNL     1      12.226  -1.521  21.855  1.00  0.00     0.001 A 
HETATM   17  C9  UNL     1      12.631  -0.470  21.090  1.00  0.00     0.017 A 
HETATM   18  C10 UNL     1      13.742   0.194  21.482  1.00  0.00     0.008 A 
HETATM   19  C11 UNL     1      14.362  -0.250  22.618  1.00  0.00     0.050 A 
HETATM   20  S2  UNL     1      13.391  -1.565  23.099  1.00  0.00    -0.105 SA
ENDBRANCH  15  16
ENDBRANCH   5  15
BRANCH   4  21
HETATM   21  O3  UNL     1      12.895  -4.665  21.605  1.00  0.00    -0.346 OA
ATOM     22  H3  UNL     1      12.688  -4.266  22.442  1.00  0.00     0.219 HD
ENDBRANCH   4  21
TORSDOF 7
ENDMDL
MODEL 5
REMARK VINA RESULT: -6.546126153      1.359      1.509
REMARK  7 active torsions:
REMARK  status: ('A' for Active; 'I' for Inactive)
REMARK    1  A    between atoms: C1_2  and  C2_4 
REMARK    2  A    between atoms: C2_4  and  C3_5 
REMARK    3  A    between atoms: N1_6  and  N2_8 
REMARK    4  A    between atoms: N2_8  and  C4_10 
REMARK    5  A    between atoms: C6_13  and  O3_14 
REMARK    6  A    between atoms: N3_16  and  C7_17 
REMARK    7  A    between atoms: C7_17  and  C8_18 
ROOT
HETATM    1  C4  UNL     1      11.944  -2.945  20.032  1.00  0.00     0.167 A 
HETATM    2  S1  UNL     1      11.635  -3.748  21.498  1.00  0.00    -0.060 SA
HETATM    3  C5  UNL     1      10.619  -4.981  20.903  1.00  0.00     0.109 A 
HETATM    4  C6  UNL     1      10.573  -4.697  19.565  1.00  0.00     0.151 A 
HETATM    5  N3  UNL     1      11.253  -3.657  19.138  1.00  0.00    -0.302 N 
ENDROOT
BRANCH   1   6
HETATM    6  N2  UNL     1      12.687  -1.882  19.788  1.00  0.00    -0.280 N 
ATOM      7  H2  UNL     1      13.564  -1.918  19.268  1.00  0.00     0.189 HD
BRANCH   6   8
HETATM    8  N1  UNL     1      12.144  -0.678  20.323  1.00  0.00    -0.313 N 
HETATM    9  C3  UNL     1      12.718  -0.074  21.288  1.00  0.00     0.090 C 
ATOM     10  H1  UNL     1      11.286  -0.294  19.928  1.00  0.00     0.185 HD
BRANCH   9  11
HETATM   11  C2  UNL     1      13.965  -0.540  21.934  1.00  0.00     0.159 C 
BRANCH  11  12
HETATM   12  C1  UNL     1      15.185  -0.190  21.160  1.00  0.00     0.177 C 
HETATM   13  O1  UNL     1      15.728   0.933  21.210  1.00  0.00    -0.648 OA
HETATM   14  O2  UNL     1      15.730  -1.183  20.348  1.00  0.00    -0.648 OA
ENDBRANCH  11  12
ENDBRANCH   9  11
ENDBRANCH   6   8
ENDBRANCH   1   6
BRANCH   5  15
HETATM   15  C7  UNL     1      11.259  -3.287  17.692  1.00  0.00     0.179 C 
BRANCH  15  16
HETATM   16  C8  UNL     1      10.024  -2.501  17.377  1.00  0.00     0.001 A 
HETATM   17  C9  UNL     1       9.698  -1.225  17.726  1.00  0.00     0.017 A 
HETATM   18  C10 UNL     1       8.500  -0.753  17.315  1.00  0.00     0.008 A 
HETATM   19  C11 UNL     1       7.719  -1.602  16.580  1.00  0.00     0.050 A 
HETATM   20  S2  UNL     1       8.665  -3.016  16.486  1.00  0.00    -0.105 SA
ENDBRANCH  15  16
ENDBRANCH   5  15
BRANCH   4  21
HETATM   21  O3  UNL     1       9.788  -5.551  18.723  1.00  0.00    -0.346 OA
ATOM     22  H3  UNL     1      10.245  -6.153  18.149  1.00  0.00     0.219 HD
ENDBRANCH   4  21
TORSDOF 7
ENDMDL
