MODEL 1
REMARK VINA RESULT: -6.830214273      0.000      0.000
REMARK  5 active torsions:
REMARK  status: ('A' for Active; 'I' for Inactive)
REMARK    1  A    between atoms: S1_2  and  C2_3 
REMARK    2  A    between atoms: C3_8  and  S2_9 
REMARK    3  A    between atoms: S2_9  and  C4_10 
REMARK    4  A    between atoms: C4_10  and  C5_11 
REMARK       I    between atoms: C5_11  and  N3_13 
REMARK    5  A    between atoms: N3_13  and  C6_15 
ROOT
HETATM    1  C4  UNL     1       9.262  -0.333  17.371  1.00  0.00     0.184 C 
ENDROOT
BRANCH   1   2
HETATM    2  S2  UNL     1      10.995  -0.786  17.628  1.00  0.00    -0.094 SA
BRANCH   2   3
HETATM    3  C3  UNL     1      11.213  -1.380  19.315  1.00  0.00     0.129 A 
HETATM    4  N2  UNL     1      10.614  -2.431  19.882  1.00  0.00    -0.287 N 
HETATM    5  N1  UNL     1      10.864  -2.723  21.082  1.00  0.00    -0.287 N 
ATOM      6  H2  UNL     1       9.955  -2.995  19.344  1.00  0.00     0.188 HD
HETATM    7  C2  UNL     1      11.724  -1.984  21.776  1.00  0.00     0.128 A 
ATOM      8  H1  UNL     1      10.407  -3.523  21.520  1.00  0.00     0.188 HD
HETATM    9  S3  UNL     1      12.176  -0.818  20.610  1.00  0.00    -0.038 SA
BRANCH   7  10
HETATM   10  S1  UNL     1      12.199  -2.253  23.480  1.00  0.00    -0.108 SA
HETATM   11  C1  UNL     1      13.719  -1.358  23.898  1.00  0.00     0.097 C 
ENDBRANCH   7  10
ENDBRANCH   2   3
ENDBRANCH   1   2
BRANCH   1  12
HETATM   12  C5  UNL     1       8.693  -1.200  16.312  1.00  0.00     0.228 C 
HETATM   13  O1  UNL     1       7.450  -1.265  16.205  1.00  0.00    -0.273 OA
HETATM   14  N3  UNL     1       9.588  -1.897  15.496  1.00  0.00    -0.333 N 
ATOM     15  H3  UNL     1      10.587  -1.770  15.657  1.00  0.00     0.164 HD
BRANCH  14  16
HETATM   16  C6  UNL     1       9.173  -2.790  14.433  1.00  0.00     0.286 C 
HETATM   17  C7  UNL     1       8.471  -3.970  15.059  1.00  0.00     0.056 C 
HETATM   18  C8  UNL     1       7.447  -4.347  14.014  1.00  0.00     0.031 C 
HETATM   19  C9  UNL     1       6.994  -2.936  13.596  1.00  0.00     0.235 C 
HETATM   20  N4  UNL     1       8.220  -2.178  13.556  1.00  0.00    -0.054 N 
ATOM     21  H42 UNL     1       8.075  -1.191  13.767  1.00  0.00     0.279 HD
ATOM     22  H41 UNL     1       8.579  -2.069  12.607  1.00  0.00     0.279 HD
ENDBRANCH  14  16
ENDBRANCH   1  12
TORSDOF 5
ENDMDL
MODEL 2
REMARK VINA RESULT: -6.765635423      3.035      4.424
REMARK  5 active torsions:
REMARK  status: ('A' for Active; 'I' for Inactive)
REMARK    1  A    between atoms: S1_2  and  C2_3 
REMARK    2  A    between atoms: C3_8  and  S2_9 
REMARK    3  A    between atoms: S2_9  and  C4_10 
REMARK    4  A    between atoms: C4_10  and  C5_11 
REMARK       I    between atoms: C5_11  and  N3_13 
REMARK    5  A    between atoms: N3_13  and  C6_15 
ROOT
HETATM    1  C4  UNL     1      11.196  -4.193  21.103  1.00  0.00     0.184 C 
ENDROOT
BRANCH   1   2
HETATM    2  S2  UNL     1      11.582  -2.936  22.346  1.00  0.00    -0.094 SA
BRANCH   2   3
HETATM    3  C3  UNL     1      13.082  -2.061  21.864  1.00  0.00     0.129 A 
HETATM    4  N2  UNL     1      14.072  -2.524  21.097  1.00  0.00    -0.287 N 
HETATM    5  N1  UNL     1      15.068  -1.792  20.849  1.00  0.00    -0.287 N 
ATOM      6  H2  UNL     1      14.022  -3.468  20.713  1.00  0.00     0.188 HD
HETATM    7  C2  UNL     1      15.125  -0.563  21.351  1.00  0.00     0.128 A 
ATOM      8  H1  UNL     1      15.828  -2.142  20.266  1.00  0.00     0.188 HD
HETATM    9  S3  UNL     1      13.654  -0.490  22.220  1.00  0.00    -0.038 SA
BRANCH   7  10
HETATM   10  S1  UNL     1      16.453   0.609  21.102  1.00  0.00    -0.108 SA
HETATM   11  C1  UNL     1      16.254   2.077  22.148  1.00  0.00     0.097 C 
ENDBRANCH   7  10
ENDBRANCH   2   3
ENDBRANCH   1   2
BRANCH   1  12
HETATM   12  C5  UNL     1      11.248  -3.570  19.759  1.00  0.00     0.228 C 
HETATM   13  O1  UNL     1      12.230  -3.819  19.029  1.00  0.00    -0.273 OA
HETATM   14  N3  UNL     1      10.190  -2.735  19.391  1.00  0.00    -0.333 N 
ATOM     15  H3  UNL     1       9.427  -2.601  20.055  1.00  0.00     0.164 HD
BRANCH  14  16
HETATM   16  C6  UNL     1      10.117  -2.048  18.117  1.00  0.00     0.286 C 
HETATM   17  C7  UNL     1       9.249  -2.866  17.193  1.00  0.00     0.056 C 
HETATM   18  C8  UNL     1       8.594  -1.816  16.328  1.00  0.00     0.031 C 
HETATM   19  C9  UNL     1       8.301  -0.758  17.407  1.00  0.00     0.235 C 
HETATM   20  N4  UNL     1       9.484  -0.768  18.230  1.00  0.00    -0.054 N 
ATOM     21  H42 UNL     1       9.287  -0.516  19.199  1.00  0.00     0.279 HD
ATOM     22  H41 UNL     1      10.118  -0.000  18.010  1.00  0.00     0.279 HD
ENDBRANCH  14  16
ENDBRANCH   1  12
TORSDOF 5
ENDMDL
MODEL 3
REMARK VINA RESULT: -6.676300927      3.014      8.287
REMARK  5 active torsions:
REMARK  status: ('A' for Active; 'I' for Inactive)
REMARK    1  A    between atoms: S1_2  and  C2_3 
REMARK    2  A    between atoms: C3_8  and  S2_9 
REMARK    3  A    between atoms: S2_9  and  C4_10 
REMARK    4  A    between atoms: C4_10  and  C5_11 
REMARK       I    between atoms: C5_11  and  N3_13 
REMARK    5  A    between atoms: N3_13  and  C6_15 
ROOT
HETATM    1  C4  UNL     1      11.421  -3.396  19.381  1.00  0.00     0.184 C 
ENDROOT
BRANCH   1   2
HETATM    2  S2  UNL     1      11.198  -1.848  18.472  1.00  0.00    -0.094 SA
BRANCH   2   3
HETATM    3  C3  UNL     1      10.350  -2.185  16.918  1.00  0.00     0.129 A 
HETATM    4  N2  UNL     1      10.688  -3.091  15.998  1.00  0.00    -0.287 N 
HETATM    5  N1  UNL     1       9.996  -3.209  14.950  1.00  0.00    -0.287 N 
ATOM      6  H2  UNL     1      11.503  -3.687  16.142  1.00  0.00     0.188 HD
HETATM    7  C2  UNL     1       8.933  -2.431  14.770  1.00  0.00     0.128 A 
ATOM      8  H1  UNL     1      10.251  -3.898  14.244  1.00  0.00     0.188 HD
HETATM    9  S3  UNL     1       8.961  -1.494  16.200  1.00  0.00    -0.038 SA
BRANCH   7  10
HETATM   10  S1  UNL     1       7.841  -2.462  13.353  1.00  0.00    -0.108 SA
HETATM   11  C1  UNL     1       6.238  -3.206  13.763  1.00  0.00     0.097 C 
ENDBRANCH   7  10
ENDBRANCH   2   3
ENDBRANCH   1   2
BRANCH   1  12
HETATM   12  C5  UNL     1      12.487  -3.207  20.393  1.00  0.00     0.228 C 
HETATM   13  O1  UNL     1      12.778  -4.169  21.135  1.00  0.00    -0.273 OA
HETATM   14  N3  UNL     1      13.105  -1.955  20.457  1.00  0.00    -0.333 N 
ATOM     15  H3  UNL     1      12.804  -1.234  19.800  1.00  0.00     0.164 HD
BRANCH  14  16
HETATM   16  C6  UNL     1      14.150  -1.624  21.405  1.00  0.00     0.286 C 
HETATM   17  C7  UNL     1      14.205  -0.122  21.537  1.00  0.00     0.056 C 
HETATM   18  C8  UNL     1      14.631   0.074  22.973  1.00  0.00     0.031 C 
HETATM   19  C9  UNL     1      13.778  -1.023  23.633  1.00  0.00     0.235 C 
HETATM   20  N4  UNL     1      13.869  -2.131  22.715  1.00  0.00    -0.054 N 
ATOM     21  H42 UNL     1      13.038  -2.721  22.733  1.00  0.00     0.279 HD
ATOM     22  H41 UNL     1      14.548  -2.831  23.015  1.00  0.00     0.279 HD
ENDBRANCH  14  16
ENDBRANCH   1  12
TORSDOF 5
ENDMDL
MODEL 4
REMARK VINA RESULT: -6.657289220      2.941      8.173
REMARK  5 active torsions:
REMARK  status: ('A' for Active; 'I' for Inactive)
REMARK    1  A    between atoms: S1_2  and  C2_3 
REMARK    2  A    between atoms: C3_8  and  S2_9 
REMARK    3  A    between atoms: S2_9  and  C4_10 
REMARK    4  A    between atoms: C4_10  and  C5_11 
REMARK       I    between atoms: C5_11  and  N3_13 
REMARK    5  A    between atoms: N3_13  and  C6_15 
ROOT
HETATM    1  C4  UNL     1      11.059  -3.825  18.763  1.00  0.00     0.184 C 
ENDROOT
BRANCH   1   2
HETATM    2  S2  UNL     1      10.502  -2.137  18.422  1.00  0.00    -0.094 SA
BRANCH   2   3
HETATM    3  C3  UNL     1       9.747  -2.077  16.787  1.00  0.00     0.129 A 
HETATM    4  N2  UNL     1       9.821  -1.078  15.903  1.00  0.00    -0.287 N 
HETATM    5  N1  UNL     1       9.231  -1.179  14.794  1.00  0.00    -0.287 N 
ATOM      6  H2  UNL     1      10.353  -0.237  16.126  1.00  0.00     0.188 HD
HETATM    7  C2  UNL     1       8.541  -2.278  14.509  1.00  0.00     0.128 A 
ATOM      8  H1  UNL     1       9.283  -0.418  14.116  1.00  0.00     0.188 HD
HETATM    9  S3  UNL     1       8.774  -3.194  15.934  1.00  0.00    -0.038 SA
BRANCH   7  10
HETATM   10  S1  UNL     1       7.650  -2.592  12.989  1.00  0.00    -0.108 SA
HETATM   11  C1  UNL     1       5.891  -2.902  13.300  1.00  0.00     0.097 C 
ENDBRANCH   7  10
ENDBRANCH   2   3
ENDBRANCH   1   2
BRANCH   1  12
HETATM   12  C5  UNL     1      11.920  -3.809  19.969  1.00  0.00     0.228 C 
HETATM   13  O1  UNL     1      11.876  -4.789  20.742  1.00  0.00    -0.273 OA
HETATM   14  N3  UNL     1      12.733  -2.690  20.170  1.00  0.00    -0.333 N 
ATOM     15  H3  UNL     1      12.706  -1.943  19.476  1.00  0.00     0.164 HD
BRANCH  14  16
HETATM   16  C6  UNL     1      13.613  -2.533  21.311  1.00  0.00     0.286 C 
HETATM   17  C7  UNL     1      13.918  -1.064  21.469  1.00  0.00     0.056 C 
HETATM   18  C8  UNL     1      14.080  -0.912  22.963  1.00  0.00     0.031 C 
HETATM   19  C9  UNL     1      12.925  -1.818  23.428  1.00  0.00     0.235 C 
HETATM   20  N4  UNL     1      12.990  -2.946  22.533  1.00  0.00    -0.054 N 
ATOM     21  H42 UNL     1      12.076  -3.373  22.378  1.00  0.00     0.279 HD
ATOM     22  H41 UNL     1      13.454  -3.751  22.953  1.00  0.00     0.279 HD
ENDBRANCH  14  16
ENDBRANCH   1  12
TORSDOF 5
ENDMDL
MODEL 5
REMARK VINA RESULT: -6.623741082      1.793      1.847
REMARK  5 active torsions:
REMARK  status: ('A' for Active; 'I' for Inactive)
REMARK    1  A    between atoms: S1_2  and  C2_3 
REMARK    2  A    between atoms: C3_8  and  S2_9 
REMARK    3  A    between atoms: S2_9  and  C4_10 
REMARK    4  A    between atoms: C4_10  and  C5_11 
REMARK       I    between atoms: C5_11  and  N3_13 
REMARK    5  A    between atoms: N3_13  and  C6_15 
ROOT
HETATM    1  C4  UNL     1       9.658  -1.076  17.889  1.00  0.00     0.184 C 
ENDROOT
BRANCH   1   2
HETATM    2  S2  UNL     1      10.361  -2.474  18.798  1.00  0.00    -0.094 SA
BRANCH   2   3
HETATM    3  C3  UNL     1      11.757  -1.904  19.785  1.00  0.00     0.129 A 
HETATM    4  N2  UNL     1      12.875  -2.580  20.063  1.00  0.00    -0.287 N 
HETATM    5  N1  UNL     1      13.767  -2.048  20.777  1.00  0.00    -0.287 N 
ATOM      6  H2  UNL     1      13.006  -3.523  19.697  1.00  0.00     0.188 HD
HETATM    7  C2  UNL     1      13.591  -0.818  21.248  1.00  0.00     0.128 A 
ATOM      8  H1  UNL     1      14.622  -2.561  20.993  1.00  0.00     0.188 HD
HETATM    9  S3  UNL     1      12.050  -0.437  20.611  1.00  0.00    -0.038 SA
BRANCH   7  10
HETATM   10  S1  UNL     1      14.747   0.089  22.269  1.00  0.00    -0.108 SA
HETATM   11  C1  UNL     1      16.204   0.610  21.324  1.00  0.00     0.097 C 
ENDBRANCH   7  10
ENDBRANCH   2   3
ENDBRANCH   1   2
BRANCH   1  12
HETATM   12  C5  UNL     1       9.055  -1.577  16.632  1.00  0.00     0.228 C 
HETATM   13  O1  UNL     1       7.914  -1.175  16.321  1.00  0.00    -0.273 OA
HETATM   14  N3  UNL     1       9.803  -2.477  15.868  1.00  0.00    -0.333 N 
ATOM     15  H3  UNL     1      10.731  -2.738  16.202  1.00  0.00     0.164 HD
BRANCH  14  16
HETATM   16  C6  UNL     1       9.333  -3.059  14.627  1.00  0.00     0.286 C 
HETATM   17  C7  UNL     1       8.290  -4.096  14.961  1.00  0.00     0.056 C 
HETATM   18  C8  UNL     1       7.356  -4.030  13.776  1.00  0.00     0.031 C 
HETATM   19  C9  UNL     1       7.318  -2.503  13.581  1.00  0.00     0.235 C 
HETATM   20  N4  UNL     1       8.684  -2.094  13.791  1.00  0.00    -0.054 N 
ATOM     21  H42 UNL     1       8.753  -1.147  14.164  1.00  0.00     0.279 HD
ATOM     22  H41 UNL     1       9.183  -1.939  12.916  1.00  0.00     0.279 HD
ENDBRANCH  14  16
ENDBRANCH   1  12
TORSDOF 5
ENDMDL
