MODEL 1
REMARK VINA RESULT: -8.084304472      0.000      0.000
REMARK  6 active torsions:
REMARK  status: ('A' for Active; 'I' for Inactive)
REMARK    1  A    between atoms: C2_2  and  O1_3 
REMARK    2  A    between atoms: C3_5  and  C4_6 
REMARK    3  A    between atoms: C4_6  and  C5_7 
REMARK    4  A    between atoms: N1_8  and  N2_10 
REMARK       I    between atoms: N2_10  and  C6_12 
REMARK       I    between atoms: C6_12  and  N5_17 
REMARK    5  A    between atoms: N5_17  and  N6_19 
REMARK    6  A    between atoms: C8_21  and  C9_22 
ROOT
HETATM    1  N2  UNL     1      11.910  -3.736  18.566  1.00  0.00    -0.131 N 
ATOM      2  H2  UNL     1      12.856  -3.809  18.192  1.00  0.00     0.205 HD
HETATM    3  C6  UNL     1      11.467  -4.675  19.528  1.00  0.00     0.720 C 
HETATM    4  N3  UNL     1      10.596  -5.550  19.233  1.00  0.00    -0.123 N 
ATOM      5  H3  UNL     1      10.249  -5.526  18.274  1.00  0.00     0.197 HD
HETATM    6  C7  UNL     1      10.062  -6.525  20.038  1.00  0.00     0.196 C 
HETATM    7  N4  UNL     1       9.611  -7.348  20.692  1.00  0.00    -0.171 NA
HETATM    8  N5  UNL     1      12.016  -4.618  20.830  1.00  0.00    -0.130 N 
ATOM      9  H5  UNL     1      12.990  -4.868  21.003  1.00  0.00     0.205 HD
ENDROOT
BRANCH   1  10
HETATM   10  N1  UNL     1      11.076  -2.715  18.123  1.00  0.00    -0.301 N 
HETATM   11  C5  UNL     1      11.576  -1.596  17.755  1.00  0.00     0.084 C 
ATOM     12  H1  UNL     1      10.066  -2.858  18.091  1.00  0.00     0.186 HD
BRANCH  11  13
HETATM   13  C4  UNL     1      10.726  -0.484  17.276  1.00  0.00     0.075 C 
BRANCH  13  14
HETATM   14  C3  UNL     1       9.332  -0.794  17.658  1.00  0.00     0.010 C 
HETATM   15  C2  UNL     1       8.447  -1.055  16.725  1.00  0.00     0.036 C 
HETATM   16  C1  UNL     1       8.859  -1.037  15.304  1.00  0.00     0.075 C 
BRANCH  15  17
HETATM   17  O1  UNL     1       7.116  -1.356  17.012  1.00  0.00    -0.366 OA
ATOM     18  H1  UNL     1       6.944  -2.028  17.662  1.00  0.00     0.217 HD
ENDBRANCH  15  17
ENDBRANCH  13  14
ENDBRANCH  11  13
ENDBRANCH   1  10
BRANCH   8  19
HETATM   19  N6  UNL     1      11.195  -4.214  21.854  1.00  0.00    -0.296 N 
HETATM   20  C8  UNL     1      11.141  -3.089  22.422  1.00  0.00     0.126 C 
ATOM     21  H6  UNL     1      10.542  -4.917  22.200  1.00  0.00     0.186 HD
BRANCH  20  22
HETATM   22  C9  UNL     1      12.001  -1.953  22.062  1.00  0.00     0.021 A 
HETATM   23  C10 UNL     1      11.683  -0.937  21.193  1.00  0.00     0.021 A 
HETATM   24  C11 UNL     1      12.611   0.014  21.000  1.00  0.00     0.008 A 
HETATM   25  C12 UNL     1      13.790  -0.108  21.681  1.00  0.00     0.050 A 
HETATM   26  S1  UNL     1      13.566  -1.543  22.570  1.00  0.00    -0.101 SA
ENDBRANCH  20  22
ENDBRANCH   8  19
TORSDOF 6
ENDMDL
MODEL 2
REMARK VINA RESULT: -7.596802994      1.001      1.111
REMARK  6 active torsions:
REMARK  status: ('A' for Active; 'I' for Inactive)
REMARK    1  A    between atoms: C2_2  and  O1_3 
REMARK    2  A    between atoms: C3_5  and  C4_6 
REMARK    3  A    between atoms: C4_6  and  C5_7 
REMARK    4  A    between atoms: N1_8  and  N2_10 
REMARK       I    between atoms: N2_10  and  C6_12 
REMARK       I    between atoms: C6_12  and  N5_17 
REMARK    5  A    between atoms: N5_17  and  N6_19 
REMARK    6  A    between atoms: C8_21  and  C9_22 
ROOT
HETATM    1  N2  UNL     1      12.162  -3.639  18.661  1.00  0.00    -0.131 N 
ATOM      2  H2  UNL     1      13.129  -3.742  18.350  1.00  0.00     0.205 HD
HETATM    3  C6  UNL     1      11.625  -4.567  19.583  1.00  0.00     0.720 C 
HETATM    4  N3  UNL     1      10.746  -5.410  19.224  1.00  0.00    -0.123 N 
ATOM      5  H3  UNL     1      10.465  -5.368  18.245  1.00  0.00     0.197 HD
HETATM    6  C7  UNL     1      10.126  -6.370  19.985  1.00  0.00     0.196 C 
HETATM    7  N4  UNL     1       9.605  -7.181  20.600  1.00  0.00    -0.171 NA
HETATM    8  N5  UNL     1      12.088  -4.536  20.920  1.00  0.00    -0.130 N 
ATOM      9  H5  UNL     1      13.039  -4.821  21.155  1.00  0.00     0.205 HD
ENDROOT
BRANCH   1  10
HETATM   10  N1  UNL     1      11.395  -2.587  18.171  1.00  0.00    -0.301 N 
HETATM   11  C5  UNL     1      10.189  -2.436  18.571  1.00  0.00     0.084 C 
ATOM     12  H1  UNL     1      11.793  -1.936  17.493  1.00  0.00     0.186 HD
BRANCH  11  13
HETATM   13  C4  UNL     1       9.338  -1.331  18.077  1.00  0.00     0.075 C 
BRANCH  13  14
HETATM   14  C3  UNL     1       9.759  -1.031  16.692  1.00  0.00     0.010 C 
HETATM   15  C2  UNL     1       8.996  -1.393  15.689  1.00  0.00     0.036 C 
HETATM   16  C1  UNL     1       7.722  -2.096  15.959  1.00  0.00     0.075 C 
BRANCH  15  17
HETATM   17  O1  UNL     1       9.330  -1.143  14.358  1.00  0.00    -0.366 OA
ATOM     18  H1  UNL     1       9.389  -0.237  14.079  1.00  0.00     0.217 HD
ENDBRANCH  15  17
ENDBRANCH  13  14
ENDBRANCH  11  13
ENDBRANCH   1  10
BRANCH   8  19
HETATM   19  N6  UNL     1      11.214  -4.110  21.890  1.00  0.00    -0.296 N 
HETATM   20  C8  UNL     1      11.153  -2.983  22.453  1.00  0.00     0.126 C 
ATOM     21  H6  UNL     1      10.524  -4.796  22.195  1.00  0.00     0.186 HD
BRANCH  20  22
HETATM   22  C9  UNL     1      12.062  -1.869  22.147  1.00  0.00     0.021 A 
HETATM   23  C10 UNL     1      11.845  -0.875  21.223  1.00  0.00     0.021 A 
HETATM   24  C11 UNL     1      12.802   0.058  21.094  1.00  0.00     0.008 A 
HETATM   25  C12 UNL     1      13.909  -0.059  21.890  1.00  0.00     0.050 A 
HETATM   26  S1  UNL     1      13.577  -1.465  22.791  1.00  0.00    -0.101 SA
ENDBRANCH  20  22
ENDBRANCH   8  19
TORSDOF 6
ENDMDL
MODEL 3
REMARK VINA RESULT: -7.431715540      2.634      4.531
REMARK  6 active torsions:
REMARK  status: ('A' for Active; 'I' for Inactive)
REMARK    1  A    between atoms: C2_2  and  O1_3 
REMARK    2  A    between atoms: C3_5  and  C4_6 
REMARK    3  A    between atoms: C4_6  and  C5_7 
REMARK    4  A    between atoms: N1_8  and  N2_10 
REMARK       I    between atoms: N2_10  and  C6_12 
REMARK       I    between atoms: C6_12  and  N5_17 
REMARK    5  A    between atoms: N5_17  and  N6_19 
REMARK    6  A    between atoms: C8_21  and  C9_22 
ROOT
HETATM    1  N2  UNL     1      11.178  -0.621  20.503  1.00  0.00    -0.131 N 
ATOM      2  H2  UNL     1      10.265  -0.493  20.940  1.00  0.00     0.205 HD
HETATM    3  C6  UNL     1      12.336  -0.682  21.316  1.00  0.00     0.720 C 
HETATM    4  N3  UNL     1      13.181   0.264  21.319  1.00  0.00    -0.123 N 
ATOM      5  H3  UNL     1      12.968   1.052  20.707  1.00  0.00     0.197 HD
HETATM    6  C7  UNL     1      14.345   0.363  22.040  1.00  0.00     0.196 C 
HETATM    7  N4  UNL     1      15.314   0.467  22.638  1.00  0.00    -0.171 NA
HETATM    8  N5  UNL     1      12.531  -1.825  22.127  1.00  0.00    -0.130 N 
ATOM      9  H5  UNL     1      11.931  -2.010  22.930  1.00  0.00     0.205 HD
ENDROOT
BRANCH   1  10
HETATM   10  N1  UNL     1      11.266  -0.732  19.120  1.00  0.00    -0.301 N 
HETATM   11  C5  UNL     1      10.206  -0.921  18.426  1.00  0.00     0.084 C 
ATOM     12  H1  UNL     1      12.173  -0.664  18.658  1.00  0.00     0.186 HD
BRANCH  11  13
HETATM   13  C4  UNL     1      10.254  -1.045  16.952  1.00  0.00     0.075 C 
BRANCH  13  14
HETATM   14  C3  UNL     1       8.860  -1.107  16.466  1.00  0.00     0.010 C 
HETATM   15  C2  UNL     1       8.494  -2.081  15.666  1.00  0.00     0.036 C 
HETATM   16  C1  UNL     1       9.484  -3.104  15.264  1.00  0.00     0.075 C 
BRANCH  15  17
HETATM   17  O1  UNL     1       7.197  -2.202  15.170  1.00  0.00    -0.366 OA
ATOM     18  H1  UNL     1       6.777  -3.052  15.230  1.00  0.00     0.217 HD
ENDBRANCH  15  17
ENDBRANCH  13  14
ENDBRANCH  11  13
ENDBRANCH   1  10
BRANCH   8  19
HETATM   19  N6  UNL     1      13.556  -2.676  21.795  1.00  0.00    -0.296 N 
HETATM   20  C8  UNL     1      13.526  -3.689  21.044  1.00  0.00     0.126 C 
ATOM     21  H6  UNL     1      14.462  -2.460  22.211  1.00  0.00     0.186 HD
BRANCH  20  22
HETATM   22  C9  UNL     1      12.313  -4.157  20.357  1.00  0.00     0.021 A 
HETATM   23  C10 UNL     1      12.126  -4.225  18.997  1.00  0.00     0.021 A 
HETATM   24  C11 UNL     1      10.941  -4.685  18.566  1.00  0.00     0.008 A 
HETATM   25  C12 UNL     1      10.022  -5.047  19.513  1.00  0.00     0.050 A 
HETATM   26  S1  UNL     1      10.843  -4.733  20.972  1.00  0.00    -0.101 SA
ENDBRANCH  20  22
ENDBRANCH   8  19
TORSDOF 6
ENDMDL
MODEL 4
REMARK VINA RESULT: -7.269501285      1.414      1.651
REMARK  6 active torsions:
REMARK  status: ('A' for Active; 'I' for Inactive)
REMARK    1  A    between atoms: C2_2  and  O1_3 
REMARK    2  A    between atoms: C3_5  and  C4_6 
REMARK    3  A    between atoms: C4_6  and  C5_7 
REMARK    4  A    between atoms: N1_8  and  N2_10 
REMARK       I    between atoms: N2_10  and  C6_12 
REMARK       I    between atoms: C6_12  and  N5_17 
REMARK    5  A    between atoms: N5_17  and  N6_19 
REMARK    6  A    between atoms: C8_21  and  C9_22 
ROOT
HETATM    1  N2  UNL     1      11.202  -3.927  18.286  1.00  0.00    -0.131 N 
ATOM      2  H2  UNL     1      12.097  -3.912  17.796  1.00  0.00     0.205 HD
HETATM    3  C6  UNL     1      10.991  -4.867  19.323  1.00  0.00     0.720 C 
HETATM    4  N3  UNL     1      10.196  -5.844  19.166  1.00  0.00    -0.123 N 
ATOM      5  H3  UNL     1       9.732  -5.898  18.259  1.00  0.00     0.197 HD
HETATM    6  C7  UNL     1       9.880  -6.836  20.060  1.00  0.00     0.196 C 
HETATM    7  N4  UNL     1       9.610  -7.676  20.788  1.00  0.00    -0.171 NA
HETATM    8  N5  UNL     1      11.688  -4.696  20.542  1.00  0.00    -0.130 N 
ATOM      9  H5  UNL     1      12.698  -4.830  20.596  1.00  0.00     0.205 HD
ENDROOT
BRANCH   1  10
HETATM   10  N1  UNL     1      10.209  -3.023  17.925  1.00  0.00    -0.301 N 
HETATM   11  C5  UNL     1       9.820  -2.955  16.707  1.00  0.00     0.084 C 
ATOM     12  H1  UNL     1       9.791  -2.414  18.629  1.00  0.00     0.186 HD
BRANCH  11  13
HETATM   13  C4  UNL     1       8.767  -2.008  16.279  1.00  0.00     0.075 C 
BRANCH  13  14
HETATM   14  C3  UNL     1       7.558  -2.798  15.968  1.00  0.00     0.010 C 
HETATM   15  C2  UNL     1       7.201  -2.974  14.718  1.00  0.00     0.036 C 
HETATM   16  C1  UNL     1       8.016  -2.379  13.637  1.00  0.00     0.075 C 
BRANCH  15  17
HETATM   17  O1  UNL     1       6.073  -3.709  14.352  1.00  0.00    -0.366 OA
ATOM     18  H1  UNL     1       6.195  -4.622  14.120  1.00  0.00     0.217 HD
ENDBRANCH  15  17
ENDBRANCH  13  14
ENDBRANCH  11  13
ENDBRANCH   1  10
BRANCH   8  19
HETATM   19  N6  UNL     1      10.959  -4.341  21.650  1.00  0.00    -0.296 N 
HETATM   20  C8  UNL     1      10.977  -3.253  22.288  1.00  0.00     0.126 C 
ATOM     21  H6  UNL     1      10.319  -5.052  22.004  1.00  0.00     0.186 HD
BRANCH  20  22
HETATM   22  C9  UNL     1      11.832  -2.113  21.931  1.00  0.00     0.021 A 
HETATM   23  C10 UNL     1      11.539  -1.134  21.013  1.00  0.00     0.021 A 
HETATM   24  C11 UNL     1      12.457  -0.172  20.831  1.00  0.00     0.008 A 
HETATM   25  C12 UNL     1      13.605  -0.247  21.572  1.00  0.00     0.050 A 
HETATM   26  S1  UNL     1      13.364  -1.656  22.498  1.00  0.00    -0.101 SA
ENDBRANCH  20  22
ENDBRANCH   8  19
TORSDOF 6
ENDMDL
MODEL 5
REMARK VINA RESULT: -7.157009949      1.475      1.767
REMARK  6 active torsions:
REMARK  status: ('A' for Active; 'I' for Inactive)
REMARK    1  A    between atoms: C2_2  and  O1_3 
REMARK    2  A    between atoms: C3_5  and  C4_6 
REMARK    3  A    between atoms: C4_6  and  C5_7 
REMARK    4  A    between atoms: N1_8  and  N2_10 
REMARK       I    between atoms: N2_10  and  C6_12 
REMARK       I    between atoms: C6_12  and  N5_17 
REMARK    5  A    between atoms: N5_17  and  N6_19 
REMARK    6  A    between atoms: C8_21  and  C9_22 
ROOT
HETATM    1  N2  UNL     1      11.524  -4.787  18.070  1.00  0.00    -0.131 N 
ATOM      2  H2  UNL     1      12.507  -4.848  17.802  1.00  0.00     0.205 HD
HETATM    3  C6  UNL     1      11.069  -5.490  19.210  1.00  0.00     0.720 C 
HETATM    4  N3  UNL     1      10.314  -6.503  19.094  1.00  0.00    -0.123 N 
ATOM      5  H3  UNL     1      10.067  -6.766  18.140  1.00  0.00     0.197 HD
HETATM    6  C7  UNL     1       9.787  -7.291  20.088  1.00  0.00     0.196 C 
HETATM    7  N4  UNL     1       9.346  -7.964  20.900  1.00  0.00    -0.171 NA
HETATM    8  N5  UNL     1      11.474  -5.038  20.488  1.00  0.00    -0.130 N 
ATOM      9  H5  UNL     1      12.443  -5.124  20.795  1.00  0.00     0.205 HD
ENDROOT
BRANCH   1  10
HETATM   10  N1  UNL     1      10.654  -4.015  17.308  1.00  0.00    -0.301 N 
HETATM   11  C5  UNL     1      10.487  -4.279  16.066  1.00  0.00     0.084 C 
ATOM     12  H1  UNL     1      10.149  -3.240  17.737  1.00  0.00     0.186 HD
BRANCH  11  13
HETATM   13  C4  UNL     1       9.570  -3.483  15.219  1.00  0.00     0.075 C 
BRANCH  13  14
HETATM   14  C3  UNL     1       8.385  -3.151  16.037  1.00  0.00     0.010 C 
HETATM   15  C2  UNL     1       8.109  -1.895  16.300  1.00  0.00     0.036 C 
HETATM   16  C1  UNL     1       8.989  -0.830  15.771  1.00  0.00     0.075 C 
BRANCH  15  17
HETATM   17  O1  UNL     1       7.008  -1.509  17.064  1.00  0.00    -0.366 OA
ATOM     18  H1  UNL     1       6.184  -1.956  16.910  1.00  0.00     0.217 HD
ENDBRANCH  15  17
ENDBRANCH  13  14
ENDBRANCH  11  13
ENDBRANCH   1  10
BRANCH   8  19
HETATM   19  N6  UNL     1      10.520  -4.479  21.301  1.00  0.00    -0.296 N 
HETATM   20  C8  UNL     1      10.538  -3.359  21.881  1.00  0.00     0.126 C 
ATOM     21  H6  UNL     1       9.685  -5.044  21.457  1.00  0.00     0.186 HD
BRANCH  20  22
HETATM   22  C9  UNL     1      11.653  -2.406  21.778  1.00  0.00     0.021 A 
HETATM   23  C10 UNL     1      12.665  -2.238  22.692  1.00  0.00     0.021 A 
HETATM   24  C11 UNL     1      13.595  -1.312  22.410  1.00  0.00     0.008 A 
HETATM   25  C12 UNL     1      13.458  -0.616  21.241  1.00  0.00     0.050 A 
HETATM   26  S1  UNL     1      12.037  -1.276  20.574  1.00  0.00    -0.101 SA
ENDBRANCH  20  22
ENDBRANCH   8  19
TORSDOF 6
ENDMDL
