MODEL 1
REMARK VINA RESULT: -6.876555497      0.000      0.000
REMARK  7 active torsions:
REMARK  status: ('A' for Active; 'I' for Inactive)
REMARK    1  A    between atoms: C2_2  and  O1_3 
REMARK    2  A    between atoms: N1_5  and  C3_7 
REMARK    3  A    between atoms: N3_11  and  C5_13 
REMARK    4  A    between atoms: C5_13  and  C6_14 
REMARK    5  A    between atoms: C10_20  and  N4_21 
REMARK    6  A    between atoms: N4_21  and  C11_23 
REMARK    7  A    between atoms: C16_28  and  C17_29 
ROOT
HETATM    1  C3  UNL     1      32.930  41.940  20.166  1.00  0.00     0.124 A 
HETATM    2  N2  UNL     1      32.585  41.269  19.054  1.00  0.00    -0.326 N 
ATOM      3  H2  UNL     1      33.331  41.007  18.409  1.00  0.00     0.169 HD
HETATM    4  C4  UNL     1      31.305  40.913  18.724  1.00  0.00     0.130 A 
HETATM    5  N3  UNL     1      31.002  40.275  17.654  1.00  0.00    -0.372 N 
ATOM      6  H3  UNL     1      30.026  40.042  17.470  1.00  0.00     0.161 HD
HETATM    7  C10 UNL     1      30.255  41.233  19.546  1.00  0.00     0.080 A 
HETATM    8  C14 UNL     1      30.551  41.919  20.699  1.00  0.00    -0.013 A 
HETATM    9  C15 UNL     1      29.411  42.199  21.618  1.00  0.00     0.052 C 
HETATM   10  C16 UNL     1      31.872  42.282  21.019  1.00  0.00     0.081 A 
ENDROOT
BRANCH   5  11
HETATM   11  C5  UNL     1      32.009  39.883  16.711  1.00  0.00     0.155 C 
BRANCH  11  12
HETATM   12  C6  UNL     1      31.537  39.899  15.277  1.00  0.00     0.163 C 
HETATM   13  C7  UNL     1      30.053  40.088  15.278  1.00  0.00     0.201 C 
HETATM   14  O2  UNL     1      29.378  38.953  15.720  1.00  0.00    -0.386 OA
HETATM   15  C8  UNL     1      29.715  37.915  14.887  1.00  0.00     0.193 C 
HETATM   16  C9  UNL     1      31.182  37.625  14.970  1.00  0.00     0.194 C 
HETATM   17  O3  UNL     1      31.944  38.725  14.640  1.00  0.00    -0.380 OA
ENDBRANCH  11  12
ENDBRANCH   5  11
BRANCH   7  18
HETATM   18  N4  UNL     1      28.921  40.851  19.187  1.00  0.00    -0.383 N 
ATOM     19  H4  UNL     1      28.561  39.984  19.586  1.00  0.00     0.160 HD
BRANCH  18  20
HETATM   20  C11 UNL     1      28.063  41.573  18.329  1.00  0.00     0.073 C 
HETATM   21  C12 UNL     1      28.497  42.872  17.788  1.00  0.00     0.031 C 
HETATM   22  C13 UNL     1      26.724  41.775  19.053  1.00  0.00     0.031 C 
ENDBRANCH  18  20
ENDBRANCH   7  18
BRANCH   1  23
HETATM   23  N1  UNL     1      34.298  42.122  20.527  1.00  0.00    -0.326 N 
HETATM   24  C2  UNL     1      35.091  41.568  21.491  1.00  0.00     0.112 C 
HETATM   25  C1  UNL     1      34.807  40.463  22.389  1.00  0.00     0.097 C 
ATOM     26  H1  UNL     1      34.782  42.806  19.946  1.00  0.00     0.169 HD
BRANCH  24  27
HETATM   27  O1  UNL     1      36.277  42.078  21.644  1.00  0.00    -0.350 OA
ATOM     28  H1  UNL     1      36.348  42.980  21.353  1.00  0.00     0.219 HD
ENDBRANCH  24  27
ENDBRANCH   1  23
BRANCH  10  29
HETATM   29  C17 UNL     1      32.115  43.143  22.133  1.00  0.00     0.269 C 
HETATM   30  N5  UNL     1      32.128  42.800  23.519  1.00  0.00    -0.057 NA
HETATM   31  O4  UNL     1      32.356  44.381  21.955  1.00  0.00    -0.271 OA
ENDBRANCH  10  29
TORSDOF 7
ENDMDL
MODEL 2
REMARK VINA RESULT: -6.806686915      1.877      6.349
REMARK  7 active torsions:
REMARK  status: ('A' for Active; 'I' for Inactive)
REMARK    1  A    between atoms: C2_2  and  O1_3 
REMARK    2  A    between atoms: N1_5  and  C3_7 
REMARK    3  A    between atoms: N3_11  and  C5_13 
REMARK    4  A    between atoms: C5_13  and  C6_14 
REMARK    5  A    between atoms: C10_20  and  N4_21 
REMARK    6  A    between atoms: N4_21  and  C11_23 
REMARK    7  A    between atoms: C16_28  and  C17_29 
ROOT
HETATM    1  C3  UNL     1      31.622  39.752  16.750  1.00  0.00     0.124 A 
HETATM    2  N2  UNL     1      31.947  40.380  17.893  1.00  0.00    -0.326 N 
ATOM      3  H2  UNL     1      32.877  40.212  18.277  1.00  0.00     0.169 HD
HETATM    4  C4  UNL     1      31.120  41.228  18.579  1.00  0.00     0.130 A 
HETATM    5  N3  UNL     1      31.453  41.813  19.669  1.00  0.00    -0.372 N 
ATOM      6  H3  UNL     1      30.786  42.433  20.129  1.00  0.00     0.161 HD
HETATM    7  C10 UNL     1      29.856  41.499  18.118  1.00  0.00     0.080 A 
HETATM    8  C14 UNL     1      29.472  40.883  16.951  1.00  0.00    -0.013 A 
HETATM    9  C15 UNL     1      28.124  41.240  16.424  1.00  0.00     0.052 C 
HETATM   10  C16 UNL     1      30.333  40.010  16.263  1.00  0.00     0.081 A 
ENDROOT
BRANCH   5  11
HETATM   11  C5  UNL     1      32.746  41.613  20.255  1.00  0.00     0.155 C 
BRANCH  11  12
HETATM   12  C6  UNL     1      32.700  41.282  21.728  1.00  0.00     0.163 C 
HETATM   13  C7  UNL     1      31.268  41.269  22.158  1.00  0.00     0.201 C 
HETATM   14  O2  UNL     1      30.720  42.549  22.201  1.00  0.00    -0.386 OA
HETATM   15  C8  UNL     1      31.464  43.293  23.084  1.00  0.00     0.193 C 
HETATM   16  C9  UNL     1      32.876  43.426  22.603  1.00  0.00     0.194 C 
HETATM   17  O3  UNL     1      33.481  42.199  22.436  1.00  0.00    -0.380 OA
ENDBRANCH  11  12
ENDBRANCH   5  11
BRANCH   7  18
HETATM   18  N4  UNL     1      29.003  42.390  18.846  1.00  0.00    -0.383 N 
ATOM     19  H4  UNL     1      28.973  43.362  18.538  1.00  0.00     0.160 HD
BRANCH  18  20
HETATM   20  C11 UNL     1      28.202  42.038  19.954  1.00  0.00     0.073 C 
HETATM   21  C12 UNL     1      28.156  40.638  20.405  1.00  0.00     0.031 C 
HETATM   22  C13 UNL     1      26.765  42.500  19.669  1.00  0.00     0.031 C 
ENDBRANCH  18  20
ENDBRANCH   7  18
BRANCH   1  23
HETATM   23  N1  UNL     1      32.595  39.023  16.004  1.00  0.00    -0.326 N 
HETATM   24  C2  UNL     1      33.471  39.376  15.018  1.00  0.00     0.112 C 
HETATM   25  C1  UNL     1      33.797  40.697  14.509  1.00  0.00     0.097 C 
ATOM     26  H1  UNL     1      32.646  38.038  16.258  1.00  0.00     0.169 HD
BRANCH  24  27
HETATM   27  O1  UNL     1      34.126  38.413  14.438  1.00  0.00    -0.350 OA
ATOM     28  H1  UNL     1      34.131  37.601  14.932  1.00  0.00     0.219 HD
ENDBRANCH  24  27
ENDBRANCH   1  23
BRANCH  10  29
HETATM   29  C17 UNL     1      29.835  39.258  15.156  1.00  0.00     0.269 C 
HETATM   30  N5  UNL     1      29.636  39.702  13.813  1.00  0.00    -0.057 NA
HETATM   31  O4  UNL     1      29.506  38.035  15.297  1.00  0.00    -0.271 OA
ENDBRANCH  10  29
TORSDOF 7
ENDMDL
MODEL 3
REMARK VINA RESULT: -6.777463901      1.993      2.643
REMARK  7 active torsions:
REMARK  status: ('A' for Active; 'I' for Inactive)
REMARK    1  A    between atoms: C2_2  and  O1_3 
REMARK    2  A    between atoms: N1_5  and  C3_7 
REMARK    3  A    between atoms: N3_11  and  C5_13 
REMARK    4  A    between atoms: C5_13  and  C6_14 
REMARK    5  A    between atoms: C10_20  and  N4_21 
REMARK    6  A    between atoms: N4_21  and  C11_23 
REMARK    7  A    between atoms: C16_28  and  C17_29 
ROOT
HETATM    1  C3  UNL     1      31.550  41.480  19.415  1.00  0.00     0.124 A 
HETATM    2  N2  UNL     1      31.289  41.741  18.122  1.00  0.00    -0.326 N 
ATOM      3  H2  UNL     1      32.076  41.985  17.521  1.00  0.00     0.169 HD
HETATM    4  C4  UNL     1      30.044  41.702  17.556  1.00  0.00     0.130 A 
HETATM    5  N3  UNL     1      29.822  41.957  16.319  1.00  0.00    -0.372 N 
ATOM      6  H3  UNL     1      28.867  41.910  15.963  1.00  0.00     0.161 HD
HETATM    7  C10 UNL     1      28.942  41.379  18.306  1.00  0.00     0.080 A 
HETATM    8  C14 UNL     1      29.152  41.103  19.636  1.00  0.00    -0.013 A 
HETATM    9  C15 UNL     1      27.957  40.685  20.425  1.00  0.00     0.052 C 
HETATM   10  C16 UNL     1      30.438  41.153  20.203  1.00  0.00     0.081 A 
ENDROOT
BRANCH   5  11
HETATM   11  C5  UNL     1      30.889  42.308  15.429  1.00  0.00     0.155 C 
BRANCH  11  12
HETATM   12  C6  UNL     1      31.212  41.235  14.417  1.00  0.00     0.163 C 
HETATM   13  C7  UNL     1      31.637  40.008  15.159  1.00  0.00     0.201 C 
HETATM   14  O2  UNL     1      32.896  40.153  15.737  1.00  0.00    -0.386 OA
HETATM   15  C8  UNL     1      33.791  40.422  14.731  1.00  0.00     0.193 C 
HETATM   16  C9  UNL     1      33.455  41.717  14.057  1.00  0.00     0.194 C 
HETATM   17  O3  UNL     1      32.182  41.709  13.530  1.00  0.00    -0.380 OA
ENDBRANCH  11  12
ENDBRANCH   5  11
BRANCH   7  18
HETATM   18  N4  UNL     1      27.646  41.341  17.698  1.00  0.00    -0.383 N 
ATOM     19  H4  UNL     1      27.339  40.449  17.309  1.00  0.00     0.160 HD
BRANCH  18  20
HETATM   20  C11 UNL     1      26.756  42.432  17.590  1.00  0.00     0.073 C 
HETATM   21  C12 UNL     1      27.078  43.703  18.259  1.00  0.00     0.031 C 
HETATM   22  C13 UNL     1      25.374  41.969  18.072  1.00  0.00     0.031 C 
ENDBRANCH  18  20
ENDBRANCH   7  18
BRANCH   1  23
HETATM   23  N1  UNL     1      32.890  41.371  19.892  1.00  0.00    -0.326 N 
HETATM   24  C2  UNL     1      33.666  42.166  20.687  1.00  0.00     0.112 C 
HETATM   25  C1  UNL     1      33.294  43.348  21.443  1.00  0.00     0.097 C 
ATOM     26  H1  UNL     1      33.365  40.526  19.575  1.00  0.00     0.169 HD
BRANCH  24  27
HETATM   27  O1  UNL     1      34.918  41.838  20.805  1.00  0.00    -0.350 OA
ATOM     28  H1  UNL     1      35.250  41.321  20.081  1.00  0.00     0.219 HD
ENDBRANCH  24  27
ENDBRANCH   1  23
BRANCH  10  29
HETATM   29  C17 UNL     1      30.589  41.032  21.618  1.00  0.00     0.269 C 
HETATM   30  N5  UNL     1      30.324  42.021  22.615  1.00  0.00    -0.057 NA
HETATM   31  O4  UNL     1      31.005  39.946  22.137  1.00  0.00    -0.271 OA
ENDBRANCH  10  29
TORSDOF 7
ENDMDL
MODEL 4
REMARK VINA RESULT: -6.732045104      1.087      1.819
REMARK  7 active torsions:
REMARK  status: ('A' for Active; 'I' for Inactive)
REMARK    1  A    between atoms: C2_2  and  O1_3 
REMARK    2  A    between atoms: N1_5  and  C3_7 
REMARK    3  A    between atoms: N3_11  and  C5_13 
REMARK    4  A    between atoms: C5_13  and  C6_14 
REMARK    5  A    between atoms: C10_20  and  N4_21 
REMARK    6  A    between atoms: N4_21  and  C11_23 
REMARK    7  A    between atoms: C16_28  and  C17_29 
ROOT
HETATM    1  C3  UNL     1      32.936  41.930  20.182  1.00  0.00     0.124 A 
HETATM    2  N2  UNL     1      32.530  41.286  19.074  1.00  0.00    -0.326 N 
ATOM      3  H2  UNL     1      33.240  41.031  18.388  1.00  0.00     0.169 HD
HETATM    4  C4  UNL     1      31.232  40.949  18.802  1.00  0.00     0.130 A 
HETATM    5  N3  UNL     1      30.870  40.335  17.736  1.00  0.00    -0.372 N 
ATOM      6  H3  UNL     1      29.884  40.115  17.596  1.00  0.00     0.161 HD
HETATM    7  C10 UNL     1      30.227  41.260  19.682  1.00  0.00     0.080 A 
HETATM    8  C14 UNL     1      30.587  41.921  20.832  1.00  0.00    -0.013 A 
HETATM    9  C15 UNL     1      29.497  42.192  21.812  1.00  0.00     0.052 C 
HETATM   10  C16 UNL     1      31.926  42.264  21.093  1.00  0.00     0.081 A 
ENDROOT
BRANCH   5  11
HETATM   11  C5  UNL     1      31.824  39.954  16.737  1.00  0.00     0.155 C 
BRANCH  11  12
HETATM   12  C6  UNL     1      31.296  40.049  15.325  1.00  0.00     0.163 C 
HETATM   13  C7  UNL     1      32.465  40.058  14.391  1.00  0.00     0.201 C 
HETATM   14  O2  UNL     1      33.172  41.257  14.444  1.00  0.00    -0.386 OA
HETATM   15  C8  UNL     1      32.304  42.269  14.115  1.00  0.00     0.193 C 
HETATM   16  C9  UNL     1      31.193  42.360  15.115  1.00  0.00     0.194 C 
HETATM   17  O3  UNL     1      30.485  41.180  15.207  1.00  0.00    -0.380 OA
ENDBRANCH  11  12
ENDBRANCH   5  11
BRANCH   7  18
HETATM   18  N4  UNL     1      28.873  40.899  19.382  1.00  0.00    -0.383 N 
ATOM     19  H4  UNL     1      28.539  40.005  19.744  1.00  0.00     0.160 HD
BRANCH  18  20
HETATM   20  C11 UNL     1      27.964  41.672  18.630  1.00  0.00     0.073 C 
HETATM   21  C12 UNL     1      28.437  42.878  17.930  1.00  0.00     0.031 C 
HETATM   22  C13 UNL     1      26.802  42.073  19.551  1.00  0.00     0.031 C 
ENDBRANCH  18  20
ENDBRANCH   7  18
BRANCH   1  23
HETATM   23  N1  UNL     1      34.322  42.093  20.477  1.00  0.00    -0.326 N 
HETATM   24  C2  UNL     1      35.145  41.551  21.423  1.00  0.00     0.112 C 
HETATM   25  C1  UNL     1      34.877  40.482  22.368  1.00  0.00     0.097 C 
ATOM     26  H1  UNL     1      34.796  42.747  19.854  1.00  0.00     0.169 HD
BRANCH  24  27
HETATM   27  O1  UNL     1      36.347  42.039  21.509  1.00  0.00    -0.350 OA
ATOM     28  H1  UNL     1      36.723  42.284  20.671  1.00  0.00     0.219 HD
ENDBRANCH  24  27
ENDBRANCH   1  23
BRANCH  10  29
HETATM   29  C17 UNL     1      32.233  43.101  22.210  1.00  0.00     0.269 C 
HETATM   30  N5  UNL     1      32.267  42.739  23.591  1.00  0.00    -0.057 NA
HETATM   31  O4  UNL     1      32.521  44.330  22.041  1.00  0.00    -0.271 OA
ENDBRANCH  10  29
TORSDOF 7
ENDMDL
MODEL 5
REMARK VINA RESULT: -6.643449893      3.062      5.573
REMARK  7 active torsions:
REMARK  status: ('A' for Active; 'I' for Inactive)
REMARK    1  A    between atoms: C2_2  and  O1_3 
REMARK    2  A    between atoms: N1_5  and  C3_7 
REMARK    3  A    between atoms: N3_11  and  C5_13 
REMARK    4  A    between atoms: C5_13  and  C6_14 
REMARK    5  A    between atoms: C10_20  and  N4_21 
REMARK    6  A    between atoms: N4_21  and  C11_23 
REMARK    7  A    between atoms: C16_28  and  C17_29 
ROOT
HETATM    1  C3  UNL     1      29.670  42.060  21.104  1.00  0.00     0.124 A 
HETATM    2  N2  UNL     1      28.449  42.375  20.639  1.00  0.00    -0.326 N 
ATOM      3  H2  UNL     1      27.816  42.869  21.269  1.00  0.00     0.169 HD
HETATM    4  C4  UNL     1      27.994  42.081  19.383  1.00  0.00     0.130 A 
HETATM    5  N3  UNL     1      26.822  42.391  18.964  1.00  0.00    -0.372 N 
ATOM      6  H3  UNL     1      26.548  42.140  18.015  1.00  0.00     0.161 HD
HETATM    7  C10 UNL     1      28.793  41.420  18.485  1.00  0.00     0.080 A 
HETATM    8  C14 UNL     1      30.054  41.073  18.908  1.00  0.00    -0.013 A 
HETATM    9  C15 UNL     1      30.937  40.418  17.901  1.00  0.00     0.052 C 
HETATM   10  C16 UNL     1      30.503  41.379  20.205  1.00  0.00     0.081 A 
ENDROOT
BRANCH   5  11
HETATM   11  C5  UNL     1      25.891  43.083  19.806  1.00  0.00     0.155 C 
BRANCH  11  12
HETATM   12  C6  UNL     1      24.666  43.579  19.077  1.00  0.00     0.163 C 
HETATM   13  C7  UNL     1      24.928  43.481  17.608  1.00  0.00     0.201 C 
HETATM   14  O2  UNL     1      25.846  44.434  17.172  1.00  0.00    -0.386 OA
HETATM   15  C8  UNL     1      25.337  45.674  17.473  1.00  0.00     0.193 C 
HETATM   16  C9  UNL     1      25.188  45.839  18.954  1.00  0.00     0.194 C 
HETATM   17  O3  UNL     1      24.366  44.876  19.499  1.00  0.00    -0.380 OA
ENDBRANCH  11  12
ENDBRANCH   5  11
BRANCH   7  18
HETATM   18  N4  UNL     1      28.302  41.121  17.172  1.00  0.00    -0.383 N 
ATOM     19  H4  UNL     1      27.720  40.289  17.071  1.00  0.00     0.160 HD
BRANCH  18  20
HETATM   20  C11 UNL     1      28.554  41.879  16.009  1.00  0.00     0.073 C 
HETATM   21  C12 UNL     1      29.018  43.271  16.131  1.00  0.00     0.031 C 
HETATM   22  C13 UNL     1      27.283  41.869  15.147  1.00  0.00     0.031 C 
ENDBRANCH  18  20
ENDBRANCH   7  18
BRANCH   1  23
HETATM   23  N1  UNL     1      30.134  42.552  22.360  1.00  0.00    -0.326 N 
HETATM   24  C2  UNL     1      31.175  43.359  22.720  1.00  0.00     0.112 C 
HETATM   25  C1  UNL     1      32.081  44.118  21.877  1.00  0.00     0.097 C 
ATOM     26  H1  UNL     1      29.573  42.235  23.151  1.00  0.00     0.169 HD
BRANCH  24  27
HETATM   27  O1  UNL     1      31.407  43.490  23.993  1.00  0.00    -0.350 OA
ATOM     28  H1  UNL     1      32.317  43.670  24.201  1.00  0.00     0.219 HD
ENDBRANCH  24  27
ENDBRANCH   1  23
BRANCH  10  29
HETATM   29  C17 UNL     1      31.748  40.849  20.662  1.00  0.00     0.269 C 
HETATM   30  N5  UNL     1      33.053  41.106  20.141  1.00  0.00    -0.057 NA
HETATM   31  O4  UNL     1      31.789  40.043  21.647  1.00  0.00    -0.271 OA
ENDBRANCH  10  29
TORSDOF 7
ENDMDL
