MODEL 1
REMARK VINA RESULT: -8.196703602      0.000      0.000
REMARK  9 active torsions:
REMARK  status: ('A' for Active; 'I' for Inactive)
REMARK    1  A    between atoms: O1_2  and  C2_3 
REMARK    2  A    between atoms: C2_3  and  O2_4 
REMARK    3  A    between atoms: C2_3  and  C3_6 
REMARK    4  A    between atoms: C3_6  and  C4_7 
REMARK    5  A    between atoms: C3_6  and  N1_15 
REMARK    6  A    between atoms: C4_7  and  O3_8 
REMARK    7  A    between atoms: O3_8  and  C5_9 
REMARK       I    between atoms: N1_15  and  C11_17 
REMARK    8  A    between atoms: C11_17  and  C12_19 
REMARK    9  A    between atoms: C15_24  and  N3_25 
ROOT
HETATM    1  N1  UNL     1       3.549   3.574   7.808  1.00  0.00    -0.344 N 
ATOM      2  H1  UNL     1       3.315   2.770   8.391  1.00  0.00     0.163 HD
HETATM    3  C11 UNL     1       3.303   4.890   8.302  1.00  0.00     0.269 C 
HETATM    4  O4  UNL     1       3.594   5.861   7.574  1.00  0.00    -0.266 OA
ENDROOT
BRANCH   1   5
HETATM    5  C3  UNL     1       4.123   3.357   6.498  1.00  0.00     0.164 C 
BRANCH   5   6
HETATM    6  C2  UNL     1       3.428   2.210   5.775  1.00  0.00     0.280 C 
BRANCH   6   7
HETATM    7  O1  UNL     1       2.405   2.753   5.036  1.00  0.00    -0.364 OA
HETATM    8  C1  UNL     1       2.808   3.218   3.793  1.00  0.00     0.204 C 
ENDBRANCH   6   7
BRANCH   6   9
HETATM    9  O2  UNL     1       2.850   1.414   6.770  1.00  0.00    -0.369 OA
ATOM     10  H2  UNL     1       2.968   1.864   7.598  1.00  0.00     0.212 HD
ENDBRANCH   6   9
ENDBRANCH   5   6
BRANCH   5  11
HETATM   11  C4  UNL     1       5.604   3.082   6.653  1.00  0.00     0.205 C 
BRANCH  11  12
HETATM   12  O3  UNL     1       6.115   2.283   5.629  1.00  0.00    -0.349 OA
BRANCH  12  13
HETATM   13  C5  UNL     1       6.808   2.903   4.597  1.00  0.00     0.068 A 
HETATM   14  C6  UNL     1       7.755   3.884   4.835  1.00  0.00     0.037 A 
HETATM   15  C7  UNL     1       8.459   4.518   3.836  1.00  0.00     0.003 A 
HETATM   16  C8  UNL     1       8.209   4.159   2.533  1.00  0.00     0.000 A 
HETATM   17  C9  UNL     1       7.271   3.185   2.260  1.00  0.00     0.003 A 
HETATM   18  C10 UNL     1       6.576   2.561   3.272  1.00  0.00     0.037 A 
ENDBRANCH  12  13
ENDBRANCH  11  12
ENDBRANCH   5  11
ENDBRANCH   1   5
BRANCH   3  19
HETATM   19  C12 UNL     1       2.724   5.119   9.622  1.00  0.00     0.118 A 
HETATM   20  C13 UNL     1       1.889   6.191   9.807  1.00  0.00     0.053 A 
HETATM   21  C14 UNL     1       1.357   6.383  11.064  1.00  0.00     0.108 A 
HETATM   22  N2  UNL     1       1.655   5.542  12.058  1.00  0.00    -0.202 N 
HETATM   23  C15 UNL     1       2.469   4.498  11.871  1.00  0.00     0.676 A 
ATOM     24  H2  UNL     1       1.252   5.699  12.981  1.00  0.00     0.183 HD
HETATM   25  N4  UNL     1       3.003   4.288  10.653  1.00  0.00    -0.187 N 
ATOM     26  H4  UNL     1       3.625   3.493  10.505  1.00  0.00     0.184 HD
BRANCH  23  27
HETATM   27  N3  UNL     1       2.753   3.686  12.846  1.00  0.00    -0.234 N 
ATOM     28  H32 UNL     1       3.136   4.056  13.715  1.00  0.00     0.174 HD
ATOM     29  H31 UNL     1       2.598   2.681  12.756  1.00  0.00     0.174 HD
ENDBRANCH  23  27
ENDBRANCH   3  19
TORSDOF 9
ENDMDL
MODEL 2
REMARK VINA RESULT: -8.072452454      1.063      1.325
REMARK  9 active torsions:
REMARK  status: ('A' for Active; 'I' for Inactive)
REMARK    1  A    between atoms: O1_2  and  C2_3 
REMARK    2  A    between atoms: C2_3  and  O2_4 
REMARK    3  A    between atoms: C2_3  and  C3_6 
REMARK    4  A    between atoms: C3_6  and  C4_7 
REMARK    5  A    between atoms: C3_6  and  N1_15 
REMARK    6  A    between atoms: C4_7  and  O3_8 
REMARK    7  A    between atoms: O3_8  and  C5_9 
REMARK       I    between atoms: N1_15  and  C11_17 
REMARK    8  A    between atoms: C11_17  and  C12_19 
REMARK    9  A    between atoms: C15_24  and  N3_25 
ROOT
HETATM    1  N1  UNL     1       3.249   3.910   6.707  1.00  0.00    -0.344 N 
ATOM      2  H1  UNL     1       2.257   3.677   6.760  1.00  0.00     0.163 HD
HETATM    3  C11 UNL     1       3.872   4.571   7.808  1.00  0.00     0.269 C 
HETATM    4  O4  UNL     1       5.085   4.848   7.725  1.00  0.00    -0.266 OA
ENDROOT
BRANCH   1   5
HETATM    5  C3  UNL     1       3.996   3.565   5.517  1.00  0.00     0.164 C 
BRANCH   5   6
HETATM    6  C2  UNL     1       3.143   3.726   4.265  1.00  0.00     0.280 C 
BRANCH   6   7
HETATM    7  O1  UNL     1       2.517   4.946   4.351  1.00  0.00    -0.364 OA
HETATM    8  C1  UNL     1       3.282   5.995   3.862  1.00  0.00     0.204 C 
ENDBRANCH   6   7
BRANCH   6   9
HETATM    9  O2  UNL     1       2.152   2.740   4.338  1.00  0.00    -0.369 OA
ATOM     10  H2  UNL     1       2.552   1.917   4.082  1.00  0.00     0.212 HD
ENDBRANCH   6   9
ENDBRANCH   5   6
BRANCH   5  11
HETATM   11  C4  UNL     1       4.498   2.143   5.651  1.00  0.00     0.205 C 
BRANCH  11  12
HETATM   12  O3  UNL     1       5.892   2.059   5.646  1.00  0.00    -0.349 OA
BRANCH  12  13
HETATM   13  C5  UNL     1       6.583   2.673   4.609  1.00  0.00     0.068 A 
HETATM   14  C6  UNL     1       7.454   3.726   4.831  1.00  0.00     0.037 A 
HETATM   15  C7  UNL     1       8.154   4.356   3.827  1.00  0.00     0.003 A 
HETATM   16  C8  UNL     1       7.980   3.917   2.536  1.00  0.00     0.000 A 
HETATM   17  C9  UNL     1       7.120   2.869   2.280  1.00  0.00     0.003 A 
HETATM   18  C10 UNL     1       6.427   2.251   3.297  1.00  0.00     0.037 A 
ENDBRANCH  12  13
ENDBRANCH  11  12
ENDBRANCH   5  11
ENDBRANCH   1   5
BRANCH   3  19
HETATM   19  C12 UNL     1       3.127   4.923   9.013  1.00  0.00     0.118 A 
HETATM   20  C13 UNL     1       2.269   5.992   8.977  1.00  0.00     0.053 A 
HETATM   21  C14 UNL     1       1.578   6.302  10.129  1.00  0.00     0.108 A 
HETATM   22  N2  UNL     1       1.750   5.573  11.235  1.00  0.00    -0.202 N 
HETATM   23  C15 UNL     1       2.587   4.532  11.263  1.00  0.00     0.676 A 
ATOM     24  H2  UNL     1       1.230   5.817  12.077  1.00  0.00     0.183 HD
HETATM   25  N4  UNL     1       3.275   4.208  10.151  1.00  0.00    -0.187 N 
ATOM     26  H4  UNL     1       3.915   3.414  10.169  1.00  0.00     0.184 HD
BRANCH  23  27
HETATM   27  N3  UNL     1       2.748   3.829  12.345  1.00  0.00    -0.234 N 
ATOM     28  H32 UNL     1       3.687   3.558  12.636  1.00  0.00     0.174 HD
ATOM     29  H31 UNL     1       1.948   3.544  12.911  1.00  0.00     0.174 HD
ENDBRANCH  23  27
ENDBRANCH   3  19
TORSDOF 9
ENDMDL
MODEL 3
REMARK VINA RESULT: -8.022899581      3.894      5.933
REMARK  9 active torsions:
REMARK  status: ('A' for Active; 'I' for Inactive)
REMARK    1  A    between atoms: O1_2  and  C2_3 
REMARK    2  A    between atoms: C2_3  and  O2_4 
REMARK    3  A    between atoms: C2_3  and  C3_6 
REMARK    4  A    between atoms: C3_6  and  C4_7 
REMARK    5  A    between atoms: C3_6  and  N1_15 
REMARK    6  A    between atoms: C4_7  and  O3_8 
REMARK    7  A    between atoms: O3_8  and  C5_9 
REMARK       I    between atoms: N1_15  and  C11_17 
REMARK    8  A    between atoms: C11_17  and  C12_19 
REMARK    9  A    between atoms: C15_24  and  N3_25 
ROOT
HETATM    1  N1  UNL     1       4.421   8.185  10.505  1.00  0.00    -0.344 N 
ATOM      2  H1  UNL     1       3.632   8.826  10.426  1.00  0.00     0.163 HD
HETATM    3  C11 UNL     1       4.244   6.937  11.175  1.00  0.00     0.269 C 
HETATM    4  O4  UNL     1       5.221   6.166  11.263  1.00  0.00    -0.266 OA
ENDROOT
BRANCH   1   5
HETATM    5  C3  UNL     1       5.699   8.559   9.937  1.00  0.00     0.164 C 
BRANCH   5   6
HETATM    6  C2  UNL     1       6.070   9.988  10.308  1.00  0.00     0.280 C 
BRANCH   6   7
HETATM    7  O1  UNL     1       7.420  10.128  10.095  1.00  0.00    -0.364 OA
HETATM    8  C1  UNL     1       7.799  11.429   9.794  1.00  0.00     0.204 C 
ENDBRANCH   6   7
BRANCH   6   9
HETATM    9  O2  UNL     1       5.849  10.105  11.686  1.00  0.00    -0.369 OA
ATOM     10  H2  UNL     1       5.582   9.251  12.003  1.00  0.00     0.212 HD
ENDBRANCH   6   9
ENDBRANCH   5   6
BRANCH   5  11
HETATM   11  C4  UNL     1       5.631   8.390   8.434  1.00  0.00     0.205 C 
BRANCH  11  12
HETATM   12  O3  UNL     1       5.749   7.057   8.034  1.00  0.00    -0.349 OA
BRANCH  12  13
HETATM   13  C5  UNL     1       4.775   6.535   7.192  1.00  0.00     0.068 A 
HETATM   14  C6  UNL     1       4.819   6.716   5.820  1.00  0.00     0.037 A 
HETATM   15  C7  UNL     1       3.871   6.213   4.958  1.00  0.00     0.003 A 
HETATM   16  C8  UNL     1       2.825   5.492   5.486  1.00  0.00     0.000 A 
HETATM   17  C9  UNL     1       2.752   5.293   6.850  1.00  0.00     0.003 A 
HETATM   18  C10 UNL     1       3.710   5.805   7.698  1.00  0.00     0.037 A 
ENDBRANCH  12  13
ENDBRANCH  11  12
ENDBRANCH   5  11
ENDBRANCH   1   5
BRANCH   3  19
HETATM   19  C12 UNL     1       2.960   6.552  11.752  1.00  0.00     0.118 A 
HETATM   20  C13 UNL     1       1.805   6.921  11.113  1.00  0.00     0.053 A 
HETATM   21  C14 UNL     1       0.606   6.543  11.679  1.00  0.00     0.108 A 
HETATM   22  N2  UNL     1       0.589   5.840  12.814  1.00  0.00    -0.202 N 
HETATM   23  C15 UNL     1       1.719   5.482  13.432  1.00  0.00     0.676 A 
ATOM     24  H2  UNL     1      -0.306   5.569  13.219  1.00  0.00     0.183 HD
HETATM   25  N4  UNL     1       2.904   5.839  12.900  1.00  0.00    -0.187 N 
ATOM     26  H4  UNL     1       3.769   5.568  13.369  1.00  0.00     0.184 HD
BRANCH  23  27
HETATM   27  N3  UNL     1       1.692   4.797  14.538  1.00  0.00    -0.234 N 
ATOM     28  H32 UNL     1       2.199   3.915  14.597  1.00  0.00     0.174 HD
ATOM     29  H31 UNL     1       1.170   5.129  15.349  1.00  0.00     0.174 HD
ENDBRANCH  23  27
ENDBRANCH   3  19
TORSDOF 9
ENDMDL
MODEL 4
REMARK VINA RESULT: -7.985491648      3.896      6.012
REMARK  9 active torsions:
REMARK  status: ('A' for Active; 'I' for Inactive)
REMARK    1  A    between atoms: O1_2  and  C2_3 
REMARK    2  A    between atoms: C2_3  and  O2_4 
REMARK    3  A    between atoms: C2_3  and  C3_6 
REMARK    4  A    between atoms: C3_6  and  C4_7 
REMARK    5  A    between atoms: C3_6  and  N1_15 
REMARK    6  A    between atoms: C4_7  and  O3_8 
REMARK    7  A    between atoms: O3_8  and  C5_9 
REMARK       I    between atoms: N1_15  and  C11_17 
REMARK    8  A    between atoms: C11_17  and  C12_19 
REMARK    9  A    between atoms: C15_24  and  N3_25 
ROOT
HETATM    1  N1  UNL     1       4.646   8.152  10.414  1.00  0.00    -0.344 N 
ATOM      2  H1  UNL     1       3.852   8.791  10.367  1.00  0.00     0.163 HD
HETATM    3  C11 UNL     1       4.503   6.909  11.100  1.00  0.00     0.269 C 
HETATM    4  O4  UNL     1       5.485   6.140  11.147  1.00  0.00    -0.266 OA
ENDROOT
BRANCH   1   5
HETATM    5  C3  UNL     1       5.894   8.523   9.782  1.00  0.00     0.164 C 
BRANCH   5   6
HETATM    6  C2  UNL     1       6.280   9.955  10.127  1.00  0.00     0.280 C 
BRANCH   6   7
HETATM    7  O1  UNL     1       7.636  10.069   9.939  1.00  0.00    -0.364 OA
HETATM    8  C1  UNL     1       8.005  11.228   9.272  1.00  0.00     0.204 C 
ENDBRANCH   6   7
BRANCH   6   9
HETATM    9  O2  UNL     1       6.033  10.109  11.496  1.00  0.00    -0.369 OA
ATOM     10  H2  UNL     1       6.783   9.756  11.960  1.00  0.00     0.212 HD
ENDBRANCH   6   9
ENDBRANCH   5   6
BRANCH   5  11
HETATM   11  C4  UNL     1       5.755   8.345   8.285  1.00  0.00     0.205 C 
BRANCH  11  12
HETATM   12  O3  UNL     1       5.820   7.007   7.892  1.00  0.00    -0.349 OA
BRANCH  12  13
HETATM   13  C5  UNL     1       4.812   6.512   7.074  1.00  0.00     0.068 A 
HETATM   14  C6  UNL     1       4.807   6.725   5.707  1.00  0.00     0.037 A 
HETATM   15  C7  UNL     1       3.824   6.250   4.868  1.00  0.00     0.003 A 
HETATM   16  C8  UNL     1       2.792   5.526   5.417  1.00  0.00     0.000 A 
HETATM   17  C9  UNL     1       2.766   5.294   6.777  1.00  0.00     0.003 A 
HETATM   18  C10 UNL     1       3.759   5.778   7.601  1.00  0.00     0.037 A 
ENDBRANCH  12  13
ENDBRANCH  11  12
ENDBRANCH   5  11
ENDBRANCH   1   5
BRANCH   3  19
HETATM   19  C12 UNL     1       3.248   6.525  11.740  1.00  0.00     0.118 A 
HETATM   20  C13 UNL     1       3.279   5.650  12.796  1.00  0.00     0.053 A 
HETATM   21  C14 UNL     1       2.079   5.306  13.381  1.00  0.00     0.108 A 
HETATM   22  N2  UNL     1       0.934   5.817  12.923  1.00  0.00    -0.202 N 
HETATM   23  C15 UNL     1       0.911   6.670  11.893  1.00  0.00     0.676 A 
ATOM     24  H2  UNL     1       0.056   5.551  13.368  1.00  0.00     0.183 HD
HETATM   25  N4  UNL     1       2.069   7.022  11.303  1.00  0.00    -0.187 N 
ATOM     26  H4  UNL     1       2.056   7.672  10.517  1.00  0.00     0.184 HD
BRANCH  23  27
HETATM   27  N3  UNL     1      -0.210   7.161  11.454  1.00  0.00    -0.234 N 
ATOM     28  H32 UNL     1      -0.253   8.137  11.163  1.00  0.00     0.174 HD
ATOM     29  H31 UNL     1      -1.050   6.585  11.395  1.00  0.00     0.174 HD
ENDBRANCH  23  27
ENDBRANCH   3  19
TORSDOF 9
ENDMDL
MODEL 5
REMARK VINA RESULT: -7.912550475      1.307      1.882
REMARK  9 active torsions:
REMARK  status: ('A' for Active; 'I' for Inactive)
REMARK    1  A    between atoms: O1_2  and  C2_3 
REMARK    2  A    between atoms: C2_3  and  O2_4 
REMARK    3  A    between atoms: C2_3  and  C3_6 
REMARK    4  A    between atoms: C3_6  and  C4_7 
REMARK    5  A    between atoms: C3_6  and  N1_15 
REMARK    6  A    between atoms: C4_7  and  O3_8 
REMARK    7  A    between atoms: O3_8  and  C5_9 
REMARK       I    between atoms: N1_15  and  C11_17 
REMARK    8  A    between atoms: C11_17  and  C12_19 
REMARK    9  A    between atoms: C15_24  and  N3_25 
ROOT
HETATM    1  N1  UNL     1       3.540   3.592   7.781  1.00  0.00    -0.344 N 
ATOM      2  H1  UNL     1       3.192   2.790   8.308  1.00  0.00     0.163 HD
HETATM    3  C11 UNL     1       3.406   4.902   8.332  1.00  0.00     0.269 C 
HETATM    4  O4  UNL     1       3.836   5.870   7.672  1.00  0.00    -0.266 OA
ENDROOT
BRANCH   1   5
HETATM    5  C3  UNL     1       4.158   3.378   6.490  1.00  0.00     0.164 C 
BRANCH   5   6
HETATM    6  C2  UNL     1       3.446   2.278   5.714  1.00  0.00     0.280 C 
BRANCH   6   7
HETATM    7  O1  UNL     1       2.380   2.857   5.068  1.00  0.00    -0.364 OA
HETATM    8  C1  UNL     1       2.748   3.880   4.206  1.00  0.00     0.204 C 
ENDBRANCH   6   7
BRANCH   6   9
HETATM    9  O2  UNL     1       2.927   1.397   6.670  1.00  0.00    -0.369 OA
ATOM     10  H2  UNL     1       1.990   1.547   6.715  1.00  0.00     0.212 HD
ENDBRANCH   6   9
ENDBRANCH   5   6
BRANCH   5  11
HETATM   11  C4  UNL     1       5.618   3.036   6.699  1.00  0.00     0.205 C 
BRANCH  11  12
HETATM   12  O3  UNL     1       6.431   3.475   5.653  1.00  0.00    -0.349 OA
BRANCH  12  13
HETATM   13  C5  UNL     1       7.403   4.428   5.931  1.00  0.00     0.068 A 
HETATM   14  C6  UNL     1       7.548   4.979   7.192  1.00  0.00     0.037 A 
HETATM   15  C7  UNL     1       8.499   5.925   7.502  1.00  0.00     0.003 A 
HETATM   16  C8  UNL     1       9.351   6.344   6.507  1.00  0.00     0.000 A 
HETATM   17  C9  UNL     1       9.233   5.814   5.238  1.00  0.00     0.003 A 
HETATM   18  C10 UNL     1       8.275   4.869   4.946  1.00  0.00     0.037 A 
ENDBRANCH  12  13
ENDBRANCH  11  12
ENDBRANCH   5  11
ENDBRANCH   1   5
BRANCH   3  19
HETATM   19  C12 UNL     1       2.784   5.127   9.633  1.00  0.00     0.118 A 
HETATM   20  C13 UNL     1       1.921   6.182   9.785  1.00  0.00     0.053 A 
HETATM   21  C14 UNL     1       1.348   6.371  11.024  1.00  0.00     0.108 A 
HETATM   22  N2  UNL     1       1.635   5.544  12.033  1.00  0.00    -0.202 N 
HETATM   23  C15 UNL     1       2.476   4.516  11.878  1.00  0.00     0.676 A 
ATOM     24  H2  UNL     1       1.201   5.699  12.943  1.00  0.00     0.183 HD
HETATM   25  N4  UNL     1       3.050   4.310  10.677  1.00  0.00    -0.187 N 
ATOM     26  H4  UNL     1       3.693   3.527  10.554  1.00  0.00     0.184 HD
BRANCH  23  27
HETATM   27  N3  UNL     1       2.748   3.717  12.866  1.00  0.00    -0.234 N 
ATOM     28  H32 UNL     1       2.904   2.726  12.685  1.00  0.00     0.174 HD
ATOM     29  H31 UNL     1       2.810   4.066  13.823  1.00  0.00     0.174 HD
ENDBRANCH  23  27
ENDBRANCH   3  19
TORSDOF 9
ENDMDL
