MODEL 1
REMARK VINA RESULT: -7.524635610      0.000      0.000
REMARK  9 active torsions:
REMARK  status: ('A' for Active; 'I' for Inactive)
REMARK    1  A    between atoms: C2_2  and  C4_4 
REMARK    2  A    between atoms: C4_4  and  N1_5 
REMARK    3  A    between atoms: C4_4  and  C6_9 
REMARK    4  A    between atoms: N1_5  and  C5_7 
REMARK       I    between atoms: C6_9  and  N2_11 
REMARK    5  A    between atoms: N2_11  and  C7_13 
REMARK    6  A    between atoms: C7_13  and  C8_14 
REMARK    7  A    between atoms: C7_13  and  C11_26 
REMARK    8  A    between atoms: C8_14  and  C9_16 
REMARK    9  A    between atoms: C10_23  and  O4_24 
ROOT
HETATM    1  C7  UNL     1       4.198   6.224  10.495  1.00  0.00     0.168 C 
ENDROOT
BRANCH   1   2
HETATM    2  N2  UNL     1       4.407   7.590   9.931  1.00  0.00    -0.347 N 
HETATM    3  C6  UNL     1       5.526   8.354  10.257  1.00  0.00     0.241 C 
HETATM    4  O2  UNL     1       6.361   7.817  11.071  1.00  0.00    -0.271 OA
ATOM      5  H2  UNL     1       3.713   7.974   9.290  1.00  0.00     0.163 HD
BRANCH   3   6
HETATM    6  C4  UNL     1       5.837   9.691   9.766  1.00  0.00     0.179 C 
BRANCH   6   7
HETATM    7  C2  UNL     1       5.568   9.959   8.325  1.00  0.00     0.009 C 
HETATM    8  C1  UNL     1       6.274   9.130   7.324  1.00  0.00     0.012 C 
HETATM    9  C3  UNL     1       5.837  11.440   8.040  1.00  0.00     0.012 C 
ENDBRANCH   6   7
BRANCH   6  10
HETATM   10  N1  UNL     1       5.077  10.708  10.522  1.00  0.00    -0.355 N 
ATOM     11  H1  UNL     1       4.122  10.945  10.252  1.00  0.00     0.162 HD
BRANCH  10  12
HETATM   12  C5  UNL     1       5.686  11.347  11.617  1.00  0.00     0.349 C 
HETATM   13  O1  UNL     1       6.891  11.716  11.650  1.00  0.00    -0.284 OA
ENDBRANCH  10  12
ENDBRANCH   6  10
ENDBRANCH   3   6
ENDBRANCH   1   2
BRANCH   1  14
HETATM   14  C8  UNL     1       2.852   6.256  11.091  1.00  0.00     0.204 C 
HETATM   15  O3  UNL     1       1.911   6.904  10.513  1.00  0.00    -0.288 OA
BRANCH  14  16
HETATM   16  C9  UNL     1       2.473   5.598  12.331  1.00  0.00     0.149 A 
HETATM   17  N3  UNL     1       2.924   4.438  12.836  1.00  0.00    -0.279 N 
HETATM   18  N4  UNL     1       2.389   4.161  13.995  1.00  0.00    -0.240 N 
ATOM     19  H3  UNL     1       3.607   3.843  12.368  1.00  0.00     0.189 HD
HETATM   20  N5  UNL     1       1.556   5.161  14.277  1.00  0.00    -0.264 N 
ATOM     21  H4  UNL     1       2.573   3.339  14.570  1.00  0.00     0.208 HD
HETATM   22  C10 UNL     1       1.575   6.057  13.291  1.00  0.00     0.188 A 
ATOM     23  H5  UNL     1       0.988   5.231  15.121  1.00  0.00     0.190 HD
BRANCH  22  24
HETATM   24  O4  UNL     1       0.857   7.239  13.193  1.00  0.00    -0.343 OA
ATOM     25  H4  UNL     1       0.794   7.889  13.883  1.00  0.00     0.219 HD
ENDBRANCH  22  24
ENDBRANCH  14  16
ENDBRANCH   1  14
BRANCH   1  26
HETATM   26  C11 UNL     1       4.148   5.328   9.254  1.00  0.00    -0.024 C 
HETATM   27  C12 UNL     1       3.870   6.100   8.006  1.00  0.00     0.017 C 
HETATM   28  C13 UNL     1       5.589   4.772   9.154  1.00  0.00     0.017 C 
HETATM   29  C14 UNL     1       3.211   4.181   9.372  1.00  0.00     0.017 C 
ENDBRANCH   1  26
TORSDOF 9
ENDMDL
MODEL 2
REMARK VINA RESULT: -7.423932874      2.702      5.044
REMARK  9 active torsions:
REMARK  status: ('A' for Active; 'I' for Inactive)
REMARK    1  A    between atoms: C2_2  and  C4_4 
REMARK    2  A    between atoms: C4_4  and  N1_5 
REMARK    3  A    between atoms: C4_4  and  C6_9 
REMARK    4  A    between atoms: N1_5  and  C5_7 
REMARK       I    between atoms: C6_9  and  N2_11 
REMARK    5  A    between atoms: N2_11  and  C7_13 
REMARK    6  A    between atoms: C7_13  and  C8_14 
REMARK    7  A    between atoms: C7_13  and  C11_26 
REMARK    8  A    between atoms: C8_14  and  C9_16 
REMARK    9  A    between atoms: C10_23  and  O4_24 
ROOT
HETATM    1  C7  UNL     1       3.980   6.986  10.085  1.00  0.00     0.168 C 
ENDROOT
BRANCH   1   2
HETATM    2  N2  UNL     1       4.364   6.080   8.964  1.00  0.00    -0.347 N 
HETATM    3  C6  UNL     1       3.407   5.436   8.180  1.00  0.00     0.241 C 
HETATM    4  O2  UNL     1       2.181   5.667   8.482  1.00  0.00    -0.271 OA
ATOM      5  H2  UNL     1       5.353   5.927   8.766  1.00  0.00     0.163 HD
BRANCH   3   6
HETATM    6  C4  UNL     1       3.664   4.538   7.062  1.00  0.00     0.179 C 
BRANCH   6   7
HETATM    7  C2  UNL     1       2.897   4.786   5.808  1.00  0.00     0.009 C 
HETATM    8  C1  UNL     1       2.818   3.689   4.818  1.00  0.00     0.012 C 
HETATM    9  C3  UNL     1       3.449   6.044   5.132  1.00  0.00     0.012 C 
ENDBRANCH   6   7
BRANCH   6  10
HETATM   10  N1  UNL     1       5.092   4.580   6.684  1.00  0.00    -0.355 N 
ATOM     11  H1  UNL     1       5.482   5.405   6.228  1.00  0.00     0.162 HD
BRANCH  10  12
HETATM   12  C5  UNL     1       5.909   3.467   6.959  1.00  0.00     0.349 C 
HETATM   13  O1  UNL     1       6.365   2.683   6.084  1.00  0.00    -0.284 OA
ENDBRANCH  10  12
ENDBRANCH   6  10
ENDBRANCH   3   6
ENDBRANCH   1   2
BRANCH   1  14
HETATM   14  C8  UNL     1       3.963   6.131  11.284  1.00  0.00     0.204 C 
HETATM   15  O3  UNL     1       4.901   5.283  11.478  1.00  0.00    -0.288 OA
BRANCH  14  16
HETATM   16  C9  UNL     1       2.934   6.155  12.311  1.00  0.00     0.149 A 
HETATM   17  N3  UNL     1       2.252   7.207  12.789  1.00  0.00    -0.279 N 
HETATM   18  N4  UNL     1       1.372   6.860  13.690  1.00  0.00    -0.240 N 
ATOM     19  H3  UNL     1       2.402   8.168  12.483  1.00  0.00     0.189 HD
HETATM   20  N5  UNL     1       1.466   5.537  13.821  1.00  0.00    -0.264 N 
ATOM     21  H4  UNL     1       0.738   7.480  14.194  1.00  0.00     0.208 HD
HETATM   22  C10 UNL     1       2.405   5.067  13.001  1.00  0.00     0.188 A 
ATOM     23  H5  UNL     1       0.903   4.970  14.454  1.00  0.00     0.190 HD
BRANCH  22  24
HETATM   24  O4  UNL     1       2.813   3.753  12.830  1.00  0.00    -0.343 OA
ATOM     25  H4  UNL     1       2.299   2.994  13.077  1.00  0.00     0.219 HD
ENDBRANCH  22  24
ENDBRANCH  14  16
ENDBRANCH   1  14
BRANCH   1  26
HETATM   26  C11 UNL     1       5.172   7.941  10.198  1.00  0.00    -0.024 C 
HETATM   27  C12 UNL     1       6.395   7.406   9.529  1.00  0.00     0.017 C 
HETATM   28  C13 UNL     1       4.709   9.189   9.409  1.00  0.00     0.017 C 
HETATM   29  C14 UNL     1       5.485   8.358  11.589  1.00  0.00     0.017 C 
ENDBRANCH   1  26
TORSDOF 9
ENDMDL
MODEL 3
REMARK VINA RESULT: -7.406819481      2.780      5.277
REMARK  9 active torsions:
REMARK  status: ('A' for Active; 'I' for Inactive)
REMARK    1  A    between atoms: C2_2  and  C4_4 
REMARK    2  A    between atoms: C4_4  and  N1_5 
REMARK    3  A    between atoms: C4_4  and  C6_9 
REMARK    4  A    between atoms: N1_5  and  C5_7 
REMARK       I    between atoms: C6_9  and  N2_11 
REMARK    5  A    between atoms: N2_11  and  C7_13 
REMARK    6  A    between atoms: C7_13  and  C8_14 
REMARK    7  A    between atoms: C7_13  and  C11_26 
REMARK    8  A    between atoms: C8_14  and  C9_16 
REMARK    9  A    between atoms: C10_23  and  O4_24 
ROOT
HETATM    1  C7  UNL     1       3.690   6.493   9.631  1.00  0.00     0.168 C 
ENDROOT
BRANCH   1   2
HETATM    2  N2  UNL     1       3.880   5.072   9.216  1.00  0.00    -0.347 N 
HETATM    3  C6  UNL     1       3.871   4.693   7.874  1.00  0.00     0.241 C 
HETATM    4  O2  UNL     1       3.685   5.635   7.022  1.00  0.00    -0.271 OA
ATOM      5  H2  UNL     1       4.022   4.360   9.932  1.00  0.00     0.163 HD
BRANCH   3   6
HETATM    6  C4  UNL     1       4.051   3.344   7.353  1.00  0.00     0.179 C 
BRANCH   6   7
HETATM    7  C2  UNL     1       2.927   2.771   6.561  1.00  0.00     0.009 C 
HETATM    8  C1  UNL     1       2.461   1.410   6.907  1.00  0.00     0.012 C 
HETATM    9  C3  UNL     1       3.295   2.820   5.075  1.00  0.00     0.012 C 
ENDBRANCH   6   7
BRANCH   6  10
HETATM   10  N1  UNL     1       5.242   3.284   6.479  1.00  0.00    -0.355 N 
ATOM     11  H1  UNL     1       5.141   3.084   5.484  1.00  0.00     0.162 HD
BRANCH  10  12
HETATM   12  C5  UNL     1       6.515   3.506   7.035  1.00  0.00     0.349 C 
HETATM   13  O1  UNL     1       7.578   2.968   6.623  1.00  0.00    -0.284 OA
ENDBRANCH  10  12
ENDBRANCH   6  10
ENDBRANCH   3   6
ENDBRANCH   1   2
BRANCH   1  14
HETATM   14  C8  UNL     1       2.628   6.457  10.651  1.00  0.00     0.204 C 
HETATM   15  O3  UNL     1       1.657   7.290  10.593  1.00  0.00    -0.288 OA
BRANCH  14  16
HETATM   16  C9  UNL     1       2.575   5.529  11.769  1.00  0.00     0.149 A 
HETATM   17  N3  UNL     1       2.788   4.203  11.768  1.00  0.00    -0.279 N 
HETATM   18  N4  UNL     1       2.692   3.685  12.963  1.00  0.00    -0.240 N 
ATOM     19  H3  UNL     1       3.002   3.663  10.930  1.00  0.00     0.189 HD
HETATM   20  N5  UNL     1       2.407   4.690  13.790  1.00  0.00    -0.264 N 
ATOM     21  H4  UNL     1       2.812   2.704  13.213  1.00  0.00     0.208 HD
HETATM   22  C10 UNL     1       2.326   5.830  13.105  1.00  0.00     0.188 A 
ATOM     23  H5  UNL     1       2.272   4.600  14.797  1.00  0.00     0.190 HD
BRANCH  22  24
HETATM   24  O4  UNL     1       2.050   7.101  13.587  1.00  0.00    -0.343 OA
ATOM     25  H4  UNL     1       2.331   7.428  14.433  1.00  0.00     0.219 HD
ENDBRANCH  22  24
ENDBRANCH  14  16
ENDBRANCH   1  14
BRANCH   1  26
HETATM   26  C11 UNL     1       5.008   6.842  10.329  1.00  0.00    -0.024 C 
HETATM   27  C12 UNL     1       5.792   5.627  10.704  1.00  0.00     0.017 C 
HETATM   28  C13 UNL     1       5.802   7.599   9.238  1.00  0.00     0.017 C 
HETATM   29  C14 UNL     1       4.853   7.740  11.502  1.00  0.00     0.017 C 
ENDBRANCH   1  26
TORSDOF 9
ENDMDL
MODEL 4
REMARK VINA RESULT: -7.295624628      3.527      5.839
REMARK  9 active torsions:
REMARK  status: ('A' for Active; 'I' for Inactive)
REMARK    1  A    between atoms: C2_2  and  C4_4 
REMARK    2  A    between atoms: C4_4  and  N1_5 
REMARK    3  A    between atoms: C4_4  and  C6_9 
REMARK    4  A    between atoms: N1_5  and  C5_7 
REMARK       I    between atoms: C6_9  and  N2_11 
REMARK    5  A    between atoms: N2_11  and  C7_13 
REMARK    6  A    between atoms: C7_13  and  C8_14 
REMARK    7  A    between atoms: C7_13  and  C11_26 
REMARK    8  A    between atoms: C8_14  and  C9_16 
REMARK    9  A    between atoms: C10_23  and  O4_24 
ROOT
HETATM    1  C7  UNL     1       3.737   6.145   8.957  1.00  0.00     0.168 C 
ENDROOT
BRANCH   1   2
HETATM    2  N2  UNL     1       4.167   5.008   8.092  1.00  0.00    -0.347 N 
HETATM    3  C6  UNL     1       4.049   5.057   6.703  1.00  0.00     0.241 C 
HETATM    4  O2  UNL     1       3.547   6.134   6.216  1.00  0.00    -0.271 OA
ATOM      5  H2  UNL     1       4.557   4.172   8.528  1.00  0.00     0.163 HD
BRANCH   3   6
HETATM    6  C4  UNL     1       4.439   4.015   5.763  1.00  0.00     0.179 C 
BRANCH   6   7
HETATM    7  C2  UNL     1       5.497   3.065   6.208  1.00  0.00     0.009 C 
HETATM    8  C1  UNL     1       6.861   3.599   6.418  1.00  0.00     0.012 C 
HETATM    9  C3  UNL     1       5.555   1.894   5.223  1.00  0.00     0.012 C 
ENDBRANCH   6   7
BRANCH   6  10
HETATM   10  N1  UNL     1       3.271   3.185   5.398  1.00  0.00    -0.355 N 
ATOM     11  H1  UNL     1       2.964   2.429   6.010  1.00  0.00     0.162 HD
BRANCH  10  12
HETATM   12  C5  UNL     1       2.587   3.451   4.197  1.00  0.00     0.349 C 
HETATM   13  O1  UNL     1       2.976   3.079   3.057  1.00  0.00    -0.284 OA
ENDBRANCH  10  12
ENDBRANCH   6  10
ENDBRANCH   3   6
ENDBRANCH   1   2
BRANCH   1  14
HETATM   14  C8  UNL     1       2.882   5.540   9.992  1.00  0.00     0.204 C 
HETATM   15  O3  UNL     1       2.946   4.282  10.220  1.00  0.00    -0.288 OA
BRANCH  14  16
HETATM   16  C9  UNL     1       1.927   6.265  10.814  1.00  0.00     0.149 A 
HETATM   17  N3  UNL     1       1.182   7.333  10.488  1.00  0.00    -0.279 N 
HETATM   18  N4  UNL     1       0.400   7.710  11.464  1.00  0.00    -0.240 N 
ATOM     19  H3  UNL     1       1.220   7.797   9.581  1.00  0.00     0.189 HD
HETATM   20  N5  UNL     1       0.627   6.871  12.475  1.00  0.00    -0.264 N 
ATOM     21  H4  UNL     1      -0.254   8.492  11.455  1.00  0.00     0.208 HD
HETATM   22  C10 UNL     1       1.549   5.977  12.123  1.00  0.00     0.188 A 
ATOM     23  H5  UNL     1       0.163   6.909  13.383  1.00  0.00     0.190 HD
BRANCH  22  24
HETATM   24  O4  UNL     1       2.066   4.936  12.880  1.00  0.00    -0.343 OA
ATOM     25  H4  UNL     1       2.655   4.270  12.546  1.00  0.00     0.219 HD
ENDBRANCH  22  24
ENDBRANCH  14  16
ENDBRANCH   1  14
BRANCH   1  26
HETATM   26  C11 UNL     1       5.039   6.602   9.621  1.00  0.00    -0.024 C 
HETATM   27  C12 UNL     1       6.072   5.524   9.650  1.00  0.00     0.017 C 
HETATM   28  C13 UNL     1       5.549   7.720   8.679  1.00  0.00     0.017 C 
HETATM   29  C14 UNL     1       4.857   7.181  10.977  1.00  0.00     0.017 C 
ENDBRANCH   1  26
TORSDOF 9
ENDMDL
MODEL 5
REMARK VINA RESULT: -7.277230387      2.832      5.409
REMARK  9 active torsions:
REMARK  status: ('A' for Active; 'I' for Inactive)
REMARK    1  A    between atoms: C2_2  and  C4_4 
REMARK    2  A    between atoms: C4_4  and  N1_5 
REMARK    3  A    between atoms: C4_4  and  C6_9 
REMARK    4  A    between atoms: N1_5  and  C5_7 
REMARK       I    between atoms: C6_9  and  N2_11 
REMARK    5  A    between atoms: N2_11  and  C7_13 
REMARK    6  A    between atoms: C7_13  and  C8_14 
REMARK    7  A    between atoms: C7_13  and  C11_26 
REMARK    8  A    between atoms: C8_14  and  C9_16 
REMARK    9  A    between atoms: C10_23  and  O4_24 
ROOT
HETATM    1  C7  UNL     1       3.428   6.479   9.815  1.00  0.00     0.168 C 
ENDROOT
BRANCH   1   2
HETATM    2  N2  UNL     1       3.605   5.096   9.283  1.00  0.00    -0.347 N 
HETATM    3  C6  UNL     1       3.575   4.827   7.915  1.00  0.00     0.241 C 
HETATM    4  O2  UNL     1       3.383   5.836   7.144  1.00  0.00    -0.271 OA
ATOM      5  H2  UNL     1       3.752   4.328   9.937  1.00  0.00     0.163 HD
BRANCH   3   6
HETATM    6  C4  UNL     1       3.741   3.524   7.284  1.00  0.00     0.179 C 
BRANCH   6   7
HETATM    7  C2  UNL     1       5.126   3.131   6.902  1.00  0.00     0.009 C 
HETATM    8  C1  UNL     1       6.234   4.029   7.299  1.00  0.00     0.012 C 
HETATM    9  C3  UNL     1       5.175   2.902   5.389  1.00  0.00     0.012 C 
ENDBRANCH   6   7
BRANCH   6  10
HETATM   10  N1  UNL     1       3.240   2.453   8.171  1.00  0.00    -0.355 N 
ATOM     11  H1  UNL     1       3.401   2.500   9.178  1.00  0.00     0.162 HD
BRANCH  10  12
HETATM   12  C5  UNL     1       2.539   1.369   7.612  1.00  0.00     0.349 C 
HETATM   13  O1  UNL     1       2.150   1.312   6.414  1.00  0.00    -0.284 OA
ENDBRANCH  10  12
ENDBRANCH   6  10
ENDBRANCH   3   6
ENDBRANCH   1   2
BRANCH   1  14
HETATM   14  C8  UNL     1       2.440   6.351  10.899  1.00  0.00     0.204 C 
HETATM   15  O3  UNL     1       1.452   7.162  10.963  1.00  0.00    -0.288 OA
BRANCH  14  16
HETATM   16  C9  UNL     1       2.485   5.352  11.955  1.00  0.00     0.149 A 
HETATM   17  N3  UNL     1       2.741   4.038  11.854  1.00  0.00    -0.279 N 
HETATM   18  N4  UNL     1       2.733   3.441  13.016  1.00  0.00    -0.240 N 
ATOM     19  H3  UNL     1       2.922   3.561  10.972  1.00  0.00     0.189 HD
HETATM   20  N5  UNL     1       2.465   4.380  13.922  1.00  0.00    -0.264 N 
ATOM     21  H4  UNL     1       2.899   2.451  13.194  1.00  0.00     0.208 HD
HETATM   22  C10 UNL     1       2.306   5.558  13.320  1.00  0.00     0.188 A 
ATOM     23  H5  UNL     1       2.392   4.221  14.927  1.00  0.00     0.190 HD
BRANCH  22  24
HETATM   24  O4  UNL     1       2.017   6.784  13.900  1.00  0.00    -0.343 OA
ATOM     25  H4  UNL     1       1.516   6.897  14.699  1.00  0.00     0.219 HD
ENDBRANCH  22  24
ENDBRANCH  14  16
ENDBRANCH   1  14
BRANCH   1  26
HETATM   26  C11 UNL     1       4.788   6.798  10.444  1.00  0.00    -0.024 C 
HETATM   27  C12 UNL     1       5.623   5.576  10.642  1.00  0.00     0.017 C 
HETATM   28  C13 UNL     1       5.481   7.676   9.375  1.00  0.00     0.017 C 
HETATM   29  C14 UNL     1       4.704   7.577  11.706  1.00  0.00     0.017 C 
ENDBRANCH   1  26
TORSDOF 9
ENDMDL
