MODEL 1
REMARK VINA RESULT: -8.456926334      0.000      0.000
REMARK  9 active torsions:
REMARK  status: ('A' for Active; 'I' for Inactive)
REMARK    1  A    between atoms: C2_2  and  C3_3 
REMARK    2  A    between atoms: C3_3  and  O1_4 
REMARK    3  A    between atoms: O1_4  and  C4_5 
REMARK    4  A    between atoms: C6_7  and  N1_8 
REMARK    5  A    between atoms: N1_8  and  C7_9 
REMARK    6  A    between atoms: C7_9  and  O2_11 
REMARK    7  A    between atoms: C8_13  and  N3_14 
REMARK    8  A    between atoms: C10_18  and  C11_19 
REMARK    9  A    between atoms: N4_20  and  N5_22 
ROOT
HETATM    1  C4  UNL     1       5.367   4.538   8.684  1.00  0.00     0.084 A 
HETATM    2  C5  UNL     1       5.784   3.914   7.489  1.00  0.00     0.085 A 
HETATM    3  C6  UNL     1       4.984   3.110   6.711  1.00  0.00     0.146 A 
HETATM    4  C8  UNL     1       3.671   2.931   7.171  1.00  0.00     0.144 A 
HETATM    5  C9  UNL     1       3.269   3.531   8.329  1.00  0.00     0.055 A 
HETATM    6  C10 UNL     1       4.076   4.322   9.092  1.00  0.00     0.017 A 
ENDROOT
BRANCH   6   7
HETATM    7  C11 UNL     1       3.537   4.896  10.350  1.00  0.00     0.121 C 
HETATM    8  N4  UNL     1       3.152   4.147  11.282  1.00  0.00    -0.309 N 
ATOM      9  H4  UNL     1       3.281   3.171  11.014  1.00  0.00     0.186 HD
BRANCH   8  10
HETATM   10  N5  UNL     1       2.639   4.211  12.487  1.00  0.00    -0.276 N 
HETATM   11  C12 UNL     1       2.622   5.100  13.405  1.00  0.00     0.215 C 
HETATM   12  N6  UNL     1       3.282   6.348  13.168  1.00  0.00    -0.065 NA
HETATM   13  N7  UNL     1       1.965   4.906  14.649  1.00  0.00    -0.065 NA
ATOM     14  H5  UNL     1       2.142   3.360  12.751  1.00  0.00     0.189 HD
ENDBRANCH   8  10
ENDBRANCH   6   7
BRANCH   1  15
HETATM   15  O1  UNL     1       6.198   5.346   9.435  1.00  0.00    -0.346 OA
BRANCH  15  16
HETATM   16  C3  UNL     1       6.694   6.590   9.157  1.00  0.00     0.202 C 
BRANCH  16  17
HETATM   17  C2  UNL     1       8.075   6.719   8.669  1.00  0.00    -0.011 C 
HETATM   18  C1  UNL     1       8.608   6.313   7.550  1.00  0.00     0.009 C 
ENDBRANCH  16  17
ENDBRANCH  15  16
ENDBRANCH   1  15
BRANCH   4  19
HETATM   19  N3  UNL     1       2.740   2.174   6.427  1.00  0.00    -0.112 N 
HETATM   20  O3  UNL     1       2.427   1.047   6.761  1.00  0.00    -0.532 OA
HETATM   21  O4  UNL     1       2.259   2.693   5.251  1.00  0.00    -0.532 OA
ENDBRANCH   4  19
BRANCH   3  22
HETATM   22  N1  UNL     1       5.442   2.357   5.636  1.00  0.00    -0.365 NA
BRANCH  22  23
HETATM   23  C7  UNL     1       5.878   1.639   4.611  1.00  0.00     0.306 C 
HETATM   24  N2  UNL     1       5.801   1.936   3.189  1.00  0.00    -0.042 NA
BRANCH  23  25
HETATM   25  O2  UNL     1       6.475   0.467   4.732  1.00  0.00    -0.324 OA
ATOM     26  H2  UNL     1       7.395   0.360   4.944  1.00  0.00     0.221 HD
ENDBRANCH  23  25
ENDBRANCH  22  23
ENDBRANCH   3  22
TORSDOF 9
ENDMDL
MODEL 2
REMARK VINA RESULT: -8.411389723      0.816      1.044
REMARK  9 active torsions:
REMARK  status: ('A' for Active; 'I' for Inactive)
REMARK    1  A    between atoms: C2_2  and  C3_3 
REMARK    2  A    between atoms: C3_3  and  O1_4 
REMARK    3  A    between atoms: O1_4  and  C4_5 
REMARK    4  A    between atoms: C6_7  and  N1_8 
REMARK    5  A    between atoms: N1_8  and  C7_9 
REMARK    6  A    between atoms: C7_9  and  O2_11 
REMARK    7  A    between atoms: C8_13  and  N3_14 
REMARK    8  A    between atoms: C10_18  and  C11_19 
REMARK    9  A    between atoms: N4_20  and  N5_22 
ROOT
HETATM    1  C4  UNL     1       5.196   4.599   9.084  1.00  0.00     0.084 A 
HETATM    2  C5  UNL     1       5.863   4.101   7.944  1.00  0.00     0.085 A 
HETATM    3  C6  UNL     1       5.263   3.353   6.957  1.00  0.00     0.146 A 
HETATM    4  C8  UNL     1       3.895   3.097   7.133  1.00  0.00     0.144 A 
HETATM    5  C9  UNL     1       3.252   3.575   8.239  1.00  0.00     0.055 A 
HETATM    6  C10 UNL     1       3.862   4.312   9.211  1.00  0.00     0.017 A 
ENDROOT
BRANCH   6   7
HETATM    7  C11 UNL     1       3.066   4.751  10.384  1.00  0.00     0.121 C 
HETATM    8  N4  UNL     1       3.173   4.160  11.487  1.00  0.00    -0.309 N 
ATOM      9  H4  UNL     1       3.851   3.402  11.407  1.00  0.00     0.186 HD
BRANCH   8  10
HETATM   10  N5  UNL     1       2.696   4.200  12.708  1.00  0.00    -0.276 N 
HETATM   11  C12 UNL     1       2.643   5.096  13.619  1.00  0.00     0.215 C 
HETATM   12  N6  UNL     1       3.202   6.385  13.348  1.00  0.00    -0.065 NA
HETATM   13  N7  UNL     1       2.044   4.868  14.885  1.00  0.00    -0.065 NA
ATOM     14  H5  UNL     1       2.272   3.318  12.997  1.00  0.00     0.189 HD
ENDBRANCH   8  10
ENDBRANCH   6   7
BRANCH   1  15
HETATM   15  O1  UNL     1       5.831   5.353  10.050  1.00  0.00    -0.346 OA
BRANCH  15  16
HETATM   16  C3  UNL     1       6.390   6.599   9.961  1.00  0.00     0.202 C 
BRANCH  16  17
HETATM   17  C2  UNL     1       7.774   6.732   9.486  1.00  0.00    -0.011 C 
HETATM   18  C1  UNL     1       8.428   7.793   9.101  1.00  0.00     0.009 C 
ENDBRANCH  16  17
ENDBRANCH  15  16
ENDBRANCH   1  15
BRANCH   4  19
HETATM   19  N3  UNL     1       3.159   2.390   6.159  1.00  0.00    -0.112 N 
HETATM   20  O3  UNL     1       2.952   2.860   5.056  1.00  0.00    -0.532 OA
HETATM   21  O4  UNL     1       2.585   1.193   6.506  1.00  0.00    -0.532 OA
ENDBRANCH   4  19
BRANCH   3  22
HETATM   22  N1  UNL     1       5.952   2.716   5.931  1.00  0.00    -0.365 NA
BRANCH  22  23
HETATM   23  C7  UNL     1       6.609   2.110   4.953  1.00  0.00     0.306 C 
HETATM   24  N2  UNL     1       6.081   1.447   3.770  1.00  0.00    -0.042 NA
BRANCH  23  25
HETATM   25  O2  UNL     1       7.924   1.997   4.907  1.00  0.00    -0.324 OA
ATOM     26  H2  UNL     1       8.418   1.865   4.106  1.00  0.00     0.221 HD
ENDBRANCH  23  25
ENDBRANCH  22  23
ENDBRANCH   3  22
TORSDOF 9
ENDMDL
MODEL 3
REMARK VINA RESULT: -8.400209262      1.134      1.595
REMARK  9 active torsions:
REMARK  status: ('A' for Active; 'I' for Inactive)
REMARK    1  A    between atoms: C2_2  and  C3_3 
REMARK    2  A    between atoms: C3_3  and  O1_4 
REMARK    3  A    between atoms: O1_4  and  C4_5 
REMARK    4  A    between atoms: C6_7  and  N1_8 
REMARK    5  A    between atoms: N1_8  and  C7_9 
REMARK    6  A    between atoms: C7_9  and  O2_11 
REMARK    7  A    between atoms: C8_13  and  N3_14 
REMARK    8  A    between atoms: C10_18  and  C11_19 
REMARK    9  A    between atoms: N4_20  and  N5_22 
ROOT
HETATM    1  C4  UNL     1       5.184   4.572   9.177  1.00  0.00     0.084 A 
HETATM    2  C5  UNL     1       5.867   4.091   8.040  1.00  0.00     0.085 A 
HETATM    3  C6  UNL     1       5.277   3.378   7.022  1.00  0.00     0.146 A 
HETATM    4  C8  UNL     1       3.902   3.142   7.162  1.00  0.00     0.144 A 
HETATM    5  C9  UNL     1       3.243   3.604   8.265  1.00  0.00     0.055 A 
HETATM    6  C10 UNL     1       3.843   4.305   9.268  1.00  0.00     0.017 A 
ENDROOT
BRANCH   6   7
HETATM    7  C11 UNL     1       3.029   4.729  10.435  1.00  0.00     0.121 C 
HETATM    8  N4  UNL     1       3.173   4.172  11.551  1.00  0.00    -0.309 N 
ATOM      9  H4  UNL     1       3.892   3.451  11.486  1.00  0.00     0.186 HD
BRANCH   8  10
HETATM   10  N5  UNL     1       2.700   4.216  12.774  1.00  0.00    -0.276 N 
HETATM   11  C12 UNL     1       2.563   5.140  13.647  1.00  0.00     0.215 C 
HETATM   12  N6  UNL     1       2.990   6.466  13.318  1.00  0.00    -0.065 NA
HETATM   13  N7  UNL     1       1.994   4.907  14.927  1.00  0.00    -0.065 NA
ATOM     14  H5  UNL     1       2.367   3.309  13.102  1.00  0.00     0.189 HD
ENDBRANCH   8  10
ENDBRANCH   6   7
BRANCH   1  15
HETATM   15  O1  UNL     1       5.811   5.291  10.176  1.00  0.00    -0.346 OA
BRANCH  15  16
HETATM   16  C3  UNL     1       6.308   6.565  10.156  1.00  0.00     0.202 C 
BRANCH  16  17
HETATM   17  C2  UNL     1       5.406   7.692  10.433  1.00  0.00    -0.011 C 
HETATM   18  C1  UNL     1       4.444   8.191   9.707  1.00  0.00     0.009 C 
ENDBRANCH  16  17
ENDBRANCH  15  16
ENDBRANCH   1  15
BRANCH   4  19
HETATM   19  N3  UNL     1       3.175   2.473   6.154  1.00  0.00    -0.112 N 
HETATM   20  O3  UNL     1       2.967   2.990   5.073  1.00  0.00    -0.532 OA
HETATM   21  O4  UNL     1       2.612   1.256   6.445  1.00  0.00    -0.532 OA
ENDBRANCH   4  19
BRANCH   3  22
HETATM   22  N1  UNL     1       5.977   2.755   5.995  1.00  0.00    -0.365 NA
BRANCH  22  23
HETATM   23  C7  UNL     1       6.644   2.162   5.015  1.00  0.00     0.306 C 
HETATM   24  N2  UNL     1       6.126   1.463   3.849  1.00  0.00    -0.042 NA
BRANCH  23  25
HETATM   25  O2  UNL     1       7.962   2.102   4.952  1.00  0.00    -0.324 OA
ATOM     26  H2  UNL     1       8.444   1.830   4.180  1.00  0.00     0.221 HD
ENDBRANCH  23  25
ENDBRANCH  22  23
ENDBRANCH   3  22
TORSDOF 9
ENDMDL
MODEL 4
REMARK VINA RESULT: -8.279906169      1.879      2.312
REMARK  9 active torsions:
REMARK  status: ('A' for Active; 'I' for Inactive)
REMARK    1  A    between atoms: C2_2  and  C3_3 
REMARK    2  A    between atoms: C3_3  and  O1_4 
REMARK    3  A    between atoms: O1_4  and  C4_5 
REMARK    4  A    between atoms: C6_7  and  N1_8 
REMARK    5  A    between atoms: N1_8  and  C7_9 
REMARK    6  A    between atoms: C7_9  and  O2_11 
REMARK    7  A    between atoms: C8_13  and  N3_14 
REMARK    8  A    between atoms: C10_18  and  C11_19 
REMARK    9  A    between atoms: N4_20  and  N5_22 
ROOT
HETATM    1  C4  UNL     1       4.810   4.300   8.174  1.00  0.00     0.084 A 
HETATM    2  C5  UNL     1       5.503   3.556   7.196  1.00  0.00     0.085 A 
HETATM    3  C6  UNL     1       5.016   3.279   5.939  1.00  0.00     0.146 A 
HETATM    4  C8  UNL     1       3.744   3.796   5.652  1.00  0.00     0.144 A 
HETATM    5  C9  UNL     1       3.072   4.512   6.600  1.00  0.00     0.055 A 
HETATM    6  C10 UNL     1       3.566   4.774   7.844  1.00  0.00     0.017 A 
ENDROOT
BRANCH   6   7
HETATM    7  C11 UNL     1       2.729   5.537   8.803  1.00  0.00     0.121 C 
HETATM    8  N4  UNL     1       2.513   5.093   9.958  1.00  0.00    -0.309 N 
ATOM      9  H4  UNL     1       2.988   4.198  10.076  1.00  0.00     0.186 HD
BRANCH   8  10
HETATM   10  N5  UNL     1       1.876   5.406  11.060  1.00  0.00    -0.276 N 
HETATM   11  C12 UNL     1       1.144   6.390  11.422  1.00  0.00     0.215 C 
HETATM   12  N6  UNL     1       0.900   7.446  10.487  1.00  0.00    -0.065 NA
HETATM   13  N7  UNL     1       0.554   6.473  12.710  1.00  0.00    -0.065 NA
ATOM     14  H5  UNL     1       1.989   4.707  11.795  1.00  0.00     0.189 HD
ENDBRANCH   8  10
ENDBRANCH   6   7
BRANCH   1  15
HETATM   15  O1  UNL     1       5.335   4.564   9.424  1.00  0.00    -0.346 OA
BRANCH  15  16
HETATM   16  C3  UNL     1       6.161   5.576   9.829  1.00  0.00     0.202 C 
BRANCH  16  17
HETATM   17  C2  UNL     1       5.778   6.395  10.989  1.00  0.00    -0.011 C 
HETATM   18  C1  UNL     1       5.062   7.484  11.045  1.00  0.00     0.009 C 
ENDBRANCH  16  17
ENDBRANCH  15  16
ENDBRANCH   1  15
BRANCH   4  19
HETATM   19  N3  UNL     1       3.165   3.627   4.376  1.00  0.00    -0.112 N 
HETATM   20  O3  UNL     1       3.547   4.269   3.416  1.00  0.00    -0.532 OA
HETATM   21  O4  UNL     1       2.084   2.792   4.248  1.00  0.00    -0.532 OA
ENDBRANCH   4  19
BRANCH   3  22
HETATM   22  N1  UNL     1       5.618   2.403   5.043  1.00  0.00    -0.365 NA
BRANCH  22  23
HETATM   23  C7  UNL     1       6.191   1.569   4.188  1.00  0.00     0.306 C 
HETATM   24  N2  UNL     1       6.278   1.661   2.739  1.00  0.00    -0.042 NA
BRANCH  23  25
HETATM   25  O2  UNL     1       6.797   0.450   4.543  1.00  0.00    -0.324 OA
ATOM     26  H2  UNL     1       7.520   0.410   5.158  1.00  0.00     0.221 HD
ENDBRANCH  23  25
ENDBRANCH  22  23
ENDBRANCH   3  22
TORSDOF 9
ENDMDL
MODEL 5
REMARK VINA RESULT: -8.261580209      1.521      1.784
REMARK  9 active torsions:
REMARK  status: ('A' for Active; 'I' for Inactive)
REMARK    1  A    between atoms: C2_2  and  C3_3 
REMARK    2  A    between atoms: C3_3  and  O1_4 
REMARK    3  A    between atoms: O1_4  and  C4_5 
REMARK    4  A    between atoms: C6_7  and  N1_8 
REMARK    5  A    between atoms: N1_8  and  C7_9 
REMARK    6  A    between atoms: C7_9  and  O2_11 
REMARK    7  A    between atoms: C8_13  and  N3_14 
REMARK    8  A    between atoms: C10_18  and  C11_19 
REMARK    9  A    between atoms: N4_20  and  N5_22 
ROOT
HETATM    1  C4  UNL     1       4.710   4.396   8.245  1.00  0.00     0.084 A 
HETATM    2  C5  UNL     1       5.399   3.625   7.285  1.00  0.00     0.085 A 
HETATM    3  C6  UNL     1       4.942   3.380   6.010  1.00  0.00     0.146 A 
HETATM    4  C8  UNL     1       3.707   3.960   5.685  1.00  0.00     0.144 A 
HETATM    5  C9  UNL     1       3.039   4.702   6.617  1.00  0.00     0.055 A 
HETATM    6  C10 UNL     1       3.504   4.932   7.877  1.00  0.00     0.017 A 
ENDROOT
BRANCH   6   7
HETATM    7  C11 UNL     1       2.673   5.729   8.814  1.00  0.00     0.121 C 
HETATM    8  N4  UNL     1       2.336   5.259   9.929  1.00  0.00    -0.309 N 
ATOM      9  H4  UNL     1       2.717   4.319  10.035  1.00  0.00     0.186 HD
BRANCH   8  10
HETATM   10  N5  UNL     1       1.653   5.584  11.000  1.00  0.00    -0.276 N 
HETATM   11  C12 UNL     1       1.948   6.130  12.118  1.00  0.00     0.215 C 
HETATM   12  N6  UNL     1       3.305   6.514  12.358  1.00  0.00    -0.065 NA
HETATM   13  N7  UNL     1       0.982   6.380  13.128  1.00  0.00    -0.065 NA
ATOM     14  H5  UNL     1       0.663   5.347  10.926  1.00  0.00     0.189 HD
ENDBRANCH   8  10
ENDBRANCH   6   7
BRANCH   1  15
HETATM   15  O1  UNL     1       5.206   4.626   9.513  1.00  0.00    -0.346 OA
BRANCH  15  16
HETATM   16  C3  UNL     1       5.979   5.655   9.978  1.00  0.00     0.202 C 
BRANCH  16  17
HETATM   17  C2  UNL     1       6.853   6.375   9.041  1.00  0.00    -0.011 C 
HETATM   18  C1  UNL     1       8.029   6.052   8.578  1.00  0.00     0.009 C 
ENDBRANCH  16  17
ENDBRANCH  15  16
ENDBRANCH   1  15
BRANCH   4  19
HETATM   19  N3  UNL     1       3.163   3.828   4.389  1.00  0.00    -0.112 N 
HETATM   20  O3  UNL     1       3.547   4.521   3.467  1.00  0.00    -0.532 OA
HETATM   21  O4  UNL     1       2.112   2.967   4.201  1.00  0.00    -0.532 OA
ENDBRANCH   4  19
BRANCH   3  22
HETATM   22  N1  UNL     1       5.529   2.481   5.128  1.00  0.00    -0.365 NA
BRANCH  22  23
HETATM   23  C7  UNL     1       6.090   1.624   4.286  1.00  0.00     0.306 C 
HETATM   24  N2  UNL     1       6.167   1.686   2.835  1.00  0.00    -0.042 NA
BRANCH  23  25
HETATM   25  O2  UNL     1       6.690   0.508   4.660  1.00  0.00    -0.324 OA
ATOM     26  H2  UNL     1       6.269  -0.342   4.673  1.00  0.00     0.221 HD
ENDBRANCH  23  25
ENDBRANCH  22  23
ENDBRANCH   3  22
TORSDOF 9
ENDMDL
