MODEL 1
REMARK VINA RESULT: -9.240876956      0.000      0.000
REMARK  9 active torsions:
REMARK  status: ('A' for Active; 'I' for Inactive)
REMARK    1  A    between atoms: C2_2  and  N1_3 
REMARK    2  A    between atoms: N1_3  and  C3_5 
REMARK    3  A    between atoms: C3_5  and  C4_9 
REMARK    4  A    between atoms: C4_9  and  N3_10 
REMARK    5  A    between atoms: C4_9  and  C5_14 
REMARK    6  A    between atoms: C5_14  and  C6_15 
REMARK    7  A    between atoms: C9_22  and  O1_23 
REMARK    8  A    between atoms: C9_22  and  C10_25 
REMARK    9  A    between atoms: C14_29  and  N6_30 
ROOT
HETATM    1  C3  UNL     1       3.784   2.742   5.960  1.00  0.00     0.106 C 
HETATM    2  N2  UNL     1       2.970   1.844   6.387  1.00  0.00    -0.387 N 
ATOM      3  H21 UNL     1       2.566   1.198   5.709  1.00  0.00     0.157 HD
ATOM      4  H22 UNL     1       2.770   1.795   7.386  1.00  0.00     0.157 HD
ENDROOT
BRANCH   1   5
HETATM    5  N1  UNL     1       4.339   3.630   6.891  1.00  0.00    -0.343 N 
ATOM      6  H1  UNL     1       5.345   3.643   7.060  1.00  0.00     0.167 HD
BRANCH   5   7
HETATM    7  C2  UNL     1       3.429   4.559   7.632  1.00  0.00     0.058 C 
HETATM    8  C1  UNL     1       2.709   5.306   6.838  1.00  0.00     0.046 C 
HETATM    9  C9  UNL     1       3.500   4.450   9.051  1.00  0.00     0.101 C 
BRANCH   9  10
HETATM   10  O1  UNL     1       4.408   3.567   9.448  1.00  0.00    -0.358 OA
ATOM     11  H1  UNL     1       5.265   3.957   9.571  1.00  0.00     0.217 HD
ENDBRANCH   9  10
BRANCH   9  12
HETATM   12  C10 UNL     1       2.799   5.094  10.114  1.00  0.00     0.002 A 
HETATM   13  C11 UNL     1       1.895   6.137   9.773  1.00  0.00     0.014 A 
HETATM   14  C12 UNL     1       1.228   6.785  10.776  1.00  0.00     0.003 A 
HETATM   15  C13 UNL     1       1.377   6.491  12.094  1.00  0.00     0.036 A 
HETATM   16  C14 UNL     1       2.243   5.492  12.442  1.00  0.00     0.103 A 
HETATM   17  C15 UNL     1       2.946   4.803  11.441  1.00  0.00     0.050 A 
BRANCH  16  18
HETATM   18  N6  UNL     1       2.421   5.160  13.811  1.00  0.00    -0.116 N 
HETATM   19  O2  UNL     1       2.023   5.917  14.720  1.00  0.00    -0.532 OA
HETATM   20  O3  UNL     1       3.034   4.002  14.173  1.00  0.00    -0.532 OA
ENDBRANCH  16  18
ENDBRANCH   9  12
ENDBRANCH   5   7
ENDBRANCH   1   5
BRANCH   1  21
HETATM   21  C4  UNL     1       4.074   2.814   4.513  1.00  0.00     0.255 C 
BRANCH  21  22
HETATM   22  N3  UNL     1       2.826   2.711   3.780  1.00  0.00    -0.068 N 
ATOM     23  H33 UNL     1       2.810   1.910   3.149  1.00  0.00     0.275 HD
ATOM     24  H32 UNL     1       2.045   2.436   4.377  1.00  0.00     0.275 HD
ATOM     25  H31 UNL     1       2.655   3.592   3.296  1.00  0.00     0.275 HD
ENDBRANCH  21  22
BRANCH  21  26
HETATM   26  C5  UNL     1       4.761   4.051   4.078  1.00  0.00     0.099 C 
BRANCH  26  27
HETATM   27  C6  UNL     1       6.026   3.893   3.358  1.00  0.00     0.028 A 
HETATM   28  C7  UNL     1       6.488   2.621   2.981  1.00  0.00     0.114 A 
HETATM   29  N4  UNL     1       7.645   2.812   2.342  1.00  0.00    -0.360 N 
HETATM   30  C8  UNL     1       7.942   4.120   2.290  1.00  0.00     0.180 A 
ATOM     31  H4  UNL     1       8.222   2.069   1.947  1.00  0.00     0.166 HD
HETATM   32  N5  UNL     1       6.951   4.742   2.910  1.00  0.00    -0.355 N 
ATOM     33  H5  UNL     1       6.900   5.754   3.031  1.00  0.00     0.166 HD
ENDBRANCH  26  27
ENDBRANCH  21  26
ENDBRANCH   1  21
TORSDOF 9
ENDMDL
MODEL 2
REMARK VINA RESULT: -8.804410247      3.018      8.582
REMARK  9 active torsions:
REMARK  status: ('A' for Active; 'I' for Inactive)
REMARK    1  A    between atoms: C2_2  and  N1_3 
REMARK    2  A    between atoms: N1_3  and  C3_5 
REMARK    3  A    between atoms: C3_5  and  C4_9 
REMARK    4  A    between atoms: C4_9  and  N3_10 
REMARK    5  A    between atoms: C4_9  and  C5_14 
REMARK    6  A    between atoms: C5_14  and  C6_15 
REMARK    7  A    between atoms: C9_22  and  O1_23 
REMARK    8  A    between atoms: C9_22  and  C10_25 
REMARK    9  A    between atoms: C14_29  and  N6_30 
ROOT
HETATM    1  C3  UNL     1       2.728   6.099   9.757  1.00  0.00     0.106 C 
HETATM    2  N2  UNL     1       1.566   6.637   9.853  1.00  0.00    -0.387 N 
ATOM      3  H21 UNL     1       1.498   7.571  10.257  1.00  0.00     0.157 HD
ATOM      4  H22 UNL     1       0.754   6.124   9.508  1.00  0.00     0.157 HD
ENDROOT
BRANCH   1   5
HETATM    5  N1  UNL     1       2.821   4.815   9.203  1.00  0.00    -0.343 N 
ATOM      6  H1  UNL     1       2.439   4.008   9.695  1.00  0.00     0.167 HD
BRANCH   5   7
HETATM    7  C2  UNL     1       3.491   4.651   7.874  1.00  0.00     0.058 C 
HETATM    8  C1  UNL     1       2.860   5.262   6.907  1.00  0.00     0.046 C 
HETATM    9  C9  UNL     1       4.690   3.883   7.907  1.00  0.00     0.101 C 
BRANCH   9  10
HETATM   10  O1  UNL     1       4.959   3.413   9.119  1.00  0.00    -0.358 OA
ATOM     11  H1  UNL     1       5.429   4.040   9.656  1.00  0.00     0.217 HD
ENDBRANCH   9  10
BRANCH   9  12
HETATM   12  C10 UNL     1       5.645   3.522   6.909  1.00  0.00     0.002 A 
HETATM   13  C11 UNL     1       6.994   3.920   7.113  1.00  0.00     0.014 A 
HETATM   14  C12 UNL     1       7.925   3.606   6.160  1.00  0.00     0.003 A 
HETATM   15  C13 UNL     1       7.636   2.930   5.018  1.00  0.00     0.036 A 
HETATM   16  C14 UNL     1       6.344   2.540   4.803  1.00  0.00     0.103 A 
HETATM   17  C15 UNL     1       5.359   2.844   5.758  1.00  0.00     0.050 A 
BRANCH  16  18
HETATM   18  N6  UNL     1       6.009   1.832   3.619  1.00  0.00    -0.116 N 
HETATM   19  O2  UNL     1       5.088   2.218   2.870  1.00  0.00    -0.532 OA
HETATM   20  O3  UNL     1       6.685   0.707   3.265  1.00  0.00    -0.532 OA
ENDBRANCH  16  18
ENDBRANCH   9  12
ENDBRANCH   5   7
ENDBRANCH   1   5
BRANCH   1  21
HETATM   21  C4  UNL     1       3.903   6.842  10.257  1.00  0.00     0.255 C 
BRANCH  21  22
HETATM   22  N3  UNL     1       3.634   8.265  10.156  1.00  0.00    -0.068 N 
ATOM     23  H33 UNL     1       3.752   8.617   9.205  1.00  0.00     0.275 HD
ATOM     24  H32 UNL     1       2.645   8.483  10.267  1.00  0.00     0.275 HD
ATOM     25  H31 UNL     1       4.220   8.759  10.829  1.00  0.00     0.275 HD
ENDBRANCH  21  22
BRANCH  21  26
HETATM   26  C5  UNL     1       4.277   6.544  11.658  1.00  0.00     0.099 C 
BRANCH  26  27
HETATM   27  C6  UNL     1       3.185   6.287  12.599  1.00  0.00     0.028 A 
HETATM   28  C7  UNL     1       2.966   4.999  13.116  1.00  0.00     0.114 A 
HETATM   29  N4  UNL     1       1.920   5.095  13.942  1.00  0.00    -0.360 N 
HETATM   30  C8  UNL     1       1.467   6.357  13.980  1.00  0.00     0.180 A 
ATOM     31  H4  UNL     1       1.522   4.317  14.469  1.00  0.00     0.166 HD
HETATM   32  N5  UNL     1       2.248   7.048  13.162  1.00  0.00    -0.355 N 
ATOM     33  H5  UNL     1       2.143   8.047  12.984  1.00  0.00     0.166 HD
ENDBRANCH  26  27
ENDBRANCH  21  26
ENDBRANCH   1  21
TORSDOF 9
ENDMDL
MODEL 3
REMARK VINA RESULT: -8.792093316      2.143      2.681
REMARK  9 active torsions:
REMARK  status: ('A' for Active; 'I' for Inactive)
REMARK    1  A    between atoms: C2_2  and  N1_3 
REMARK    2  A    between atoms: N1_3  and  C3_5 
REMARK    3  A    between atoms: C3_5  and  C4_9 
REMARK    4  A    between atoms: C4_9  and  N3_10 
REMARK    5  A    between atoms: C4_9  and  C5_14 
REMARK    6  A    between atoms: C5_14  and  C6_15 
REMARK    7  A    between atoms: C9_22  and  O1_23 
REMARK    8  A    between atoms: C9_22  and  C10_25 
REMARK    9  A    between atoms: C14_29  and  N6_30 
ROOT
HETATM    1  C3  UNL     1       5.611   3.653   7.097  1.00  0.00     0.106 C 
HETATM    2  N2  UNL     1       6.781   3.929   6.643  1.00  0.00    -0.387 N 
ATOM      3  H21 UNL     1       6.890   4.054   5.637  1.00  0.00     0.157 HD
ATOM      4  H22 UNL     1       7.554   4.031   7.300  1.00  0.00     0.157 HD
ENDROOT
BRANCH   1   5
HETATM    5  N1  UNL     1       5.461   3.481   8.480  1.00  0.00    -0.343 N 
ATOM      6  H1  UNL     1       5.719   2.600   8.925  1.00  0.00     0.167 HD
BRANCH   5   7
HETATM    7  C2  UNL     1       4.914   4.614   9.291  1.00  0.00     0.058 C 
HETATM    8  C1  UNL     1       5.782   5.574   9.474  1.00  0.00     0.046 C 
HETATM    9  C9  UNL     1       3.559   4.451   9.698  1.00  0.00     0.101 C 
BRANCH   9  10
HETATM   10  O1  UNL     1       3.050   3.287   9.315  1.00  0.00    -0.358 OA
ATOM     11  H1  UNL     1       3.575   2.549   9.601  1.00  0.00     0.217 HD
ENDBRANCH   9  10
BRANCH   9  12
HETATM   12  C10 UNL     1       2.653   5.279  10.427  1.00  0.00     0.002 A 
HETATM   13  C11 UNL     1       1.822   6.161   9.684  1.00  0.00     0.014 A 
HETATM   14  C12 UNL     1       0.960   6.982  10.360  1.00  0.00     0.003 A 
HETATM   15  C13 UNL     1       0.850   7.006  11.714  1.00  0.00     0.036 A 
HETATM   16  C14 UNL     1       1.641   6.167  12.446  1.00  0.00     0.103 A 
HETATM   17  C15 UNL     1       2.538   5.309  11.788  1.00  0.00     0.050 A 
BRANCH  16  18
HETATM   18  N6  UNL     1       1.550   6.169  13.863  1.00  0.00    -0.116 N 
HETATM   19  O2  UNL     1       1.531   7.235  14.511  1.00  0.00    -0.532 OA
HETATM   20  O3  UNL     1       1.479   5.003  14.557  1.00  0.00    -0.532 OA
ENDBRANCH  16  18
ENDBRANCH   9  12
ENDBRANCH   5   7
ENDBRANCH   1   5
BRANCH   1  21
HETATM   21  C4  UNL     1       4.492   3.503   6.146  1.00  0.00     0.255 C 
BRANCH  21  22
HETATM   22  N3  UNL     1       3.642   2.414   6.591  1.00  0.00    -0.068 N 
ATOM     23  H33 UNL     1       2.916   2.183   5.912  1.00  0.00     0.275 HD
ATOM     24  H32 UNL     1       4.126   1.516   6.590  1.00  0.00     0.275 HD
ATOM     25  H31 UNL     1       3.258   2.649   7.506  1.00  0.00     0.275 HD
ENDBRANCH  21  22
BRANCH  21  26
HETATM   26  C5  UNL     1       3.647   4.708   5.985  1.00  0.00     0.099 C 
BRANCH  26  27
HETATM   27  C6  UNL     1       4.061   5.682   4.973  1.00  0.00     0.028 A 
HETATM   28  C7  UNL     1       3.245   5.961   3.864  1.00  0.00     0.114 A 
HETATM   29  N4  UNL     1       3.887   6.886   3.144  1.00  0.00    -0.360 N 
HETATM   30  C8  UNL     1       5.052   7.208   3.727  1.00  0.00     0.180 A 
ATOM     31  H4  UNL     1       3.540   7.290   2.274  1.00  0.00     0.166 HD
HETATM   32  N5  UNL     1       5.127   6.467   4.823  1.00  0.00    -0.355 N 
ATOM     33  H5  UNL     1       5.910   6.495   5.476  1.00  0.00     0.166 HD
ENDBRANCH  26  27
ENDBRANCH  21  26
ENDBRANCH   1  21
TORSDOF 9
ENDMDL
MODEL 4
REMARK VINA RESULT: -8.754238256      2.013      3.176
REMARK  9 active torsions:
REMARK  status: ('A' for Active; 'I' for Inactive)
REMARK    1  A    between atoms: C2_2  and  N1_3 
REMARK    2  A    between atoms: N1_3  and  C3_5 
REMARK    3  A    between atoms: C3_5  and  C4_9 
REMARK    4  A    between atoms: C4_9  and  N3_10 
REMARK    5  A    between atoms: C4_9  and  C5_14 
REMARK    6  A    between atoms: C5_14  and  C6_15 
REMARK    7  A    between atoms: C9_22  and  O1_23 
REMARK    8  A    between atoms: C9_22  and  C10_25 
REMARK    9  A    between atoms: C14_29  and  N6_30 
ROOT
HETATM    1  C3  UNL     1       6.337   4.203   7.377  1.00  0.00     0.106 C 
HETATM    2  N2  UNL     1       7.438   3.648   7.017  1.00  0.00    -0.387 N 
ATOM      3  H21 UNL     1       7.891   3.983   6.166  1.00  0.00     0.157 HD
ATOM      4  H22 UNL     1       7.831   2.908   7.598  1.00  0.00     0.157 HD
ENDROOT
BRANCH   1   5
HETATM    5  N1  UNL     1       5.714   3.743   8.546  1.00  0.00    -0.343 N 
ATOM      6  H1  UNL     1       5.680   2.746   8.758  1.00  0.00     0.167 HD
BRANCH   5   7
HETATM    7  C2  UNL     1       5.101   4.743   9.476  1.00  0.00     0.058 C 
HETATM    8  C1  UNL     1       5.975   5.574   9.979  1.00  0.00     0.046 C 
HETATM    9  C9  UNL     1       3.690   4.620   9.630  1.00  0.00     0.101 C 
BRANCH   9  10
HETATM   10  O1  UNL     1       3.192   3.597   8.946  1.00  0.00    -0.358 OA
ATOM     11  H1  UNL     1       2.639   3.038   9.480  1.00  0.00     0.217 HD
ENDBRANCH   9  10
BRANCH   9  12
HETATM   12  C10 UNL     1       2.720   5.367  10.364  1.00  0.00     0.002 A 
HETATM   13  C11 UNL     1       1.834   6.200   9.628  1.00  0.00     0.014 A 
HETATM   14  C12 UNL     1       0.910   6.944  10.310  1.00  0.00     0.003 A 
HETATM   15  C13 UNL     1       0.786   6.936  11.663  1.00  0.00     0.036 A 
HETATM   16  C14 UNL     1       1.629   6.142  12.388  1.00  0.00     0.103 A 
HETATM   17  C15 UNL     1       2.592   5.364  11.724  1.00  0.00     0.050 A 
BRANCH  16  18
HETATM   18  N6  UNL     1       1.525   6.111  13.804  1.00  0.00    -0.116 N 
HETATM   19  O2  UNL     1       1.406   5.034  14.422  1.00  0.00    -0.532 OA
HETATM   20  O3  UNL     1       1.552   7.260  14.529  1.00  0.00    -0.532 OA
ENDBRANCH  16  18
ENDBRANCH   9  12
ENDBRANCH   5   7
ENDBRANCH   1   5
BRANCH   1  21
HETATM   21  C4  UNL     1       5.767   5.275   6.535  1.00  0.00     0.255 C 
BRANCH  21  22
HETATM   22  N3  UNL     1       6.737   6.349   6.426  1.00  0.00    -0.068 N 
ATOM     23  H33 UNL     1       6.957   6.769   7.329  1.00  0.00     0.275 HD
ATOM     24  H32 UNL     1       7.670   6.009   6.196  1.00  0.00     0.275 HD
ATOM     25  H31 UNL     1       6.395   7.033   5.751  1.00  0.00     0.275 HD
ENDBRANCH  21  22
BRANCH  21  26
HETATM   26  C5  UNL     1       5.389   4.855   5.167  1.00  0.00     0.099 C 
BRANCH  26  27
HETATM   27  C6  UNL     1       4.235   3.964   5.037  1.00  0.00     0.028 A 
HETATM   28  C7  UNL     1       3.895   3.399   3.796  1.00  0.00     0.114 A 
HETATM   29  N4  UNL     1       2.818   2.638   4.009  1.00  0.00    -0.360 N 
HETATM   30  C8  UNL     1       2.457   2.687   5.301  1.00  0.00     0.180 A 
ATOM     31  H4  UNL     1       2.337   2.096   3.290  1.00  0.00     0.166 HD
HETATM   32  N5  UNL     1       3.327   3.492   5.891  1.00  0.00    -0.355 N 
ATOM     33  H5  UNL     1       3.306   3.724   6.884  1.00  0.00     0.166 HD
ENDBRANCH  26  27
ENDBRANCH  21  26
ENDBRANCH   1  21
TORSDOF 9
ENDMDL
MODEL 5
REMARK VINA RESULT: -8.750112062      2.559      4.644
REMARK  9 active torsions:
REMARK  status: ('A' for Active; 'I' for Inactive)
REMARK    1  A    between atoms: C2_2  and  N1_3 
REMARK    2  A    between atoms: N1_3  and  C3_5 
REMARK    3  A    between atoms: C3_5  and  C4_9 
REMARK    4  A    between atoms: C4_9  and  N3_10 
REMARK    5  A    between atoms: C4_9  and  C5_14 
REMARK    6  A    between atoms: C5_14  and  C6_15 
REMARK    7  A    between atoms: C9_22  and  O1_23 
REMARK    8  A    between atoms: C9_22  and  C10_25 
REMARK    9  A    between atoms: C14_29  and  N6_30 
ROOT
HETATM    1  C3  UNL     1       5.729   4.459   7.065  1.00  0.00     0.106 C 
HETATM    2  N2  UNL     1       5.918   4.361   5.799  1.00  0.00    -0.387 N 
ATOM      3  H21 UNL     1       6.761   4.776   5.403  1.00  0.00     0.157 HD
ATOM      4  H22 UNL     1       5.232   3.858   5.236  1.00  0.00     0.157 HD
ENDROOT
BRANCH   1   5
HETATM    5  N1  UNL     1       4.571   3.888   7.610  1.00  0.00    -0.343 N 
ATOM      6  H1  UNL     1       4.481   2.876   7.694  1.00  0.00     0.167 HD
BRANCH   5   7
HETATM    7  C2  UNL     1       3.469   4.792   8.067  1.00  0.00     0.058 C 
HETATM    8  C1  UNL     1       2.802   5.322   7.076  1.00  0.00     0.046 C 
HETATM    9  C9  UNL     1       3.337   4.898   9.481  1.00  0.00     0.101 C 
BRANCH   9  10
HETATM   10  O1  UNL     1       4.262   4.202  10.131  1.00  0.00    -0.358 OA
ATOM     11  H1  UNL     1       3.897   3.457  10.595  1.00  0.00     0.217 HD
ENDBRANCH   9  10
BRANCH   9  12
HETATM   12  C10 UNL     1       2.422   5.595  10.326  1.00  0.00     0.002 A 
HETATM   13  C11 UNL     1       1.466   6.444   9.705  1.00  0.00     0.014 A 
HETATM   14  C12 UNL     1       0.591   7.141  10.494  1.00  0.00     0.003 A 
HETATM   15  C13 UNL     1       0.581   7.070  11.851  1.00  0.00     0.036 A 
HETATM   16  C14 UNL     1       1.493   6.261  12.467  1.00  0.00     0.103 A 
HETATM   17  C15 UNL     1       2.407   5.529  11.691  1.00  0.00     0.050 A 
BRANCH  16  18
HETATM   18  N6  UNL     1       1.508   6.165  13.884  1.00  0.00    -0.116 N 
HETATM   19  O2  UNL     1       1.529   7.185  14.603  1.00  0.00    -0.532 OA
HETATM   20  O3  UNL     1       1.500   4.954  14.500  1.00  0.00    -0.532 OA
ENDBRANCH  16  18
ENDBRANCH   9  12
ENDBRANCH   5   7
ENDBRANCH   1   5
BRANCH   1  21
HETATM   21  C4  UNL     1       6.722   5.188   7.881  1.00  0.00     0.255 C 
BRANCH  21  22
HETATM   22  N3  UNL     1       8.043   4.957   7.327  1.00  0.00    -0.068 N 
ATOM     23  H33 UNL     1       8.787   5.289   7.942  1.00  0.00     0.275 HD
ATOM     24  H32 UNL     1       8.295   3.968   7.321  1.00  0.00     0.275 HD
ATOM     25  H31 UNL     1       8.089   5.376   6.399  1.00  0.00     0.275 HD
ENDBRANCH  21  22
BRANCH  21  26
HETATM   26  C5  UNL     1       6.507   6.651   7.961  1.00  0.00     0.099 C 
BRANCH  26  27
HETATM   27  C6  UNL     1       5.958   7.178   9.211  1.00  0.00     0.028 A 
HETATM   28  C7  UNL     1       5.023   8.227   9.204  1.00  0.00     0.114 A 
HETATM   29  N4  UNL     1       4.712   8.466  10.480  1.00  0.00    -0.360 N 
HETATM   30  C8  UNL     1       5.389   7.638  11.292  1.00  0.00     0.180 A 
ATOM     31  H4  UNL     1       4.053   9.179  10.795  1.00  0.00     0.166 HD
HETATM   32  N5  UNL     1       6.128   6.877  10.498  1.00  0.00    -0.355 N 
ATOM     33  H5  UNL     1       6.755   6.145  10.834  1.00  0.00     0.166 HD
ENDBRANCH  26  27
ENDBRANCH  21  26
ENDBRANCH   1  21
TORSDOF 9
ENDMDL
