MODEL 1
REMARK VINA RESULT: -8.038638765      0.000      0.000
REMARK  9 active torsions:
REMARK  status: ('A' for Active; 'I' for Inactive)
REMARK    1  A    between atoms: C2_2  and  N1_3 
REMARK    2  A    between atoms: C2_2  and  C3_7 
REMARK       I    between atoms: C3_7  and  N2_9 
REMARK    3  A    between atoms: N2_9  and  C4_11 
REMARK    4  A    between atoms: C4_11  and  C5_12 
REMARK    5  A    between atoms: C4_11  and  C6_14 
REMARK    6  A    between atoms: C6_14  and  C7_15 
REMARK    7  A    between atoms: C7_15  and  C8_16 
REMARK    8  A    between atoms: C7_15  and  C13_26 
REMARK    9  A    between atoms: C11_19  and  N3_20 
ROOT
HETATM    1  C7  UNL     1       3.423   4.906   7.124  1.00  0.00     0.097 C 
ENDROOT
BRANCH   1   2
HETATM    2  C6  UNL     1       4.094   3.597   6.817  1.00  0.00     0.050 C 
BRANCH   2   3
HETATM    3  C4  UNL     1       3.541   2.911   5.618  1.00  0.00     0.147 C 
BRANCH   3   4
HETATM    4  N2  UNL     1       4.495   2.225   4.798  1.00  0.00    -0.348 N 
HETATM    5  C3  UNL     1       5.282   2.820   3.768  1.00  0.00     0.248 C 
HETATM    6  O1  UNL     1       5.135   4.040   3.533  1.00  0.00    -0.271 OA
ATOM      7  H2  UNL     1       4.623   1.228   4.965  1.00  0.00     0.163 HD
BRANCH   5   8
HETATM    8  C2  UNL     1       6.261   2.011   2.984  1.00  0.00     0.270 C 
HETATM    9  C1  UNL     1       6.876   0.913   3.790  1.00  0.00     0.050 C 
BRANCH   8  10
HETATM   10  N1  UNL     1       7.289   2.887   2.496  1.00  0.00    -0.067 N 
ATOM     11  H13 UNL     1       7.056   3.283   1.585  1.00  0.00     0.275 HD
ATOM     12  H12 UNL     1       7.336   3.757   3.027  1.00  0.00     0.275 HD
ATOM     13  H11 UNL     1       8.182   2.395   2.485  1.00  0.00     0.275 HD
ENDBRANCH   8  10
ENDBRANCH   5   8
ENDBRANCH   3   4
BRANCH   3  14
HETATM   14  C5  UNL     1       2.470   1.946   6.071  1.00  0.00     0.256 C 
HETATM   15  O2  UNL     1       2.696   1.210   7.006  1.00  0.00    -0.305 OA
ENDBRANCH   3  14
ENDBRANCH   2   3
ENDBRANCH   1   2
BRANCH   1  16
HETATM   16  C8  UNL     1       2.995   5.034   8.539  1.00  0.00    -0.031 A 
HETATM   17  C9  UNL     1       2.138   6.054   8.882  1.00  0.00     0.013 A 
HETATM   18  C10 UNL     1       1.762   6.155  10.194  1.00  0.00     0.048 A 
HETATM   19  C11 UNL     1       2.234   5.251  11.165  1.00  0.00     0.098 A 
HETATM   20  N4  UNL     1       3.088   4.257  10.750  1.00  0.00    -0.352 N 
HETATM   21  C12 UNL     1       3.461   4.144   9.482  1.00  0.00     0.097 A 
ATOM     22  H4  UNL     1       3.444   3.589  11.433  1.00  0.00     0.166 HD
BRANCH  19  23
HETATM   23  N3  UNL     1       1.898   5.355  12.310  1.00  0.00    -0.385 N 
ATOM     24  H32 UNL     1       1.340   6.144  12.636  1.00  0.00     0.157 HD
ATOM     25  H31 UNL     1       2.163   4.648  12.997  1.00  0.00     0.157 HD
ENDBRANCH  19  23
ENDBRANCH   1  16
BRANCH   1  26
HETATM   26  C13 UNL     1       4.374   6.011   6.844  1.00  0.00     0.131 A 
HETATM   27  N5  UNL     1       4.756   6.475   5.653  1.00  0.00    -0.348 N 
HETATM   28  C14 UNL     1       5.624   7.476   5.834  1.00  0.00     0.114 A 
ATOM     29  H5  UNL     1       4.438   6.123   4.751  1.00  0.00     0.167 HD
HETATM   30  C15 UNL     1       5.772   7.624   7.188  1.00  0.00     0.161 A 
HETATM   31  O3  UNL     1       5.003   6.723   7.748  1.00  0.00    -0.308 OA
ENDBRANCH   1  26
TORSDOF 9
ENDMDL
MODEL 2
REMARK VINA RESULT: -7.841388909      1.390      1.464
REMARK  9 active torsions:
REMARK  status: ('A' for Active; 'I' for Inactive)
REMARK    1  A    between atoms: C2_2  and  N1_3 
REMARK    2  A    between atoms: C2_2  and  C3_7 
REMARK       I    between atoms: C3_7  and  N2_9 
REMARK    3  A    between atoms: N2_9  and  C4_11 
REMARK    4  A    between atoms: C4_11  and  C5_12 
REMARK    5  A    between atoms: C4_11  and  C6_14 
REMARK    6  A    between atoms: C6_14  and  C7_15 
REMARK    7  A    between atoms: C7_15  and  C8_16 
REMARK    8  A    between atoms: C7_15  and  C13_26 
REMARK    9  A    between atoms: C11_19  and  N3_20 
ROOT
HETATM    1  C7  UNL     1       3.350   5.090   7.112  1.00  0.00     0.097 C 
ENDROOT
BRANCH   1   2
HETATM    2  C6  UNL     1       3.302   3.714   6.508  1.00  0.00     0.050 C 
BRANCH   2   3
HETATM    3  C4  UNL     1       3.759   3.669   5.093  1.00  0.00     0.147 C 
BRANCH   3   4
HETATM    4  N2  UNL     1       4.955   2.921   4.848  1.00  0.00    -0.348 N 
HETATM    5  C3  UNL     1       5.992   3.288   3.941  1.00  0.00     0.248 C 
HETATM    6  O1  UNL     1       5.862   4.344   3.283  1.00  0.00    -0.271 OA
ATOM      7  H2  UNL     1       5.076   2.051   5.366  1.00  0.00     0.163 HD
BRANCH   5   8
HETATM    8  C2  UNL     1       7.208   2.439   3.777  1.00  0.00     0.270 C 
HETATM    9  C1  UNL     1       6.892   0.978   3.768  1.00  0.00     0.050 C 
BRANCH   8  10
HETATM   10  N1  UNL     1       8.116   2.730   4.850  1.00  0.00    -0.067 N 
ATOM     11  H13 UNL     1       8.105   3.718   5.105  1.00  0.00     0.275 HD
ATOM     12  H12 UNL     1       7.797   2.345   5.739  1.00  0.00     0.275 HD
ATOM     13  H11 UNL     1       9.052   2.407   4.605  1.00  0.00     0.275 HD
ENDBRANCH   8  10
ENDBRANCH   5   8
ENDBRANCH   3   4
BRANCH   3  14
HETATM   14  C5  UNL     1       2.632   3.123   4.246  1.00  0.00     0.256 C 
HETATM   15  O2  UNL     1       2.769   3.071   3.043  1.00  0.00    -0.305 OA
ENDBRANCH   3  14
ENDBRANCH   2   3
ENDBRANCH   1   2
BRANCH   1  16
HETATM   16  C8  UNL     1       2.953   5.121   8.542  1.00  0.00    -0.031 A 
HETATM   17  C9  UNL     1       2.159   6.153   8.986  1.00  0.00     0.013 A 
HETATM   18  C10 UNL     1       1.811   6.165  10.309  1.00  0.00     0.048 A 
HETATM   19  C11 UNL     1       2.249   5.159  11.193  1.00  0.00     0.098 A 
HETATM   20  N4  UNL     1       3.040   4.159  10.679  1.00  0.00    -0.352 N 
HETATM   21  C12 UNL     1       3.385   4.132   9.398  1.00  0.00     0.097 A 
ATOM     22  H4  UNL     1       3.370   3.418  11.297  1.00  0.00     0.166 HD
BRANCH  19  23
HETATM   23  N3  UNL     1       1.938   5.184  12.349  1.00  0.00    -0.385 N 
ATOM     24  H32 UNL     1       1.503   6.005  12.769  1.00  0.00     0.157 HD
ATOM     25  H31 UNL     1       2.102   4.376  12.950  1.00  0.00     0.157 HD
ENDBRANCH  19  23
ENDBRANCH   1  16
BRANCH   1  26
HETATM   26  C13 UNL     1       4.738   5.606   7.023  1.00  0.00     0.131 A 
HETATM   27  N5  UNL     1       5.127   6.861   6.789  1.00  0.00    -0.348 N 
HETATM   28  C14 UNL     1       6.463   6.910   6.788  1.00  0.00     0.114 A 
ATOM     29  H5  UNL     1       4.505   7.654   6.635  1.00  0.00     0.167 HD
HETATM   30  C15 UNL     1       6.900   5.634   7.033  1.00  0.00     0.161 A 
HETATM   31  O3  UNL     1       5.828   4.892   7.166  1.00  0.00    -0.308 OA
ENDBRANCH   1  26
TORSDOF 9
ENDMDL
MODEL 3
REMARK VINA RESULT: -7.804882228      1.305      1.393
REMARK  9 active torsions:
REMARK  status: ('A' for Active; 'I' for Inactive)
REMARK    1  A    between atoms: C2_2  and  N1_3 
REMARK    2  A    between atoms: C2_2  and  C3_7 
REMARK       I    between atoms: C3_7  and  N2_9 
REMARK    3  A    between atoms: N2_9  and  C4_11 
REMARK    4  A    between atoms: C4_11  and  C5_12 
REMARK    5  A    between atoms: C4_11  and  C6_14 
REMARK    6  A    between atoms: C6_14  and  C7_15 
REMARK    7  A    between atoms: C7_15  and  C8_16 
REMARK    8  A    between atoms: C7_15  and  C13_26 
REMARK    9  A    between atoms: C11_19  and  N3_20 
ROOT
HETATM    1  C7  UNL     1       3.986   4.886   7.333  1.00  0.00     0.097 C 
ENDROOT
BRANCH   1   2
HETATM    2  C6  UNL     1       3.993   3.477   6.810  1.00  0.00     0.050 C 
BRANCH   2   3
HETATM    3  C4  UNL     1       3.833   3.388   5.333  1.00  0.00     0.147 C 
BRANCH   3   4
HETATM    4  N2  UNL     1       4.777   2.553   4.654  1.00  0.00    -0.348 N 
HETATM    5  C3  UNL     1       5.596   2.950   3.557  1.00  0.00     0.248 C 
HETATM    6  O1  UNL     1       5.489   4.120   3.124  1.00  0.00    -0.271 OA
ATOM      7  H2  UNL     1       4.873   1.593   4.983  1.00  0.00     0.163 HD
BRANCH   5   8
HETATM    8  C2  UNL     1       6.562   1.999   2.933  1.00  0.00     0.270 C 
HETATM    9  C1  UNL     1       6.936   0.878   3.847  1.00  0.00     0.050 C 
BRANCH   8  10
HETATM   10  N1  UNL     1       7.740   2.728   2.554  1.00  0.00    -0.067 N 
ATOM     11  H13 UNL     1       8.060   3.352   3.295  1.00  0.00     0.275 HD
ATOM     12  H12 UNL     1       8.563   2.127   2.502  1.00  0.00     0.275 HD
ATOM     13  H11 UNL     1       7.570   3.224   1.680  1.00  0.00     0.275 HD
ENDBRANCH   8  10
ENDBRANCH   5   8
ENDBRANCH   3   4
BRANCH   3  14
HETATM   14  C5  UNL     1       2.428   2.920   5.033  1.00  0.00     0.256 C 
HETATM   15  O2  UNL     1       2.069   2.832   3.880  1.00  0.00    -0.305 OA
ENDBRANCH   3  14
ENDBRANCH   2   3
ENDBRANCH   1   2
BRANCH   1  16
HETATM   16  C8  UNL     1       3.301   5.027   8.642  1.00  0.00    -0.031 A 
HETATM   17  C9  UNL     1       2.432   6.078   8.825  1.00  0.00     0.013 A 
HETATM   18  C10 UNL     1       1.818   6.191  10.042  1.00  0.00     0.048 A 
HETATM   19  C11 UNL     1       2.063   5.268  11.077  1.00  0.00     0.098 A 
HETATM   20  N4  UNL     1       2.943   4.244  10.823  1.00  0.00    -0.352 N 
HETATM   21  C12 UNL     1       3.546   4.119   9.649  1.00  0.00     0.097 A 
ATOM     22  H4  UNL     1       3.137   3.561  11.556  1.00  0.00     0.166 HD
BRANCH  19  23
HETATM   23  N3  UNL     1       1.519   5.383  12.139  1.00  0.00    -0.385 N 
ATOM     24  H32 UNL     1       1.432   4.598  12.784  1.00  0.00     0.157 HD
ATOM     25  H31 UNL     1       1.126   6.279  12.429  1.00  0.00     0.157 HD
ENDBRANCH  19  23
ENDBRANCH   1  16
BRANCH   1  26
HETATM   26  C13 UNL     1       5.387   5.340   7.511  1.00  0.00     0.131 A 
HETATM   27  N5  UNL     1       6.486   4.586   7.571  1.00  0.00    -0.348 N 
HETATM   28  C14 UNL     1       7.550   5.378   7.739  1.00  0.00     0.114 A 
ATOM     29  H5  UNL     1       6.511   3.569   7.500  1.00  0.00     0.167 HD
HETATM   30  C15 UNL     1       7.076   6.663   7.782  1.00  0.00     0.161 A 
HETATM   31  O3  UNL     1       5.775   6.585   7.642  1.00  0.00    -0.308 OA
ENDBRANCH   1  26
TORSDOF 9
ENDMDL
MODEL 4
REMARK VINA RESULT: -7.783401367      0.920      1.003
REMARK  9 active torsions:
REMARK  status: ('A' for Active; 'I' for Inactive)
REMARK    1  A    between atoms: C2_2  and  N1_3 
REMARK    2  A    between atoms: C2_2  and  C3_7 
REMARK       I    between atoms: C3_7  and  N2_9 
REMARK    3  A    between atoms: N2_9  and  C4_11 
REMARK    4  A    between atoms: C4_11  and  C5_12 
REMARK    5  A    between atoms: C4_11  and  C6_14 
REMARK    6  A    between atoms: C6_14  and  C7_15 
REMARK    7  A    between atoms: C7_15  and  C8_16 
REMARK    8  A    between atoms: C7_15  and  C13_26 
REMARK    9  A    between atoms: C11_19  and  N3_20 
ROOT
HETATM    1  C7  UNL     1       3.441   4.877   7.669  1.00  0.00     0.097 C 
ENDROOT
BRANCH   1   2
HETATM    2  C6  UNL     1       3.895   3.471   7.397  1.00  0.00     0.050 C 
BRANCH   2   3
HETATM    3  C4  UNL     1       3.591   3.002   6.018  1.00  0.00     0.147 C 
BRANCH   3   4
HETATM    4  N2  UNL     1       4.718   2.581   5.241  1.00  0.00    -0.348 N 
HETATM    5  C3  UNL     1       4.795   2.594   3.817  1.00  0.00     0.248 C 
HETATM    6  O1  UNL     1       3.801   2.991   3.170  1.00  0.00    -0.271 OA
ATOM      7  H2  UNL     1       5.535   2.242   5.749  1.00  0.00     0.163 HD
BRANCH   5   8
HETATM    8  C2  UNL     1       6.030   2.146   3.109  1.00  0.00     0.270 C 
HETATM    9  C1  UNL     1       6.769   1.085   3.858  1.00  0.00     0.050 C 
BRANCH   8  10
HETATM   10  N1  UNL     1       6.883   3.284   2.916  1.00  0.00    -0.067 N 
ATOM     11  H13 UNL     1       7.197   3.684   3.800  1.00  0.00     0.275 HD
ATOM     12  H12 UNL     1       7.794   3.022   2.541  1.00  0.00     0.275 HD
ATOM     13  H11 UNL     1       6.409   3.972   2.331  1.00  0.00     0.275 HD
ENDBRANCH   8  10
ENDBRANCH   5   8
ENDBRANCH   3   4
BRANCH   3  14
HETATM   14  C5  UNL     1       2.583   1.879   6.108  1.00  0.00     0.256 C 
HETATM   15  O2  UNL     1       2.622   1.125   7.055  1.00  0.00    -0.305 OA
ENDBRANCH   3  14
ENDBRANCH   2   3
ENDBRANCH   1   2
BRANCH   1  16
HETATM   16  C8  UNL     1       2.866   5.061   9.024  1.00  0.00    -0.031 A 
HETATM   17  C9  UNL     1       2.114   6.186   9.278  1.00  0.00     0.013 A 
HETATM   18  C10 UNL     1       1.600   6.336  10.537  1.00  0.00     0.048 A 
HETATM   19  C11 UNL     1       1.830   5.379  11.544  1.00  0.00     0.098 A 
HETATM   20  N4  UNL     1       2.590   4.281  11.219  1.00  0.00    -0.352 N 
HETATM   21  C12 UNL     1       3.095   4.119  10.003  1.00  0.00     0.097 A 
ATOM     22  H4  UNL     1       2.771   3.572  11.930  1.00  0.00     0.166 HD
BRANCH  19  23
HETATM   23  N3  UNL     1       1.375   5.527  12.643  1.00  0.00    -0.385 N 
ATOM     24  H32 UNL     1       1.898   5.999  13.380  1.00  0.00     0.157 HD
ATOM     25  H31 UNL     1       0.442   5.182  12.871  1.00  0.00     0.157 HD
ENDBRANCH  19  23
ENDBRANCH   1  16
BRANCH   1  26
HETATM   26  C13 UNL     1       4.604   5.790   7.550  1.00  0.00     0.131 A 
HETATM   27  N5  UNL     1       5.718   5.790   8.284  1.00  0.00    -0.348 N 
HETATM   28  C14 UNL     1       6.520   6.772   7.860  1.00  0.00     0.114 A 
ATOM     29  H5  UNL     1       5.925   5.145   9.046  1.00  0.00     0.167 HD
HETATM   30  C15 UNL     1       5.865   7.392   6.827  1.00  0.00     0.161 A 
HETATM   31  O3  UNL     1       4.723   6.766   6.682  1.00  0.00    -0.308 OA
ENDBRANCH   1  26
TORSDOF 9
ENDMDL
MODEL 5
REMARK VINA RESULT: -7.636356577      1.591      1.730
REMARK  9 active torsions:
REMARK  status: ('A' for Active; 'I' for Inactive)
REMARK    1  A    between atoms: C2_2  and  N1_3 
REMARK    2  A    between atoms: C2_2  and  C3_7 
REMARK       I    between atoms: C3_7  and  N2_9 
REMARK    3  A    between atoms: N2_9  and  C4_11 
REMARK    4  A    between atoms: C4_11  and  C5_12 
REMARK    5  A    between atoms: C4_11  and  C6_14 
REMARK    6  A    between atoms: C6_14  and  C7_15 
REMARK    7  A    between atoms: C7_15  and  C8_16 
REMARK    8  A    between atoms: C7_15  and  C13_26 
REMARK    9  A    between atoms: C11_19  and  N3_20 
ROOT
HETATM    1  C7  UNL     1       3.227   5.026   8.228  1.00  0.00     0.097 C 
ENDROOT
BRANCH   1   2
HETATM    2  C6  UNL     1       3.571   3.576   8.031  1.00  0.00     0.050 C 
BRANCH   2   3
HETATM    3  C4  UNL     1       3.884   3.225   6.619  1.00  0.00     0.147 C 
BRANCH   3   4
HETATM    4  N2  UNL     1       5.257   2.930   6.341  1.00  0.00    -0.348 N 
HETATM    5  C3  UNL     1       6.131   3.725   5.543  1.00  0.00     0.248 C 
HETATM    6  O1  UNL     1       5.679   4.768   5.020  1.00  0.00    -0.271 OA
ATOM      7  H2  UNL     1       5.644   2.078   6.749  1.00  0.00     0.163 HD
BRANCH   5   8
HETATM    8  C2  UNL     1       7.554   3.329   5.332  1.00  0.00     0.270 C 
HETATM    9  C1  UNL     1       8.391   4.450   4.806  1.00  0.00     0.050 C 
BRANCH   8  10
HETATM   10  N1  UNL     1       7.590   2.226   4.414  1.00  0.00    -0.067 N 
ATOM     11  H13 UNL     1       7.385   2.516   3.457  1.00  0.00     0.275 HD
ATOM     12  H12 UNL     1       8.538   1.882   4.264  1.00  0.00     0.275 HD
ATOM     13  H11 UNL     1       6.961   1.491   4.736  1.00  0.00     0.275 HD
ENDBRANCH   8  10
ENDBRANCH   5   8
ENDBRANCH   3   4
BRANCH   3  14
HETATM   14  C5  UNL     1       3.018   2.054   6.215  1.00  0.00     0.256 C 
HETATM   15  O2  UNL     1       2.678   1.253   7.058  1.00  0.00    -0.305 OA
ENDBRANCH   3  14
ENDBRANCH   2   3
ENDBRANCH   1   2
BRANCH   1  16
HETATM   16  C8  UNL     1       2.602   5.311   9.544  1.00  0.00    -0.031 A 
HETATM   17  C9  UNL     1       1.796   6.419   9.668  1.00  0.00     0.013 A 
HETATM   18  C10 UNL     1       1.236   6.665  10.892  1.00  0.00     0.048 A 
HETATM   19  C11 UNL     1       1.474   5.818  11.992  1.00  0.00     0.098 A 
HETATM   20  N4  UNL     1       2.290   4.729  11.795  1.00  0.00    -0.352 N 
HETATM   21  C12 UNL     1       2.840   4.476  10.614  1.00  0.00     0.097 A 
ATOM     22  H4  UNL     1       2.478   4.100  12.575  1.00  0.00     0.166 HD
BRANCH  19  23
HETATM   23  N3  UNL     1       0.978   6.048  13.059  1.00  0.00    -0.385 N 
ATOM     24  H32 UNL     1       0.253   5.450  13.453  1.00  0.00     0.157 HD
ATOM     25  H31 UNL     1       1.275   6.856  13.606  1.00  0.00     0.157 HD
ENDBRANCH  19  23
ENDBRANCH   1  16
BRANCH   1  26
HETATM   26  C13 UNL     1       4.469   5.831   8.141  1.00  0.00     0.131 A 
HETATM   27  N5  UNL     1       4.752   6.803   7.271  1.00  0.00    -0.348 N 
HETATM   28  C14 UNL     1       5.975   7.278   7.530  1.00  0.00     0.114 A 
ATOM     29  H5  UNL     1       4.134   7.131   6.529  1.00  0.00     0.167 HD
HETATM   30  C15 UNL     1       6.452   6.565   8.598  1.00  0.00     0.161 A 
HETATM   31  O3  UNL     1       5.513   5.712   8.926  1.00  0.00    -0.308 OA
ENDBRANCH   1  26
TORSDOF 9
ENDMDL
