MODEL 1
REMARK VINA RESULT: -8.539544027      0.000      0.000
REMARK  9 active torsions:
REMARK  status: ('A' for Active; 'I' for Inactive)
REMARK    1  A    between atoms: O1_2  and  C2_3 
REMARK    2  A    between atoms: C5_6  and  C6_7 
REMARK    3  A    between atoms: C6_7  and  N1_8 
REMARK       I    between atoms: N1_8  and  C7_10 
REMARK    4  A    between atoms: C7_10  and  C8_12 
REMARK    5  A    between atoms: C8_12  and  N2_13 
REMARK    6  A    between atoms: C8_12  and  C9_17 
REMARK    7  A    between atoms: C14_26  and  N5_27 
REMARK    8  A    between atoms: N5_27  and  C15_29 
REMARK    9  A    between atoms: C15_29  and  O3_30 
ROOT
HETATM    1  N1  UNL     1       4.932   4.251   9.801  1.00  0.00    -0.290 N 
ATOM      2  H1  UNL     1       5.606   4.176  10.563  1.00  0.00     0.178 HD
HETATM    3  C7  UNL     1       3.567   4.711  10.105  1.00  0.00     0.267 C 
HETATM    4  O2  UNL     1       2.805   4.783   9.106  1.00  0.00    -0.270 OA
ENDROOT
BRANCH   1   5
HETATM    5  C6  UNL     1       5.319   3.930   8.569  1.00  0.00    -0.027 C 
BRANCH   5   6
HETATM    6  C5  UNL     1       5.724   3.597   7.278  1.00  0.00     0.035 A 
HETATM    7  C4  UNL     1       7.033   3.857   6.795  1.00  0.00     0.025 A 
HETATM    8  C3  UNL     1       7.393   3.640   5.489  1.00  0.00     0.040 A 
HETATM    9  C2  UNL     1       6.471   3.152   4.612  1.00  0.00     0.095 A 
HETATM   10  C14 UNL     1       5.166   2.875   5.051  1.00  0.00     0.074 A 
HETATM   11  C12 UNL     1       4.800   3.089   6.335  1.00  0.00    -0.013 A 
HETATM   12  C13 UNL     1       3.413   2.828   6.774  1.00  0.00     0.052 C 
BRANCH   9  13
HETATM   13  O1  UNL     1       6.750   2.913   3.293  1.00  0.00    -0.354 OA
HETATM   14  C1  UNL     1       7.469   3.815   2.495  1.00  0.00     0.210 C 
ENDBRANCH   9  13
BRANCH  10  15
HETATM   15  N5  UNL     1       4.279   2.333   4.107  1.00  0.00    -0.345 N 
ATOM     16  H5  UNL     1       4.425   1.363   3.828  1.00  0.00     0.167 HD
BRANCH  15  17
HETATM   17  C15 UNL     1       3.221   3.013   3.527  1.00  0.00     0.223 C 
BRANCH  17  18
HETATM   18  O3  UNL     1       2.086   2.340   3.538  1.00  0.00    -0.356 OA
ATOM     19  H3  UNL     1       1.619   2.364   2.712  1.00  0.00     0.218 HD
ENDBRANCH  17  18
ENDBRANCH  15  17
ENDBRANCH  10  15
ENDBRANCH   5   6
ENDBRANCH   1   5
BRANCH   3  20
HETATM   20  C8  UNL     1       3.133   5.055  11.451  1.00  0.00     0.342 C 
BRANCH  20  21
HETATM   21  N2  UNL     1       2.759   3.906  12.228  1.00  0.00    -0.059 N 
ATOM     22  H23 UNL     1       1.782   3.961  12.515  1.00  0.00     0.275 HD
ATOM     23  H22 UNL     1       2.714   3.070  11.645  1.00  0.00     0.275 HD
ATOM     24  H21 UNL     1       3.367   3.758  13.033  1.00  0.00     0.275 HD
ENDBRANCH  20  21
BRANCH  20  25
HETATM   25  C9  UNL     1       1.994   6.020  11.340  1.00  0.00     0.121 A 
HETATM   26  N3  UNL     1       1.942   7.068  10.494  1.00  0.00    -0.352 N 
HETATM   27  C10 UNL     1       0.806   7.737  10.650  1.00  0.00     0.106 A 
ATOM     28  H3  UNL     1       2.674   7.312   9.826  1.00  0.00     0.166 HD
HETATM   29  C11 UNL     1       0.080   7.088  11.650  1.00  0.00     0.106 A 
HETATM   30  N4  UNL     1       0.845   6.040  12.046  1.00  0.00    -0.352 N 
ATOM     31  H4  UNL     1       0.590   5.367  12.770  1.00  0.00     0.166 HD
ENDBRANCH  20  25
ENDBRANCH   3  20
TORSDOF 9
ENDMDL
MODEL 2
REMARK VINA RESULT: -8.131779920      1.579      2.081
REMARK  9 active torsions:
REMARK  status: ('A' for Active; 'I' for Inactive)
REMARK    1  A    between atoms: O1_2  and  C2_3 
REMARK    2  A    between atoms: C5_6  and  C6_7 
REMARK    3  A    between atoms: C6_7  and  N1_8 
REMARK       I    between atoms: N1_8  and  C7_10 
REMARK    4  A    between atoms: C7_10  and  C8_12 
REMARK    5  A    between atoms: C8_12  and  N2_13 
REMARK    6  A    between atoms: C8_12  and  C9_17 
REMARK    7  A    between atoms: C14_26  and  N5_27 
REMARK    8  A    between atoms: N5_27  and  C15_29 
REMARK    9  A    between atoms: C15_29  and  O3_30 
ROOT
HETATM    1  N1  UNL     1       5.052   6.064   9.428  1.00  0.00    -0.290 N 
ATOM      2  H1  UNL     1       5.611   6.912   9.530  1.00  0.00     0.178 HD
HETATM    3  C7  UNL     1       3.941   5.831  10.365  1.00  0.00     0.267 C 
HETATM    4  O2  UNL     1       3.299   4.768  10.162  1.00  0.00    -0.270 OA
ENDROOT
BRANCH   1   5
HETATM    5  C6  UNL     1       5.355   5.210   8.454  1.00  0.00    -0.027 C 
BRANCH   5   6
HETATM    6  C5  UNL     1       5.672   4.318   7.431  1.00  0.00     0.035 A 
HETATM    7  C4  UNL     1       7.008   4.036   7.048  1.00  0.00     0.025 A 
HETATM    8  C3  UNL     1       7.315   3.253   5.963  1.00  0.00     0.040 A 
HETATM    9  C2  UNL     1       6.307   2.715   5.220  1.00  0.00     0.095 A 
HETATM   10  C14 UNL     1       4.969   2.965   5.569  1.00  0.00     0.074 A 
HETATM   11  C12 UNL     1       4.657   3.738   6.633  1.00  0.00    -0.013 A 
HETATM   12  C13 UNL     1       3.245   4.022   6.967  1.00  0.00     0.052 C 
BRANCH   9  13
HETATM   13  O1  UNL     1       6.528   1.927   4.122  1.00  0.00    -0.354 OA
HETATM   14  C1  UNL     1       6.921   2.451   2.881  1.00  0.00     0.210 C 
ENDBRANCH   9  13
BRANCH  10  15
HETATM   15  N5  UNL     1       3.981   2.344   4.788  1.00  0.00    -0.345 N 
ATOM     16  H5  UNL     1       3.774   1.365   4.984  1.00  0.00     0.167 HD
BRANCH  15  17
HETATM   17  C15 UNL     1       3.268   2.959   3.773  1.00  0.00     0.223 C 
BRANCH  17  18
HETATM   18  O3  UNL     1       2.109   2.383   3.514  1.00  0.00    -0.356 OA
ATOM     19  H3  UNL     1       1.654   2.072   4.288  1.00  0.00     0.218 HD
ENDBRANCH  17  18
ENDBRANCH  15  17
ENDBRANCH  10  15
ENDBRANCH   5   6
ENDBRANCH   1   5
BRANCH   3  20
HETATM   20  C8  UNL     1       3.609   6.755  11.440  1.00  0.00     0.342 C 
BRANCH  20  21
HETATM   21  N2  UNL     1       4.718   7.582  11.828  1.00  0.00    -0.059 N 
ATOM     22  H23 UNL     1       5.562   7.024  11.956  1.00  0.00     0.275 HD
ATOM     23  H22 UNL     1       5.024   8.170  11.052  1.00  0.00     0.275 HD
ATOM     24  H21 UNL     1       4.522   8.143  12.657  1.00  0.00     0.275 HD
ENDBRANCH  20  21
BRANCH  20  25
HETATM   25  C9  UNL     1       3.103   5.958  12.600  1.00  0.00     0.121 A 
HETATM   26  N3  UNL     1       3.543   4.734  12.954  1.00  0.00    -0.352 N 
HETATM   27  C10 UNL     1       2.884   4.291  14.018  1.00  0.00     0.106 A 
ATOM     28  H3  UNL     1       4.280   4.219  12.470  1.00  0.00     0.166 HD
HETATM   29  C11 UNL     1       1.969   5.282  14.377  1.00  0.00     0.106 A 
HETATM   30  N4  UNL     1       2.136   6.287  13.481  1.00  0.00    -0.352 N 
ATOM     31  H4  UNL     1       1.609   7.160  13.474  1.00  0.00     0.166 HD
ENDBRANCH  20  25
ENDBRANCH   3  20
TORSDOF 9
ENDMDL
MODEL 3
REMARK VINA RESULT: -7.994586490      1.637      1.737
REMARK  9 active torsions:
REMARK  status: ('A' for Active; 'I' for Inactive)
REMARK    1  A    between atoms: O1_2  and  C2_3 
REMARK    2  A    between atoms: C5_6  and  C6_7 
REMARK    3  A    between atoms: C6_7  and  N1_8 
REMARK       I    between atoms: N1_8  and  C7_10 
REMARK    4  A    between atoms: C7_10  and  C8_12 
REMARK    5  A    between atoms: C8_12  and  N2_13 
REMARK    6  A    between atoms: C8_12  and  C9_17 
REMARK    7  A    between atoms: C14_26  and  N5_27 
REMARK    8  A    between atoms: N5_27  and  C15_29 
REMARK    9  A    between atoms: C15_29  and  O3_30 
ROOT
HETATM    1  N1  UNL     1       3.972   3.989   9.721  1.00  0.00    -0.290 N 
ATOM      2  H1  UNL     1       3.252   3.271   9.806  1.00  0.00     0.178 HD
HETATM    3  C7  UNL     1       4.049   5.041  10.747  1.00  0.00     0.267 C 
HETATM    4  O2  UNL     1       4.971   5.878  10.570  1.00  0.00    -0.270 OA
ENDROOT
BRANCH   1   5
HETATM    5  C6  UNL     1       4.807   3.939   8.686  1.00  0.00    -0.027 C 
BRANCH   5   6
HETATM    6  C5  UNL     1       5.684   3.885   7.604  1.00  0.00     0.035 A 
HETATM    7  C4  UNL     1       6.883   4.643   7.552  1.00  0.00     0.025 A 
HETATM    8  C3  UNL     1       7.683   4.682   6.438  1.00  0.00     0.040 A 
HETATM    9  C2  UNL     1       7.327   3.967   5.334  1.00  0.00     0.095 A 
HETATM   10  C14 UNL     1       6.151   3.198   5.346  1.00  0.00     0.074 A 
HETATM   11  C12 UNL     1       5.355   3.156   6.438  1.00  0.00    -0.013 A 
HETATM   12  C13 UNL     1       4.102   2.372   6.423  1.00  0.00     0.052 C 
BRANCH   9  13
HETATM   13  O1  UNL     1       8.068   3.956   4.181  1.00  0.00    -0.354 OA
HETATM   14  C1  UNL     1       9.131   4.844   3.956  1.00  0.00     0.210 C 
ENDBRANCH   9  13
BRANCH  10  15
HETATM   15  N5  UNL     1       5.868   2.450   4.192  1.00  0.00    -0.345 N 
ATOM     16  H5  UNL     1       5.084   2.755   3.616  1.00  0.00     0.167 HD
BRANCH  15  17
HETATM   17  C15 UNL     1       6.571   1.332   3.775  1.00  0.00     0.223 C 
BRANCH  17  18
HETATM   18  O3  UNL     1       6.538   0.333   4.636  1.00  0.00    -0.356 OA
ATOM     19  H3  UNL     1       6.351   0.602   5.528  1.00  0.00     0.218 HD
ENDBRANCH  17  18
ENDBRANCH  15  17
ENDBRANCH  10  15
ENDBRANCH   5   6
ENDBRANCH   1   5
BRANCH   3  20
HETATM   20  C8  UNL     1       3.134   5.108  11.877  1.00  0.00     0.342 C 
BRANCH  20  21
HETATM   21  N2  UNL     1       2.620   3.822  12.257  1.00  0.00    -0.059 N 
ATOM     22  H23 UNL     1       1.763   3.606  11.747  1.00  0.00     0.275 HD
ATOM     23  H22 UNL     1       3.216   3.072  11.905  1.00  0.00     0.275 HD
ATOM     24  H21 UNL     1       2.477   3.733  13.262  1.00  0.00     0.275 HD
ENDBRANCH  20  21
BRANCH  20  25
HETATM   25  C9  UNL     1       2.023   6.045  11.521  1.00  0.00     0.121 A 
HETATM   26  N3  UNL     1       2.082   6.994  10.566  1.00  0.00    -0.352 N 
HETATM   27  C10 UNL     1       0.939   7.666  10.505  1.00  0.00     0.106 A 
ATOM     28  H3  UNL     1       2.892   7.170   9.971  1.00  0.00     0.166 HD
HETATM   29  C11 UNL     1       0.090   7.123  11.472  1.00  0.00     0.106 A 
HETATM   30  N4  UNL     1       0.795   6.132  12.073  1.00  0.00    -0.352 N 
ATOM     31  H4  UNL     1       0.448   5.540  12.828  1.00  0.00     0.166 HD
ENDBRANCH  20  25
ENDBRANCH   3  20
TORSDOF 9
ENDMDL
MODEL 4
REMARK VINA RESULT: -7.945211898      2.832      3.095
REMARK  9 active torsions:
REMARK  status: ('A' for Active; 'I' for Inactive)
REMARK    1  A    between atoms: O1_2  and  C2_3 
REMARK    2  A    between atoms: C5_6  and  C6_7 
REMARK    3  A    between atoms: C6_7  and  N1_8 
REMARK       I    between atoms: N1_8  and  C7_10 
REMARK    4  A    between atoms: C7_10  and  C8_12 
REMARK    5  A    between atoms: C8_12  and  N2_13 
REMARK    6  A    between atoms: C8_12  and  C9_17 
REMARK    7  A    between atoms: C14_26  and  N5_27 
REMARK    8  A    between atoms: N5_27  and  C15_29 
REMARK    9  A    between atoms: C15_29  and  O3_30 
ROOT
HETATM    1  N1  UNL     1       5.916   5.279   9.805  1.00  0.00    -0.290 N 
ATOM      2  H1  UNL     1       6.518   4.959  10.565  1.00  0.00     0.178 HD
HETATM    3  C7  UNL     1       5.131   6.510   9.994  1.00  0.00     0.267 C 
HETATM    4  O2  UNL     1       4.425   6.837   9.005  1.00  0.00    -0.270 OA
ENDROOT
BRANCH   1   5
HETATM    5  C6  UNL     1       5.870   4.569   8.682  1.00  0.00    -0.027 C 
BRANCH   5   6
HETATM    6  C5  UNL     1       5.824   3.828   7.502  1.00  0.00     0.035 A 
HETATM    7  C4  UNL     1       6.983   3.524   6.743  1.00  0.00     0.025 A 
HETATM    8  C3  UNL     1       6.922   2.900   5.522  1.00  0.00     0.040 A 
HETATM    9  C2  UNL     1       5.709   2.548   5.010  1.00  0.00     0.095 A 
HETATM   10  C14 UNL     1       4.537   2.824   5.733  1.00  0.00     0.074 A 
HETATM   11  C12 UNL     1       4.586   3.443   6.935  1.00  0.00    -0.013 A 
HETATM   12  C13 UNL     1       3.342   3.760   7.667  1.00  0.00     0.052 C 
BRANCH   9  13
HETATM   13  O1  UNL     1       5.563   1.927   3.798  1.00  0.00    -0.354 OA
HETATM   14  C1  UNL     1       6.530   2.007   2.784  1.00  0.00     0.210 C 
ENDBRANCH   9  13
BRANCH  10  15
HETATM   15  N5  UNL     1       3.325   2.396   5.168  1.00  0.00    -0.345 N 
ATOM     16  H5  UNL     1       2.964   1.489   5.464  1.00  0.00     0.167 HD
BRANCH  15  17
HETATM   17  C15 UNL     1       2.584   3.108   4.241  1.00  0.00     0.223 C 
BRANCH  17  18
HETATM   18  O3  UNL     1       2.790   2.731   2.993  1.00  0.00    -0.356 OA
ATOM     19  H3  UNL     1       2.000   2.464   2.538  1.00  0.00     0.218 HD
ENDBRANCH  17  18
ENDBRANCH  15  17
ENDBRANCH  10  15
ENDBRANCH   5   6
ENDBRANCH   1   5
BRANCH   3  20
HETATM   20  C8  UNL     1       5.168   7.288  11.224  1.00  0.00     0.342 C 
BRANCH  20  21
HETATM   21  N2  UNL     1       3.915   7.283  11.926  1.00  0.00    -0.059 N 
ATOM     22  H23 UNL     1       3.193   7.763  11.389  1.00  0.00     0.275 HD
ATOM     23  H22 UNL     1       3.511   6.345  11.945  1.00  0.00     0.275 HD
ATOM     24  H21 UNL     1       3.987   7.668  12.867  1.00  0.00     0.275 HD
ENDBRANCH  20  21
BRANCH  20  25
HETATM   25  C9  UNL     1       5.583   8.684  10.880  1.00  0.00     0.121 A 
HETATM   26  N3  UNL     1       6.237   9.047   9.758  1.00  0.00    -0.352 N 
HETATM   27  C10 UNL     1       6.471  10.353   9.758  1.00  0.00     0.106 A 
ATOM     28  H3  UNL     1       6.513   8.406   9.014  1.00  0.00     0.166 HD
HETATM   29  C11 UNL     1       5.939  10.868  10.941  1.00  0.00     0.106 A 
HETATM   30  N4  UNL     1       5.404   9.810  11.600  1.00  0.00    -0.352 N 
ATOM     31  H4  UNL     1       4.936   9.858  12.506  1.00  0.00     0.166 HD
ENDBRANCH  20  25
ENDBRANCH   3  20
TORSDOF 9
ENDMDL
MODEL 5
REMARK VINA RESULT: -7.925193164      1.652      2.416
REMARK  9 active torsions:
REMARK  status: ('A' for Active; 'I' for Inactive)
REMARK    1  A    between atoms: O1_2  and  C2_3 
REMARK    2  A    between atoms: C5_6  and  C6_7 
REMARK    3  A    between atoms: C6_7  and  N1_8 
REMARK       I    between atoms: N1_8  and  C7_10 
REMARK    4  A    between atoms: C7_10  and  C8_12 
REMARK    5  A    between atoms: C8_12  and  N2_13 
REMARK    6  A    between atoms: C8_12  and  C9_17 
REMARK    7  A    between atoms: C14_26  and  N5_27 
REMARK    8  A    between atoms: N5_27  and  C15_29 
REMARK    9  A    between atoms: C15_29  and  O3_30 
ROOT
HETATM    1  N1  UNL     1       2.894   4.421   9.368  1.00  0.00    -0.290 N 
ATOM      2  H1  UNL     1       2.136   3.742   9.446  1.00  0.00     0.178 HD
HETATM    3  C7  UNL     1       2.808   5.670  10.142  1.00  0.00     0.267 C 
HETATM    4  O2  UNL     1       3.789   6.445   9.995  1.00  0.00    -0.270 OA
ENDROOT
BRANCH   1   5
HETATM    5  C6  UNL     1       3.923   4.144   8.571  1.00  0.00    -0.027 C 
BRANCH   5   6
HETATM    6  C5  UNL     1       5.002   3.858   7.736  1.00  0.00     0.035 A 
HETATM    7  C4  UNL     1       6.277   4.457   7.901  1.00  0.00     0.025 A 
HETATM    8  C3  UNL     1       7.301   4.267   7.007  1.00  0.00     0.040 A 
HETATM    9  C2  UNL     1       7.101   3.471   5.919  1.00  0.00     0.095 A 
HETATM   10  C14 UNL     1       5.855   2.854   5.722  1.00  0.00     0.074 A 
HETATM   11  C12 UNL     1       4.838   3.038   6.595  1.00  0.00    -0.013 A 
HETATM   12  C13 UNL     1       3.521   2.411   6.356  1.00  0.00     0.052 C 
BRANCH   9  13
HETATM   13  O1  UNL     1       8.070   3.235   4.980  1.00  0.00    -0.354 OA
HETATM   14  C1  UNL     1       8.697   4.266   4.264  1.00  0.00     0.210 C 
ENDBRANCH   9  13
BRANCH  10  15
HETATM   15  N5  UNL     1       5.731   2.012   4.606  1.00  0.00    -0.345 N 
ATOM     16  H5  UNL     1       5.959   1.027   4.732  1.00  0.00     0.167 HD
BRANCH  15  17
HETATM   17  C15 UNL     1       5.323   2.417   3.346  1.00  0.00     0.223 C 
BRANCH  17  18
HETATM   18  O3  UNL     1       6.300   2.458   2.459  1.00  0.00    -0.356 OA
ATOM     19  H3  UNL     1       6.174   1.870   1.724  1.00  0.00     0.218 HD
ENDBRANCH  17  18
ENDBRANCH  15  17
ENDBRANCH  10  15
ENDBRANCH   5   6
ENDBRANCH   1   5
BRANCH   3  20
HETATM   20  C8  UNL     1       1.682   5.985  11.008  1.00  0.00     0.342 C 
BRANCH  20  21
HETATM   21  N2  UNL     1       1.361   7.385  11.021  1.00  0.00    -0.059 N 
ATOM     22  H23 UNL     1       0.569   7.584  10.410  1.00  0.00     0.275 HD
ATOM     23  H22 UNL     1       0.953   7.658  11.915  1.00  0.00     0.275 HD
ATOM     24  H21 UNL     1       2.158   7.976  10.788  1.00  0.00     0.275 HD
ENDBRANCH  20  21
BRANCH  20  25
HETATM   25  C9  UNL     1       2.003   5.497  12.386  1.00  0.00     0.121 A 
HETATM   26  N3  UNL     1       3.112   4.813  12.729  1.00  0.00    -0.352 N 
HETATM   27  C10 UNL     1       3.093   4.514  14.023  1.00  0.00     0.106 A 
ATOM     28  H3  UNL     1       3.862   4.561  12.085  1.00  0.00     0.166 HD
HETATM   29  C11 UNL     1       1.909   5.034  14.548  1.00  0.00     0.106 A 
HETATM   30  N4  UNL     1       1.269   5.629  13.510  1.00  0.00    -0.352 N 
ATOM     31  H4  UNL     1       0.369   6.104  13.571  1.00  0.00     0.166 HD
ENDBRANCH  20  25
ENDBRANCH   3  20
TORSDOF 9
ENDMDL
