MODEL 1
REMARK VINA RESULT: -7.462308329      0.000      0.000
REMARK  8 active torsions:
REMARK  status: ('A' for Active; 'I' for Inactive)
REMARK    1  A    between atoms: C1_2  and  C2_4 
REMARK    2  A    between atoms: C2_4  and  N2_5 
REMARK    3  A    between atoms: C2_4  and  C7_17 
REMARK       I    between atoms: N2_5  and  C3_7 
REMARK    4  A    between atoms: C3_7  and  C4_9 
REMARK    5  A    between atoms: C4_9  and  N3_10 
REMARK    6  A    between atoms: C4_9  and  C5_14 
REMARK    7  A    between atoms: C5_14  and  C6_15 
REMARK    8  A    between atoms: C10_20  and  N4_21 
ROOT
HETATM    1  C2  UNL     1      -0.312   3.778  14.603  1.00  0.00     0.207 C 
ENDROOT
BRANCH   1   2
HETATM    2  C1  UNL     1      -0.577   2.930  15.758  1.00  0.00     0.258 C 
HETATM    3  N1  UNL     1      -1.314   3.348  16.902  1.00  0.00    -0.060 NA
HETATM    4  O1  UNL     1      -0.162   1.718  15.832  1.00  0.00    -0.274 OA
ENDBRANCH   1   2
BRANCH   1   5
HETATM    5  N2  UNL     1       0.695   3.246  13.695  1.00  0.00    -0.342 N 
HETATM    6  C3  UNL     1       0.380   2.650  12.459  1.00  0.00     0.249 C 
HETATM    7  O2  UNL     1      -0.821   2.576  12.125  1.00  0.00    -0.271 OA
ATOM      8  H2  UNL     1       1.676   3.308  13.968  1.00  0.00     0.163 HD
BRANCH   6   9
HETATM    9  C4  UNL     1       1.419   2.130  11.576  1.00  0.00     0.275 C 
BRANCH   9  10
HETATM   10  N3  UNL     1       1.127   2.625  10.205  1.00  0.00    -0.066 N 
ATOM     11  H33 UNL     1       0.344   2.142   9.766  1.00  0.00     0.275 HD
ATOM     12  H32 UNL     1       0.725   3.563  10.197  1.00  0.00     0.275 HD
ATOM     13  H31 UNL     1       1.991   2.558   9.666  1.00  0.00     0.275 HD
ENDBRANCH   9  10
BRANCH   9  14
HETATM   14  C5  UNL     1       1.500   0.655  11.424  1.00  0.00     0.053 C 
BRANCH  14  15
HETATM   15  C6  UNL     1       2.748  -0.017  11.854  1.00  0.00     0.088 C 
HETATM   16  S1  UNL     1       2.978   0.252  13.661  1.00  0.00    -0.098 SA
ENDBRANCH  14  15
ENDBRANCH   9  14
ENDBRANCH   6   9
ENDBRANCH   1   5
BRANCH   1  17
HETATM   17  C7  UNL     1      -0.073   5.208  14.886  1.00  0.00    -0.027 A 
HETATM   18  C8  UNL     1       1.000   5.721  15.549  1.00  0.00     0.012 A 
HETATM   19  C9  UNL     1       1.168   7.071  15.799  1.00  0.00     0.037 A 
HETATM   20  C10 UNL     1       0.200   7.952  15.356  1.00  0.00     0.102 A 
HETATM   21  C11 UNL     1      -0.894   7.478  14.686  1.00  0.00     0.037 A 
HETATM   22  C12 UNL     1      -1.033   6.120  14.451  1.00  0.00     0.012 A 
BRANCH  20  23
HETATM   23  N4  UNL     1       0.353   9.345  15.604  1.00  0.00    -0.116 N 
HETATM   24  O3  UNL     1       1.137  10.024  14.928  1.00  0.00    -0.532 OA
HETATM   25  O4  UNL     1      -0.378   9.941  16.603  1.00  0.00    -0.532 OA
ENDBRANCH  20  23
ENDBRANCH   1  17
TORSDOF 8
ENDMDL
MODEL 2
REMARK VINA RESULT: -7.379797328      1.630      1.714
REMARK  8 active torsions:
REMARK  status: ('A' for Active; 'I' for Inactive)
REMARK    1  A    between atoms: C1_2  and  C2_4 
REMARK    2  A    between atoms: C2_4  and  N2_5 
REMARK    3  A    between atoms: C2_4  and  C7_17 
REMARK       I    between atoms: N2_5  and  C3_7 
REMARK    4  A    between atoms: C3_7  and  C4_9 
REMARK    5  A    between atoms: C4_9  and  N3_10 
REMARK    6  A    between atoms: C4_9  and  C5_14 
REMARK    7  A    between atoms: C5_14  and  C6_15 
REMARK    8  A    between atoms: C10_20  and  N4_21 
ROOT
HETATM    1  C2  UNL     1      -0.687   3.493  15.423  1.00  0.00     0.207 C 
ENDROOT
BRANCH   1   2
HETATM    2  C1  UNL     1      -1.333   2.988  16.628  1.00  0.00     0.258 C 
HETATM    3  N1  UNL     1      -1.685   3.799  17.743  1.00  0.00    -0.060 NA
HETATM    4  O1  UNL     1      -1.642   1.752  16.776  1.00  0.00    -0.274 OA
ENDBRANCH   1   2
BRANCH   1   5
HETATM    5  N2  UNL     1       0.472   2.718  15.002  1.00  0.00    -0.342 N 
HETATM    6  C3  UNL     1       0.405   1.689  14.044  1.00  0.00     0.249 C 
HETATM    7  O2  UNL     1      -0.704   1.430  13.529  1.00  0.00    -0.271 OA
ATOM      8  H2  UNL     1       1.377   2.931  15.422  1.00  0.00     0.163 HD
BRANCH   6   9
HETATM    9  C4  UNL     1       1.589   0.936  13.648  1.00  0.00     0.275 C 
BRANCH   9  10
HETATM   10  N3  UNL     1       2.749   1.865  13.710  1.00  0.00    -0.066 N 
ATOM     11  H33 UNL     1       3.296   1.876  12.850  1.00  0.00     0.275 HD
ATOM     12  H32 UNL     1       2.473   2.848  13.704  1.00  0.00     0.275 HD
ATOM     13  H31 UNL     1       3.300   1.611  14.530  1.00  0.00     0.275 HD
ENDBRANCH   9  10
BRANCH   9  14
HETATM   14  C5  UNL     1       1.620   0.403  12.262  1.00  0.00     0.053 C 
BRANCH  14  15
HETATM   15  C6  UNL     1       2.198   1.262  11.203  1.00  0.00     0.088 C 
HETATM   16  S1  UNL     1       0.844   2.234  10.420  1.00  0.00    -0.098 SA
ENDBRANCH  14  15
ENDBRANCH   9  14
ENDBRANCH   6   9
ENDBRANCH   1   5
BRANCH   1  17
HETATM   17  C7  UNL     1      -0.398   4.942  15.398  1.00  0.00    -0.027 A 
HETATM   18  C8  UNL     1       0.696   5.546  15.940  1.00  0.00     0.012 A 
HETATM   19  C9  UNL     1       0.911   6.912  15.899  1.00  0.00     0.037 A 
HETATM   20  C10 UNL     1      -0.029   7.713  15.278  1.00  0.00     0.102 A 
HETATM   21  C11 UNL     1      -1.142   7.145  14.720  1.00  0.00     0.037 A 
HETATM   22  C12 UNL     1      -1.328   5.774  14.777  1.00  0.00     0.012 A 
BRANCH  20  23
HETATM   23  N4  UNL     1       0.173   9.119  15.226  1.00  0.00    -0.116 N 
HETATM   24  O3  UNL     1       1.268   9.589  14.889  1.00  0.00    -0.532 OA
HETATM   25  O4  UNL     1      -0.859   9.966  15.553  1.00  0.00    -0.532 OA
ENDBRANCH  20  23
ENDBRANCH   1  17
TORSDOF 8
ENDMDL
MODEL 3
REMARK VINA RESULT: -7.322789342      1.641      2.011
REMARK  8 active torsions:
REMARK  status: ('A' for Active; 'I' for Inactive)
REMARK    1  A    between atoms: C1_2  and  C2_4 
REMARK    2  A    between atoms: C2_4  and  N2_5 
REMARK    3  A    between atoms: C2_4  and  C7_17 
REMARK       I    between atoms: N2_5  and  C3_7 
REMARK    4  A    between atoms: C3_7  and  C4_9 
REMARK    5  A    between atoms: C4_9  and  N3_10 
REMARK    6  A    between atoms: C4_9  and  C5_14 
REMARK    7  A    between atoms: C5_14  and  C6_15 
REMARK    8  A    between atoms: C10_20  and  N4_21 
ROOT
HETATM    1  C2  UNL     1      -0.804   3.461  15.383  1.00  0.00     0.207 C 
ENDROOT
BRANCH   1   2
HETATM    2  C1  UNL     1      -1.387   2.945  16.614  1.00  0.00     0.258 C 
HETATM    3  N1  UNL     1      -1.722   3.754  17.737  1.00  0.00    -0.060 NA
HETATM    4  O1  UNL     1      -1.653   1.702  16.783  1.00  0.00    -0.274 OA
ENDBRANCH   1   2
BRANCH   1   5
HETATM    5  N2  UNL     1       0.394   2.751  14.951  1.00  0.00    -0.342 N 
HETATM    6  C3  UNL     1       0.366   1.671  14.049  1.00  0.00     0.249 C 
HETATM    7  O2  UNL     1      -0.739   1.305  13.596  1.00  0.00    -0.271 OA
ATOM      8  H2  UNL     1       1.295   3.051  15.321  1.00  0.00     0.163 HD
BRANCH   6   9
HETATM    9  C4  UNL     1       1.588   0.987  13.641  1.00  0.00     0.275 C 
BRANCH   9  10
HETATM   10  N3  UNL     1       2.692   1.982  13.685  1.00  0.00    -0.066 N 
ATOM     11  H33 UNL     1       2.752   2.546  12.837  1.00  0.00     0.275 HD
ATOM     12  H32 UNL     1       2.515   2.745  14.339  1.00  0.00     0.275 HD
ATOM     13  H31 UNL     1       3.553   1.474  13.888  1.00  0.00     0.275 HD
ENDBRANCH   9  10
BRANCH   9  14
HETATM   14  C5  UNL     1       1.633   0.449  12.257  1.00  0.00     0.053 C 
BRANCH  14  15
HETATM   15  C6  UNL     1       2.194   1.316  11.197  1.00  0.00     0.088 C 
HETATM   16  S1  UNL     1       0.824   2.270  10.418  1.00  0.00    -0.098 SA
ENDBRANCH  14  15
ENDBRANCH   9  14
ENDBRANCH   6   9
ENDBRANCH   1   5
BRANCH   1  17
HETATM   17  C7  UNL     1      -0.609   4.924  15.316  1.00  0.00    -0.027 A 
HETATM   18  C8  UNL     1      -1.478   5.820  14.771  1.00  0.00     0.012 A 
HETATM   19  C9  UNL     1      -1.239   7.181  14.722  1.00  0.00     0.037 A 
HETATM   20  C10 UNL     1      -0.058   7.666  15.252  1.00  0.00     0.102 A 
HETATM   21  C11 UNL     1       0.843   6.799  15.810  1.00  0.00     0.037 A 
HETATM   22  C12 UNL     1       0.573   5.441  15.843  1.00  0.00     0.012 A 
BRANCH  20  23
HETATM   23  N4  UNL     1       0.208   9.062  15.212  1.00  0.00    -0.116 N 
HETATM   24  O3  UNL     1       1.336   9.482  14.922  1.00  0.00    -0.532 OA
HETATM   25  O4  UNL     1      -0.798   9.954  15.497  1.00  0.00    -0.532 OA
ENDBRANCH  20  23
ENDBRANCH   1  17
TORSDOF 8
ENDMDL
MODEL 4
REMARK VINA RESULT: -7.259367576      3.048      4.196
REMARK  8 active torsions:
REMARK  status: ('A' for Active; 'I' for Inactive)
REMARK    1  A    between atoms: C1_2  and  C2_4 
REMARK    2  A    between atoms: C2_4  and  N2_5 
REMARK    3  A    between atoms: C2_4  and  C7_17 
REMARK       I    between atoms: N2_5  and  C3_7 
REMARK    4  A    between atoms: C3_7  and  C4_9 
REMARK    5  A    between atoms: C4_9  and  N3_10 
REMARK    6  A    between atoms: C4_9  and  C5_14 
REMARK    7  A    between atoms: C5_14  and  C6_15 
REMARK    8  A    between atoms: C10_20  and  N4_21 
ROOT
HETATM    1  C2  UNL     1       0.015   3.707  14.227  1.00  0.00     0.207 C 
ENDROOT
BRANCH   1   2
HETATM    2  C1  UNL     1       0.885   3.319  13.125  1.00  0.00     0.258 C 
HETATM    3  N1  UNL     1       0.541   3.458  11.750  1.00  0.00    -0.060 NA
HETATM    4  O1  UNL     1       2.051   2.817  13.310  1.00  0.00    -0.274 OA
ENDBRANCH   1   2
BRANCH   1   5
HETATM    5  N2  UNL     1      -1.336   3.169  14.133  1.00  0.00    -0.342 N 
HETATM    6  C3  UNL     1      -1.741   1.986  14.779  1.00  0.00     0.249 C 
HETATM    7  O2  UNL     1      -0.900   1.368  15.467  1.00  0.00    -0.271 OA
ATOM      8  H2  UNL     1      -2.021   3.675  13.572  1.00  0.00     0.163 HD
BRANCH   6   9
HETATM    9  C4  UNL     1      -3.104   1.481  14.661  1.00  0.00     0.275 C 
BRANCH   9  10
HETATM   10  N3  UNL     1      -3.079   0.354  13.690  1.00  0.00    -0.066 N 
ATOM     11  H33 UNL     1      -2.135   0.031  13.481  1.00  0.00     0.275 HD
ATOM     12  H32 UNL     1      -3.433  -0.518  14.083  1.00  0.00     0.275 HD
ATOM     13  H31 UNL     1      -3.591   0.654  12.860  1.00  0.00     0.275 HD
ENDBRANCH   9  10
BRANCH   9  14
HETATM   14  C5  UNL     1      -4.126   2.411  14.117  1.00  0.00     0.053 C 
BRANCH  14  15
HETATM   15  C6  UNL     1      -4.884   1.982  12.920  1.00  0.00     0.088 C 
HETATM   16  S1  UNL     1      -6.686   2.106  13.278  1.00  0.00    -0.098 SA
ENDBRANCH  14  15
ENDBRANCH   9  14
ENDBRANCH   6   9
ENDBRANCH   1   5
BRANCH   1  17
HETATM   17  C7  UNL     1      -0.005   5.144  14.567  1.00  0.00    -0.027 A 
HETATM   18  C8  UNL     1      -0.927   6.052  14.140  1.00  0.00     0.012 A 
HETATM   19  C9  UNL     1      -0.891   7.392  14.478  1.00  0.00     0.037 A 
HETATM   20  C10 UNL     1       0.131   7.843  15.292  1.00  0.00     0.102 A 
HETATM   21  C11 UNL     1       1.077   6.964  15.743  1.00  0.00     0.037 A 
HETATM   22  C12 UNL     1       1.013   5.627  15.387  1.00  0.00     0.012 A 
BRANCH  20  23
HETATM   23  N4  UNL     1       0.187   9.218  15.651  1.00  0.00    -0.116 N 
HETATM   24  O3  UNL     1       0.814  10.028  14.955  1.00  0.00    -0.532 OA
HETATM   25  O4  UNL     1      -0.462   9.651  16.782  1.00  0.00    -0.532 OA
ENDBRANCH  20  23
ENDBRANCH   1  17
TORSDOF 8
ENDMDL
MODEL 5
REMARK VINA RESULT: -7.245489058      1.800      1.942
REMARK  8 active torsions:
REMARK  status: ('A' for Active; 'I' for Inactive)
REMARK    1  A    between atoms: C1_2  and  C2_4 
REMARK    2  A    between atoms: C2_4  and  N2_5 
REMARK    3  A    between atoms: C2_4  and  C7_17 
REMARK       I    between atoms: N2_5  and  C3_7 
REMARK    4  A    between atoms: C3_7  and  C4_9 
REMARK    5  A    between atoms: C4_9  and  N3_10 
REMARK    6  A    between atoms: C4_9  and  C5_14 
REMARK    7  A    between atoms: C5_14  and  C6_15 
REMARK    8  A    between atoms: C10_20  and  N4_21 
ROOT
HETATM    1  C2  UNL     1      -1.146   3.166  13.612  1.00  0.00     0.207 C 
ENDROOT
BRANCH   1   2
HETATM    2  C1  UNL     1      -2.172   2.489  14.395  1.00  0.00     0.258 C 
HETATM    3  N1  UNL     1      -2.409   1.086  14.353  1.00  0.00    -0.060 NA
HETATM    4  O1  UNL     1      -2.951   3.116  15.198  1.00  0.00    -0.274 OA
ENDBRANCH   1   2
BRANCH   1   5
HETATM    5  N2  UNL     1      -0.298   2.267  12.841  1.00  0.00    -0.342 N 
HETATM    6  C3  UNL     1       0.421   2.673  11.701  1.00  0.00     0.249 C 
HETATM    7  O2  UNL     1       0.327   3.863  11.334  1.00  0.00    -0.271 OA
ATOM      8  H2  UNL     1      -0.221   1.295  13.143  1.00  0.00     0.163 HD
BRANCH   6   9
HETATM    9  C4  UNL     1       1.260   1.741  10.957  1.00  0.00     0.275 C 
BRANCH   9  10
HETATM   10  N3  UNL     1       0.642   1.557   9.617  1.00  0.00    -0.066 N 
ATOM     11  H33 UNL     1       1.049   0.783   9.093  1.00  0.00     0.275 HD
ATOM     12  H32 UNL     1      -0.312   1.197   9.664  1.00  0.00     0.275 HD
ATOM     13  H31 UNL     1       0.707   2.449   9.125  1.00  0.00     0.275 HD
ENDBRANCH   9  10
BRANCH   9  14
HETATM   14  C5  UNL     1       1.384   0.363  11.495  1.00  0.00     0.053 C 
BRANCH  14  15
HETATM   15  C6  UNL     1       2.732  -0.107  11.890  1.00  0.00     0.088 C 
HETATM   16  S1  UNL     1       2.983   0.240  13.682  1.00  0.00    -0.098 SA
ENDBRANCH  14  15
ENDBRANCH   9  14
ENDBRANCH   6   9
ENDBRANCH   1   5
BRANCH   1  17
HETATM   17  C7  UNL     1      -0.340   4.176  14.328  1.00  0.00    -0.027 A 
HETATM   18  C8  UNL     1       0.640   3.916  15.237  1.00  0.00     0.012 A 
HETATM   19  C9  UNL     1       1.356   4.902  15.890  1.00  0.00     0.037 A 
HETATM   20  C10 UNL     1       1.069   6.225  15.611  1.00  0.00     0.102 A 
HETATM   21  C11 UNL     1       0.091   6.530  14.704  1.00  0.00     0.037 A 
HETATM   22  C12 UNL     1      -0.608   5.519  14.066  1.00  0.00     0.012 A 
BRANCH  20  23
HETATM   23  N4  UNL     1       1.793   7.255  16.273  1.00  0.00    -0.116 N 
HETATM   24  O3  UNL     1       2.886   7.639  15.835  1.00  0.00    -0.532 OA
HETATM   25  O4  UNL     1       1.274   7.829  17.408  1.00  0.00    -0.532 OA
ENDBRANCH  20  23
ENDBRANCH   1  17
TORSDOF 8
ENDMDL
