MODEL 1
REMARK VINA RESULT: -9.182927755      0.000      0.000
REMARK  9 active torsions:
REMARK  status: ('A' for Active; 'I' for Inactive)
REMARK    1  A    between atoms: N1_1  and  C1_4 
REMARK    2  A    between atoms: C4_7  and  O1_8 
REMARK    3  A    between atoms: O1_8  and  C5_9 
REMARK    4  A    between atoms: C9_13  and  C10_14 
REMARK    5  A    between atoms: C10_14  and  N2_15 
REMARK       I    between atoms: N2_15  and  C11_17 
REMARK    6  A    between atoms: C11_17  and  C12_19 
REMARK    7  A    between atoms: C12_19  and  N3_20 
REMARK    8  A    between atoms: C12_19  and  C13_24 
REMARK    9  A    between atoms: C13_24  and  C14_25 
ROOT
HETATM    1  C5  UNL     1       0.884   4.858  14.645  1.00  0.00     0.078 A 
HETATM    2  C6  UNL     1      -0.113   5.316  13.817  1.00  0.00     0.037 A 
HETATM    3  C7  UNL     1      -0.735   6.559  13.995  1.00  0.00     0.003 A 
HETATM    4  C8  UNL     1      -0.359   7.386  15.029  1.00  0.00     0.009 A 
HETATM    5  C9  UNL     1       0.640   6.949  15.873  1.00  0.00    -0.038 A 
HETATM    6  C15 UNL     1       1.248   5.725  15.692  1.00  0.00     0.046 A 
ENDROOT
BRANCH   5   7
HETATM    7  C10 UNL     1       1.064   7.821  17.001  1.00  0.00     0.161 C 
BRANCH   7   8
HETATM    8  N2  UNL     1      -0.032   8.153  17.855  1.00  0.00    -0.355 N 
HETATM    9  C11 UNL     1       0.140   8.518  19.201  1.00  0.00     0.249 C 
HETATM   10  O2  UNL     1       1.295   8.554  19.680  1.00  0.00    -0.271 OA
ATOM     11  H2  UNL     1      -0.977   8.124  17.472  1.00  0.00     0.162 HD
BRANCH   9  12
HETATM   12  C12 UNL     1      -1.016   8.852  20.043  1.00  0.00     0.284 C 
BRANCH  12  13
HETATM   13  N3  UNL     1      -1.648   7.634  20.486  1.00  0.00    -0.066 N 
ATOM     14  H33 UNL     1      -2.552   7.804  20.927  1.00  0.00     0.275 HD
ATOM     15  H32 UNL     1      -1.974   7.061  19.707  1.00  0.00     0.275 HD
ATOM     16  H31 UNL     1      -1.007   7.127  21.097  1.00  0.00     0.275 HD
ENDBRANCH  12  13
BRANCH  12  17
HETATM   17  C13 UNL     1      -1.987   9.786  19.363  1.00  0.00     0.155 C 
BRANCH  17  18
HETATM   18  C14 UNL     1      -3.064   8.982  18.737  1.00  0.00     0.175 C 
HETATM   19  O3  UNL     1      -3.002   8.698  17.528  1.00  0.00    -0.648 OA
HETATM   20  O4  UNL     1      -4.146   8.546  19.519  1.00  0.00    -0.648 OA
ENDBRANCH  17  18
ENDBRANCH  12  17
ENDBRANCH   9  12
ENDBRANCH   7   8
ENDBRANCH   5   7
BRANCH   1  21
HETATM   21  O1  UNL     1       1.523   3.658  14.517  1.00  0.00    -0.293 OA
BRANCH  21  22
HETATM   22  C4  UNL     1       1.542   2.714  13.575  1.00  0.00     0.162 A 
HETATM   23  C3  UNL     1       0.599   1.680  13.699  1.00  0.00     0.061 A 
HETATM   24  C2  UNL     1       0.502   0.648  12.812  1.00  0.00     0.053 A 
HETATM   25  C1  UNL     1       1.367   0.613  11.742  1.00  0.00     0.113 A 
HETATM   26  N5  UNL     1       2.269   1.604  11.622  1.00  0.00    -0.284 N 
HETATM   27  N4  UNL     1       2.340   2.595  12.502  1.00  0.00    -0.278 N 
ATOM     28  H5  UNL     1       2.917   1.594  10.834  1.00  0.00     0.188 HD
ATOM     29  H4  UNL     1       3.049   3.313  12.354  1.00  0.00     0.189 HD
BRANCH  25  30
HETATM   30  N1  UNL     1       1.287  -0.354  10.897  1.00  0.00    -0.384 N 
ATOM     31  H12 UNL     1       0.783  -1.217  11.099  1.00  0.00     0.157 HD
ATOM     32  H11 UNL     1       1.741  -0.263   9.988  1.00  0.00     0.157 HD
ENDBRANCH  25  30
ENDBRANCH  21  22
ENDBRANCH   1  21
TORSDOF 9
ENDMDL
MODEL 2
REMARK VINA RESULT: -9.025063544      1.793      2.751
REMARK  9 active torsions:
REMARK  status: ('A' for Active; 'I' for Inactive)
REMARK    1  A    between atoms: N1_1  and  C1_4 
REMARK    2  A    between atoms: C4_7  and  O1_8 
REMARK    3  A    between atoms: O1_8  and  C5_9 
REMARK    4  A    between atoms: C9_13  and  C10_14 
REMARK    5  A    between atoms: C10_14  and  N2_15 
REMARK       I    between atoms: N2_15  and  C11_17 
REMARK    6  A    between atoms: C11_17  and  C12_19 
REMARK    7  A    between atoms: C12_19  and  N3_20 
REMARK    8  A    between atoms: C12_19  and  C13_24 
REMARK    9  A    between atoms: C13_24  and  C14_25 
ROOT
HETATM    1  C5  UNL     1      -0.016   4.235  13.748  1.00  0.00     0.078 A 
HETATM    2  C6  UNL     1      -0.987   3.411  14.264  1.00  0.00     0.037 A 
HETATM    3  C7  UNL     1      -2.149   3.901  14.876  1.00  0.00     0.003 A 
HETATM    4  C8  UNL     1      -2.365   5.256  14.982  1.00  0.00     0.009 A 
HETATM    5  C9  UNL     1      -1.404   6.102  14.472  1.00  0.00    -0.038 A 
HETATM    6  C15 UNL     1      -0.263   5.614  13.871  1.00  0.00     0.046 A 
ENDROOT
BRANCH   5   7
HETATM    7  C10 UNL     1      -1.608   7.572  14.577  1.00  0.00     0.161 C 
BRANCH   7   8
HETATM    8  N2  UNL     1      -0.727   8.163  15.534  1.00  0.00    -0.355 N 
HETATM    9  C11 UNL     1      -1.174   8.663  16.768  1.00  0.00     0.249 C 
HETATM   10  O2  UNL     1      -2.392   8.594  17.048  1.00  0.00    -0.271 OA
ATOM     11  H2  UNL     1       0.267   8.223  15.312  1.00  0.00     0.162 HD
BRANCH   9  12
HETATM   12  C12 UNL     1      -0.233   9.262  17.723  1.00  0.00     0.284 C 
BRANCH  12  13
HETATM   13  N3  UNL     1       0.955   8.447  17.792  1.00  0.00    -0.066 N 
ATOM     14  H33 UNL     1       1.147   8.122  18.739  1.00  0.00     0.275 HD
ATOM     15  H32 UNL     1       0.826   7.537  17.350  1.00  0.00     0.275 HD
ATOM     16  H31 UNL     1       1.739   8.964  17.393  1.00  0.00     0.275 HD
ENDBRANCH  12  13
BRANCH  12  17
HETATM   17  C13 UNL     1      -0.846   9.496  19.082  1.00  0.00     0.155 C 
BRANCH  17  18
HETATM   18  C14 UNL     1      -0.111   8.685  20.082  1.00  0.00     0.175 C 
HETATM   19  O3  UNL     1       0.953   9.111  20.565  1.00  0.00    -0.648 OA
HETATM   20  O4  UNL     1      -0.626   7.439  20.476  1.00  0.00    -0.648 OA
ENDBRANCH  17  18
ENDBRANCH  12  17
ENDBRANCH   9  12
ENDBRANCH   7   8
ENDBRANCH   5   7
BRANCH   1  21
HETATM   21  O1  UNL     1       1.133   3.812  13.143  1.00  0.00    -0.293 OA
BRANCH  21  22
HETATM   22  C4  UNL     1       1.695   2.617  12.954  1.00  0.00     0.162 A 
HETATM   23  C3  UNL     1       1.313   1.915  11.800  1.00  0.00     0.061 A 
HETATM   24  C2  UNL     1       1.805   0.684  11.477  1.00  0.00     0.053 A 
HETATM   25  C1  UNL     1       2.720   0.097  12.320  1.00  0.00     0.113 A 
HETATM   26  N5  UNL     1       3.088   0.770  13.426  1.00  0.00    -0.284 N 
HETATM   27  N4  UNL     1       2.591   1.966  13.714  1.00  0.00    -0.278 N 
ATOM     28  H5  UNL     1       3.767   0.348  14.060  1.00  0.00     0.188 HD
ATOM     29  H4  UNL     1       2.910   2.420  14.569  1.00  0.00     0.189 HD
BRANCH  25  30
HETATM   30  N1  UNL     1       3.193  -1.064  12.028  1.00  0.00    -0.384 N 
ATOM     31  H12 UNL     1       3.973  -1.191  11.384  1.00  0.00     0.157 HD
ATOM     32  H11 UNL     1       2.778  -1.894  12.451  1.00  0.00     0.157 HD
ENDBRANCH  25  30
ENDBRANCH  21  22
ENDBRANCH   1  21
TORSDOF 9
ENDMDL
MODEL 3
REMARK VINA RESULT: -8.936912647      1.108      1.335
REMARK  9 active torsions:
REMARK  status: ('A' for Active; 'I' for Inactive)
REMARK    1  A    between atoms: N1_1  and  C1_4 
REMARK    2  A    between atoms: C4_7  and  O1_8 
REMARK    3  A    between atoms: O1_8  and  C5_9 
REMARK    4  A    between atoms: C9_13  and  C10_14 
REMARK    5  A    between atoms: C10_14  and  N2_15 
REMARK       I    between atoms: N2_15  and  C11_17 
REMARK    6  A    between atoms: C11_17  and  C12_19 
REMARK    7  A    between atoms: C12_19  and  N3_20 
REMARK    8  A    between atoms: C12_19  and  C13_24 
REMARK    9  A    between atoms: C13_24  and  C14_25 
ROOT
HETATM    1  C5  UNL     1       0.784   4.776  14.711  1.00  0.00     0.078 A 
HETATM    2  C6  UNL     1      -0.232   5.232  13.906  1.00  0.00     0.037 A 
HETATM    3  C7  UNL     1      -0.786   6.513  14.037  1.00  0.00     0.003 A 
HETATM    4  C8  UNL     1      -0.318   7.381  14.998  1.00  0.00     0.009 A 
HETATM    5  C9  UNL     1       0.702   6.946  15.817  1.00  0.00    -0.038 A 
HETATM    6  C15 UNL     1       1.242   5.685  15.683  1.00  0.00     0.046 A 
ENDROOT
BRANCH   5   7
HETATM    7  C10 UNL     1       1.224   7.862  16.867  1.00  0.00     0.161 C 
BRANCH   7   8
HETATM    8  N2  UNL     1       0.282   8.047  17.925  1.00  0.00    -0.355 N 
HETATM    9  C11 UNL     1      -0.535   9.186  18.020  1.00  0.00     0.249 C 
HETATM   10  O2  UNL     1      -0.439  10.080  17.150  1.00  0.00    -0.271 OA
ATOM     11  H2  UNL     1       0.199   7.324  18.639  1.00  0.00     0.162 HD
BRANCH   9  12
HETATM   12  C12 UNL     1      -1.491   9.336  19.125  1.00  0.00     0.284 C 
BRANCH  12  13
HETATM   13  N3  UNL     1      -0.913   8.790  20.329  1.00  0.00    -0.066 N 
ATOM     14  H33 UNL     1      -0.638   7.814  20.217  1.00  0.00     0.275 HD
ATOM     15  H32 UNL     1       0.009   9.178  20.527  1.00  0.00     0.275 HD
ATOM     16  H31 UNL     1      -1.565   8.923  21.103  1.00  0.00     0.275 HD
ENDBRANCH  12  13
BRANCH  12  17
HETATM   17  C13 UNL     1      -2.842   8.740  18.817  1.00  0.00     0.155 C 
BRANCH  17  18
HETATM   18  C14 UNL     1      -2.963   7.443  19.525  1.00  0.00     0.175 C 
HETATM   19  O3  UNL     1      -3.734   7.336  20.495  1.00  0.00    -0.648 OA
HETATM   20  O4  UNL     1      -2.204   6.344  19.091  1.00  0.00    -0.648 OA
ENDBRANCH  17  18
ENDBRANCH  12  17
ENDBRANCH   9  12
ENDBRANCH   7   8
ENDBRANCH   5   7
BRANCH   1  21
HETATM   21  O1  UNL     1       1.358   3.540  14.627  1.00  0.00    -0.293 OA
BRANCH  21  22
HETATM   22  C4  UNL     1       1.448   2.623  13.662  1.00  0.00     0.162 A 
HETATM   23  C3  UNL     1       0.550   1.546  13.730  1.00  0.00     0.061 A 
HETATM   24  C2  UNL     1       0.526   0.536  12.814  1.00  0.00     0.053 A 
HETATM   25  C1  UNL     1       1.423   0.568  11.772  1.00  0.00     0.113 A 
HETATM   26  N5  UNL     1       2.284   1.600  11.706  1.00  0.00    -0.284 N 
HETATM   27  N4  UNL     1       2.284   2.568  12.613  1.00  0.00    -0.278 N 
ATOM     28  H5  UNL     1       2.955   1.639  10.938  1.00  0.00     0.188 HD
ATOM     29  H4  UNL     1       2.964   3.321  12.505  1.00  0.00     0.189 HD
BRANCH  25  30
HETATM   30  N1  UNL     1       1.412  -0.379  10.900  1.00  0.00    -0.384 N 
ATOM     31  H12 UNL     1       0.727  -0.420  10.146  1.00  0.00     0.157 HD
ATOM     32  H11 UNL     1       2.110  -1.120  10.957  1.00  0.00     0.157 HD
ENDBRANCH  25  30
ENDBRANCH  21  22
ENDBRANCH   1  21
TORSDOF 9
ENDMDL
MODEL 4
REMARK VINA RESULT: -8.920355587      2.083      3.109
REMARK  9 active torsions:
REMARK  status: ('A' for Active; 'I' for Inactive)
REMARK    1  A    between atoms: N1_1  and  C1_4 
REMARK    2  A    between atoms: C4_7  and  O1_8 
REMARK    3  A    between atoms: O1_8  and  C5_9 
REMARK    4  A    between atoms: C9_13  and  C10_14 
REMARK    5  A    between atoms: C10_14  and  N2_15 
REMARK       I    between atoms: N2_15  and  C11_17 
REMARK    6  A    between atoms: C11_17  and  C12_19 
REMARK    7  A    between atoms: C12_19  and  N3_20 
REMARK    8  A    between atoms: C12_19  and  C13_24 
REMARK    9  A    between atoms: C13_24  and  C14_25 
ROOT
HETATM    1  C5  UNL     1      -0.878   4.166  14.120  1.00  0.00     0.078 A 
HETATM    2  C6  UNL     1      -1.784   3.145  14.283  1.00  0.00     0.037 A 
HETATM    3  C7  UNL     1      -3.020   3.324  14.919  1.00  0.00     0.003 A 
HETATM    4  C8  UNL     1      -3.379   4.557  15.414  1.00  0.00     0.009 A 
HETATM    5  C9  UNL     1      -2.486   5.597  15.263  1.00  0.00    -0.038 A 
HETATM    6  C15 UNL     1      -1.272   5.414  14.636  1.00  0.00     0.046 A 
ENDROOT
BRANCH   5   7
HETATM    7  C10 UNL     1      -2.846   6.939  15.792  1.00  0.00     0.161 C 
BRANCH   7   8
HETATM    8  N2  UNL     1      -1.809   7.482  16.611  1.00  0.00    -0.355 N 
HETATM    9  C11 UNL     1      -1.152   8.685  16.305  1.00  0.00     0.249 C 
HETATM   10  O2  UNL     1      -1.480   9.313  15.273  1.00  0.00    -0.271 OA
ATOM     11  H2  UNL     1      -1.536   6.975  17.453  1.00  0.00     0.162 HD
BRANCH   9  12
HETATM   12  C12 UNL     1      -0.091   9.207  17.176  1.00  0.00     0.284 C 
BRANCH  12  13
HETATM   13  N3  UNL     1       1.023   8.291  17.167  1.00  0.00    -0.066 N 
ATOM     14  H33 UNL     1       0.981   7.638  16.384  1.00  0.00     0.275 HD
ATOM     15  H32 UNL     1       1.900   8.751  16.923  1.00  0.00     0.275 HD
ATOM     16  H31 UNL     1       1.072   7.814  18.067  1.00  0.00     0.275 HD
ENDBRANCH  12  13
BRANCH  12  17
HETATM   17  C13 UNL     1      -0.575   9.505  18.574  1.00  0.00     0.155 C 
BRANCH  17  18
HETATM   18  C14 UNL     1       0.049   8.540  19.511  1.00  0.00     0.175 C 
HETATM   19  O3  UNL     1       0.966   8.912  20.265  1.00  0.00    -0.648 OA
HETATM   20  O4  UNL     1      -0.402   7.210  19.536  1.00  0.00    -0.648 OA
ENDBRANCH  17  18
ENDBRANCH  12  17
ENDBRANCH   9  12
ENDBRANCH   7   8
ENDBRANCH   5   7
BRANCH   1  21
HETATM   21  O1  UNL     1       0.338   4.048  13.510  1.00  0.00    -0.293 OA
BRANCH  21  22
HETATM   22  C4  UNL     1       1.150   3.021  13.252  1.00  0.00     0.162 A 
HETATM   23  C3  UNL     1       1.076   2.466  11.964  1.00  0.00     0.061 A 
HETATM   24  C2  UNL     1       1.845   1.414  11.560  1.00  0.00     0.053 A 
HETATM   25  C1  UNL     1       2.737   0.867  12.452  1.00  0.00     0.113 A 
HETATM   26  N5  UNL     1       2.809   1.399  13.686  1.00  0.00    -0.284 N 
HETATM   27  N4  UNL     1       2.047   2.422  14.051  1.00  0.00    -0.278 N 
ATOM     28  H5  UNL     1       3.467   1.005  14.359  1.00  0.00     0.188 HD
ATOM     29  H4  UNL     1       2.150   2.776  15.002  1.00  0.00     0.189 HD
BRANCH  25  30
HETATM   30  N1  UNL     1       3.470  -0.126  12.085  1.00  0.00    -0.384 N 
ATOM     31  H12 UNL     1       3.115  -0.878  11.493  1.00  0.00     0.157 HD
ATOM     32  H11 UNL     1       4.441  -0.171  12.391  1.00  0.00     0.157 HD
ENDBRANCH  25  30
ENDBRANCH  21  22
ENDBRANCH   1  21
TORSDOF 9
ENDMDL
MODEL 5
REMARK VINA RESULT: -8.858489988      2.634      3.179
REMARK  9 active torsions:
REMARK  status: ('A' for Active; 'I' for Inactive)
REMARK    1  A    between atoms: N1_1  and  C1_4 
REMARK    2  A    between atoms: C4_7  and  O1_8 
REMARK    3  A    between atoms: O1_8  and  C5_9 
REMARK    4  A    between atoms: C9_13  and  C10_14 
REMARK    5  A    between atoms: C10_14  and  N2_15 
REMARK       I    between atoms: N2_15  and  C11_17 
REMARK    6  A    between atoms: C11_17  and  C12_19 
REMARK    7  A    between atoms: C12_19  and  N3_20 
REMARK    8  A    between atoms: C12_19  and  C13_24 
REMARK    9  A    between atoms: C13_24  and  C14_25 
ROOT
HETATM    1  C5  UNL     1      -0.450   3.446  16.422  1.00  0.00     0.078 A 
HETATM    2  C6  UNL     1      -1.198   2.299  16.543  1.00  0.00     0.037 A 
HETATM    3  C7  UNL     1      -2.316   2.209  17.384  1.00  0.00     0.003 A 
HETATM    4  C8  UNL     1      -2.715   3.291  18.134  1.00  0.00     0.009 A 
HETATM    5  C9  UNL     1      -1.979   4.453  18.030  1.00  0.00    -0.038 A 
HETATM    6  C15 UNL     1      -0.881   4.535  17.201  1.00  0.00     0.046 A 
ENDROOT
BRANCH   5   7
HETATM    7  C10 UNL     1      -2.384   5.637  18.834  1.00  0.00     0.161 C 
BRANCH   7   8
HETATM    8  N2  UNL     1      -1.713   6.823  18.405  1.00  0.00    -0.355 N 
HETATM    9  C11 UNL     1      -0.819   7.527  19.228  1.00  0.00     0.249 C 
HETATM   10  O2  UNL     1      -0.595   7.107  20.385  1.00  0.00    -0.271 OA
ATOM     11  H2  UNL     1      -1.891   7.173  17.463  1.00  0.00     0.162 HD
BRANCH   9  12
HETATM   12  C12 UNL     1      -0.149   8.743  18.746  1.00  0.00     0.284 C 
BRANCH  12  13
HETATM   13  N3  UNL     1      -1.057   9.858  18.856  1.00  0.00    -0.066 N 
ATOM     14  H33 UNL     1      -0.811  10.621  18.226  1.00  0.00     0.275 HD
ATOM     15  H32 UNL     1      -1.979   9.647  18.474  1.00  0.00     0.275 HD
ATOM     16  H31 UNL     1      -1.101  10.158  19.830  1.00  0.00     0.275 HD
ENDBRANCH  12  13
BRANCH  12  17
HETATM   17  C13 UNL     1       0.406   8.593  17.351  1.00  0.00     0.155 C 
BRANCH  17  18
HETATM   18  C14 UNL     1      -0.455   9.350  16.411  1.00  0.00     0.175 C 
HETATM   19  O3  UNL     1      -0.034  10.398  15.891  1.00  0.00    -0.648 OA
HETATM   20  O4  UNL     1      -1.743   8.874  16.116  1.00  0.00    -0.648 OA
ENDBRANCH  17  18
ENDBRANCH  12  17
ENDBRANCH   9  12
ENDBRANCH   7   8
ENDBRANCH   5   7
BRANCH   1  21
HETATM   21  O1  UNL     1       0.645   3.588  15.620  1.00  0.00    -0.293 OA
BRANCH  21  22
HETATM   22  C4  UNL     1       0.961   3.160  14.396  1.00  0.00     0.162 A 
HETATM   23  C3  UNL     1       0.174   3.642  13.337  1.00  0.00     0.061 A 
HETATM   24  C2  UNL     1       0.380   3.290  12.035  1.00  0.00     0.053 A 
HETATM   25  C1  UNL     1       1.405   2.422  11.740  1.00  0.00     0.113 A 
HETATM   26  N5  UNL     1       2.159   1.960  12.754  1.00  0.00    -0.284 N 
HETATM   27  N4  UNL     1       1.935   2.320  14.011  1.00  0.00    -0.278 N 
ATOM     28  H5  UNL     1       2.925   1.317  12.551  1.00  0.00     0.188 HD
ATOM     29  H4  UNL     1       2.542   1.932  14.733  1.00  0.00     0.189 HD
BRANCH  25  30
HETATM   30  N1  UNL     1       1.611   2.082  10.515  1.00  0.00    -0.384 N 
ATOM     31  H12 UNL     1       0.890   1.649   9.939  1.00  0.00     0.157 HD
ATOM     32  H11 UNL     1       2.526   2.248  10.098  1.00  0.00     0.157 HD
ENDBRANCH  25  30
ENDBRANCH  21  22
ENDBRANCH   1  21
TORSDOF 9
ENDMDL
