MODEL 1
REMARK VINA RESULT: -8.511952558      0.000      0.000
REMARK  9 active torsions:
REMARK  status: ('A' for Active; 'I' for Inactive)
REMARK    1  A    between atoms: C2_2  and  C3_4 
REMARK    2  A    between atoms: C3_4  and  O2_5 
REMARK    3  A    between atoms: O2_5  and  C4_6 
REMARK    4  A    between atoms: C9_11  and  O3_12 
REMARK    5  A    between atoms: O3_12  and  C10_13 
REMARK    6  A    between atoms: C10_13  and  C11_14 
REMARK    7  A    between atoms: C11_14  and  O4_15 
REMARK    8  A    between atoms: C11_14  and  C12_17 
REMARK    9  A    between atoms: C14_21  and  N2_22 
ROOT
HETATM    1  C11 UNL     1       0.582   3.156  15.236  1.00  0.00     0.082 C 
ENDROOT
BRANCH   1   2
HETATM    2  C10 UNL     1       0.934   4.454  15.789  1.00  0.00     0.241 C 
BRANCH   2   3
HETATM    3  O3  UNL     1      -0.076   5.250  16.286  1.00  0.00    -0.342 OA
BRANCH   3   4
HETATM    4  C9  UNL     1      -0.488   6.427  15.719  1.00  0.00     0.102 A 
HETATM    5  C4  UNL     1      -0.153   7.602  16.437  1.00  0.00     0.102 A 
HETATM    6  C5  UNL     1      -0.538   8.816  15.918  1.00  0.00     0.039 A 
HETATM    7  C6  UNL     1      -1.243   8.901  14.718  1.00  0.00     0.003 A 
HETATM    8  C7  UNL     1      -1.565   7.757  14.028  1.00  0.00     0.003 A 
HETATM    9  C8  UNL     1      -1.183   6.542  14.539  1.00  0.00     0.039 A 
BRANCH   5  10
HETATM   10  O2  UNL     1       0.541   7.423  17.613  1.00  0.00    -0.341 OA
BRANCH  10  11
HETATM   11  C3  UNL     1       0.531   8.370  18.637  1.00  0.00     0.253 C 
BRANCH  11  12
HETATM   12  C2  UNL     1      -0.567   8.232  19.616  1.00  0.00     0.146 C 
HETATM   13  C1  UNL     1      -1.677   9.240  19.624  1.00  0.00     0.093 C 
HETATM   14  O1  UNL     1      -0.638   7.339  20.434  1.00  0.00    -0.296 OA
ENDBRANCH  11  12
ENDBRANCH  10  11
ENDBRANCH   5  10
ENDBRANCH   3   4
ENDBRANCH   2   3
ENDBRANCH   1   2
BRANCH   1  15
HETATM   15  O4  UNL     1       0.163   2.248  16.073  1.00  0.00    -0.362 OA
ATOM     16  H4  UNL     1      -0.132   1.423  15.704  1.00  0.00     0.217 HD
ENDBRANCH   1  15
BRANCH   1  17
HETATM   17  C12 UNL     1       0.656   2.794  13.843  1.00  0.00     0.055 A 
HETATM   18  C13 UNL     1      -0.530   2.817  13.113  1.00  0.00     0.124 A 
HETATM   19  N1  UNL     1      -0.528   2.564  11.808  1.00  0.00    -0.201 N 
HETATM   20  C14 UNL     1       0.620   2.283  11.193  1.00  0.00     0.677 A 
ATOM     21  H1  UNL     1      -1.401   2.584  11.282  1.00  0.00     0.183 HD
HETATM   22  N3  UNL     1       1.775   2.249  11.853  1.00  0.00    -0.176 N 
HETATM   23  C15 UNL     1       1.836   2.501  13.201  1.00  0.00     0.129 A 
ATOM     24  H3  UNL     1       2.634   2.032  11.346  1.00  0.00     0.186 HD
HETATM   25  N4  UNL     1       2.970   2.351  13.782  1.00  0.00    -0.384 N 
ATOM     26  H42 UNL     1       3.014   2.537  14.784  1.00  0.00     0.157 HD
ATOM     27  H41 UNL     1       3.845   2.133  13.305  1.00  0.00     0.157 HD
BRANCH  20  28
HETATM   28  N2  UNL     1       0.615   2.036   9.909  1.00  0.00    -0.234 N 
ATOM     29  H22 UNL     1       0.723   2.812   9.255  1.00  0.00     0.174 HD
ATOM     30  H21 UNL     1       0.501   1.076   9.585  1.00  0.00     0.174 HD
ENDBRANCH  20  28
ENDBRANCH   1  17
TORSDOF 9
ENDMDL
MODEL 2
REMARK VINA RESULT: -8.496571700      1.307      2.780
REMARK  9 active torsions:
REMARK  status: ('A' for Active; 'I' for Inactive)
REMARK    1  A    between atoms: C2_2  and  C3_4 
REMARK    2  A    between atoms: C3_4  and  O2_5 
REMARK    3  A    between atoms: O2_5  and  C4_6 
REMARK    4  A    between atoms: C9_11  and  O3_12 
REMARK    5  A    between atoms: O3_12  and  C10_13 
REMARK    6  A    between atoms: C10_13  and  C11_14 
REMARK    7  A    between atoms: C11_14  and  O4_15 
REMARK    8  A    between atoms: C11_14  and  C12_17 
REMARK    9  A    between atoms: C14_21  and  N2_22 
ROOT
HETATM    1  C11 UNL     1       0.352   3.456  15.038  1.00  0.00     0.082 C 
ENDROOT
BRANCH   1   2
HETATM    2  C10 UNL     1       0.001   4.813  15.426  1.00  0.00     0.241 C 
BRANCH   2   3
HETATM    3  O3  UNL     1       0.733   5.419  16.425  1.00  0.00    -0.342 OA
BRANCH   3   4
HETATM    4  C9  UNL     1       0.192   6.156  17.446  1.00  0.00     0.102 A 
HETATM    5  C4  UNL     1       0.658   7.491  17.546  1.00  0.00     0.102 A 
HETATM    6  C5  UNL     1       0.152   8.283  18.551  1.00  0.00     0.039 A 
HETATM    7  C6  UNL     1      -0.793   7.796  19.453  1.00  0.00     0.003 A 
HETATM    8  C7  UNL     1      -1.239   6.501  19.349  1.00  0.00     0.003 A 
HETATM    9  C8  UNL     1      -0.739   5.704  18.348  1.00  0.00     0.039 A 
BRANCH   5  10
HETATM   10  O2  UNL     1       1.593   7.886  16.616  1.00  0.00    -0.341 OA
BRANCH  10  11
HETATM   11  C3  UNL     1       1.243   8.264  15.320  1.00  0.00     0.253 C 
BRANCH  11  12
HETATM   12  C2  UNL     1       0.050   9.128  15.213  1.00  0.00     0.146 C 
HETATM   13  C1  UNL     1      -1.214   8.570  14.632  1.00  0.00     0.093 C 
HETATM   14  O1  UNL     1       0.018  10.287  15.570  1.00  0.00    -0.296 OA
ENDBRANCH  11  12
ENDBRANCH  10  11
ENDBRANCH   5  10
ENDBRANCH   3   4
ENDBRANCH   2   3
ENDBRANCH   1   2
BRANCH   1  15
HETATM   15  O4  UNL     1       0.541   2.594  15.998  1.00  0.00    -0.362 OA
ATOM     16  H4  UNL     1       1.437   2.334  16.176  1.00  0.00     0.217 HD
ENDBRANCH   1  15
BRANCH   1  17
HETATM   17  C12 UNL     1       0.503   2.987  13.683  1.00  0.00     0.055 A 
HETATM   18  C13 UNL     1      -0.643   2.931  12.894  1.00  0.00     0.124 A 
HETATM   19  N1  UNL     1      -0.569   2.576  11.616  1.00  0.00    -0.201 N 
HETATM   20  C14 UNL     1       0.613   2.269  11.084  1.00  0.00     0.677 A 
ATOM     21  H1  UNL     1      -1.413   2.538  11.045  1.00  0.00     0.183 HD
HETATM   22  N3  UNL     1       1.733   2.308  11.803  1.00  0.00    -0.176 N 
HETATM   23  C15 UNL     1       1.720   2.666  13.128  1.00  0.00     0.129 A 
ATOM     24  H3  UNL     1       2.620   2.067  11.360  1.00  0.00     0.186 HD
HETATM   25  N4  UNL     1       2.823   2.582  13.777  1.00  0.00    -0.384 N 
ATOM     26  H42 UNL     1       2.812   2.848  14.761  1.00  0.00     0.157 HD
ATOM     27  H41 UNL     1       3.725   2.344  13.364  1.00  0.00     0.157 HD
BRANCH  20  28
HETATM   28  N2  UNL     1       0.679   1.922   9.825  1.00  0.00    -0.234 N 
ATOM     29  H22 UNL     1       0.153   1.107   9.508  1.00  0.00     0.174 HD
ATOM     30  H21 UNL     1       1.255   2.469   9.185  1.00  0.00     0.174 HD
ENDBRANCH  20  28
ENDBRANCH   1  17
TORSDOF 9
ENDMDL
MODEL 3
REMARK VINA RESULT: -8.424312593      1.756      2.692
REMARK  9 active torsions:
REMARK  status: ('A' for Active; 'I' for Inactive)
REMARK    1  A    between atoms: C2_2  and  C3_4 
REMARK    2  A    between atoms: C3_4  and  O2_5 
REMARK    3  A    between atoms: O2_5  and  C4_6 
REMARK    4  A    between atoms: C9_11  and  O3_12 
REMARK    5  A    between atoms: O3_12  and  C10_13 
REMARK    6  A    between atoms: C10_13  and  C11_14 
REMARK    7  A    between atoms: C11_14  and  O4_15 
REMARK    8  A    between atoms: C11_14  and  C12_17 
REMARK    9  A    between atoms: C14_21  and  N2_22 
ROOT
HETATM    1  C11 UNL     1       0.497   3.110  15.181  1.00  0.00     0.082 C 
ENDROOT
BRANCH   1   2
HETATM    2  C10 UNL     1       0.479   4.465  15.707  1.00  0.00     0.241 C 
BRANCH   2   3
HETATM    3  O3  UNL     1       0.399   4.636  17.073  1.00  0.00    -0.342 OA
BRANCH   3   4
HETATM    4  C9  UNL     1      -0.747   4.966  17.749  1.00  0.00     0.102 A 
HETATM    5  C4  UNL     1      -0.726   6.221  18.408  1.00  0.00     0.102 A 
HETATM    6  C5  UNL     1      -1.848   6.610  19.103  1.00  0.00     0.039 A 
HETATM    7  C6  UNL     1      -2.980   5.798  19.167  1.00  0.00     0.003 A 
HETATM    8  C7  UNL     1      -2.991   4.583  18.526  1.00  0.00     0.003 A 
HETATM    9  C8  UNL     1      -1.876   4.188  17.829  1.00  0.00     0.039 A 
BRANCH   5  10
HETATM   10  O2  UNL     1       0.434   6.954  18.294  1.00  0.00    -0.341 OA
BRANCH  10  11
HETATM   11  C3  UNL     1       0.430   8.341  18.157  1.00  0.00     0.253 C 
BRANCH  11  12
HETATM   12  C2  UNL     1       0.164   8.842  16.792  1.00  0.00     0.146 C 
HETATM   13  C1  UNL     1       0.833   8.183  15.624  1.00  0.00     0.093 C 
HETATM   14  O1  UNL     1      -0.575   9.770  16.543  1.00  0.00    -0.296 OA
ENDBRANCH  11  12
ENDBRANCH  10  11
ENDBRANCH   5  10
ENDBRANCH   3   4
ENDBRANCH   2   3
ENDBRANCH   1   2
BRANCH   1  15
HETATM   15  O4  UNL     1       0.404   2.136  16.043  1.00  0.00    -0.362 OA
ATOM     16  H4  UNL     1       1.093   1.482  16.034  1.00  0.00     0.217 HD
ENDBRANCH   1  15
BRANCH   1  17
HETATM   17  C12 UNL     1       0.606   2.756  13.787  1.00  0.00     0.055 A 
HETATM   18  C13 UNL     1      -0.557   2.803  13.023  1.00  0.00     0.124 A 
HETATM   19  N1  UNL     1      -0.520   2.559  11.717  1.00  0.00    -0.201 N 
HETATM   20  C14 UNL     1       0.640   2.265  11.134  1.00  0.00     0.677 A 
ATOM     21  H1  UNL     1      -1.377   2.597  11.165  1.00  0.00     0.183 HD
HETATM   22  N3  UNL     1       1.775   2.208  11.827  1.00  0.00    -0.176 N 
HETATM   23  C15 UNL     1       1.800   2.449  13.178  1.00  0.00     0.129 A 
ATOM     24  H3  UNL     1       2.645   1.980  11.345  1.00  0.00     0.186 HD
HETATM   25  N4  UNL     1       2.913   2.276  13.792  1.00  0.00    -0.384 N 
ATOM     26  H42 UNL     1       2.931   2.455  14.796  1.00  0.00     0.157 HD
ATOM     27  H41 UNL     1       3.799   2.048  13.339  1.00  0.00     0.157 HD
BRANCH  20  28
HETATM   28  N2  UNL     1       0.670   2.027   9.848  1.00  0.00    -0.234 N 
ATOM     29  H22 UNL     1      -0.211   1.918   9.345  1.00  0.00     0.174 HD
ATOM     30  H21 UNL     1       1.570   1.955   9.373  1.00  0.00     0.174 HD
ENDBRANCH  20  28
ENDBRANCH   1  17
TORSDOF 9
ENDMDL
MODEL 4
REMARK VINA RESULT: -8.419488500      1.070      1.203
REMARK  9 active torsions:
REMARK  status: ('A' for Active; 'I' for Inactive)
REMARK    1  A    between atoms: C2_2  and  C3_4 
REMARK    2  A    between atoms: C3_4  and  O2_5 
REMARK    3  A    between atoms: O2_5  and  C4_6 
REMARK    4  A    between atoms: C9_11  and  O3_12 
REMARK    5  A    between atoms: O3_12  and  C10_13 
REMARK    6  A    between atoms: C10_13  and  C11_14 
REMARK    7  A    between atoms: C11_14  and  O4_15 
REMARK    8  A    between atoms: C11_14  and  C12_17 
REMARK    9  A    between atoms: C14_21  and  N2_22 
ROOT
HETATM    1  C11 UNL     1       0.908   3.740  14.948  1.00  0.00     0.082 C 
ENDROOT
BRANCH   1   2
HETATM    2  C10 UNL     1       1.305   5.101  15.268  1.00  0.00     0.241 C 
BRANCH   2   3
HETATM    3  O3  UNL     1       0.501   5.837  16.112  1.00  0.00    -0.342 OA
BRANCH   3   4
HETATM    4  C9  UNL     1      -0.553   6.611  15.702  1.00  0.00     0.102 A 
HETATM    5  C4  UNL     1      -1.539   6.870  16.687  1.00  0.00     0.102 A 
HETATM    6  C5  UNL     1      -2.622   7.642  16.337  1.00  0.00     0.039 A 
HETATM    7  C6  UNL     1      -2.759   8.161  15.049  1.00  0.00     0.003 A 
HETATM    8  C7  UNL     1      -1.799   7.904  14.100  1.00  0.00     0.003 A 
HETATM    9  C8  UNL     1      -0.714   7.135  14.443  1.00  0.00     0.039 A 
BRANCH   5  10
HETATM   10  O2  UNL     1      -1.325   6.316  17.929  1.00  0.00    -0.341 OA
BRANCH  10  11
HETATM   11  C3  UNL     1      -1.175   7.092  19.077  1.00  0.00     0.253 C 
BRANCH  11  12
HETATM   12  C2  UNL     1      -0.195   8.193  18.973  1.00  0.00     0.146 C 
HETATM   13  C1  UNL     1      -0.674   9.613  19.030  1.00  0.00     0.093 C 
HETATM   14  O1  UNL     1       0.999   8.028  18.841  1.00  0.00    -0.296 OA
ENDBRANCH  11  12
ENDBRANCH  10  11
ENDBRANCH   5  10
ENDBRANCH   3   4
ENDBRANCH   2   3
ENDBRANCH   1   2
BRANCH   1  15
HETATM   15  O4  UNL     1       0.535   2.980  15.940  1.00  0.00    -0.362 OA
ATOM     16  H4  UNL     1       1.220   2.623  16.493  1.00  0.00     0.217 HD
ENDBRANCH   1  15
BRANCH   1  17
HETATM   17  C12 UNL     1       0.889   3.165  13.626  1.00  0.00     0.055 A 
HETATM   18  C13 UNL     1      -0.238   3.397  12.843  1.00  0.00     0.124 A 
HETATM   19  N1  UNL     1      -0.297   2.958  11.590  1.00  0.00    -0.201 N 
HETATM   20  C14 UNL     1       0.734   2.287  11.079  1.00  0.00     0.677 A 
ATOM     21  H1  UNL     1      -1.126   3.134  11.024  1.00  0.00     0.183 HD
HETATM   22  N3  UNL     1       1.830   2.041  11.792  1.00  0.00    -0.176 N 
HETATM   23  C15 UNL     1       1.948   2.468  13.091  1.00  0.00     0.129 A 
ATOM     24  H3  UNL     1       2.599   1.525  11.365  1.00  0.00     0.186 HD
HETATM   25  N4  UNL     1       2.992   2.106  13.743  1.00  0.00    -0.384 N 
ATOM     26  H42 UNL     1       3.078   2.423  14.709  1.00  0.00     0.157 HD
ATOM     27  H41 UNL     1       3.776   1.590  13.346  1.00  0.00     0.157 HD
BRANCH  20  28
HETATM   28  N2  UNL     1       0.671   1.859   9.844  1.00  0.00    -0.234 N 
ATOM     29  H22 UNL     1      -0.216   1.919   9.344  1.00  0.00     0.174 HD
ATOM     30  H21 UNL     1       1.507   1.471   9.406  1.00  0.00     0.174 HD
ENDBRANCH  20  28
ENDBRANCH   1  17
TORSDOF 9
ENDMDL
MODEL 5
REMARK VINA RESULT: -8.312806866      4.291      7.765
REMARK  9 active torsions:
REMARK  status: ('A' for Active; 'I' for Inactive)
REMARK    1  A    between atoms: C2_2  and  C3_4 
REMARK    2  A    between atoms: C3_4  and  O2_5 
REMARK    3  A    between atoms: O2_5  and  C4_6 
REMARK    4  A    between atoms: C9_11  and  O3_12 
REMARK    5  A    between atoms: O3_12  and  C10_13 
REMARK    6  A    between atoms: C10_13  and  C11_14 
REMARK    7  A    between atoms: C11_14  and  O4_15 
REMARK    8  A    between atoms: C11_14  and  C12_17 
REMARK    9  A    between atoms: C14_21  and  N2_22 
ROOT
HETATM    1  C11 UNL     1       1.229   7.255  16.223  1.00  0.00     0.082 C 
ENDROOT
BRANCH   1   2
HETATM    2  C10 UNL     1       0.841   6.242  15.255  1.00  0.00     0.241 C 
BRANCH   2   3
HETATM    3  O3  UNL     1       1.228   4.938  15.481  1.00  0.00    -0.342 OA
BRANCH   3   4
HETATM    4  C9  UNL     1       0.364   3.900  15.715  1.00  0.00     0.102 A 
HETATM    5  C4  UNL     1       0.451   2.817  14.806  1.00  0.00     0.102 A 
HETATM    6  C5  UNL     1      -0.390   1.744  14.988  1.00  0.00     0.039 A 
HETATM    7  C6  UNL     1      -1.310   1.713  16.036  1.00  0.00     0.003 A 
HETATM    8  C7  UNL     1      -1.389   2.768  16.913  1.00  0.00     0.003 A 
HETATM    9  C8  UNL     1      -0.552   3.842  16.737  1.00  0.00     0.039 A 
BRANCH   5  10
HETATM   10  O2  UNL     1       1.384   2.934  13.800  1.00  0.00    -0.341 OA
BRANCH  10  11
HETATM   11  C3  UNL     1       1.709   1.873  12.956  1.00  0.00     0.253 C 
BRANCH  11  12
HETATM   12  C2  UNL     1       1.503   2.126  11.514  1.00  0.00     0.146 C 
HETATM   13  C1  UNL     1       0.378   3.015  11.077  1.00  0.00     0.093 C 
HETATM   14  O1  UNL     1       2.195   1.655  10.637  1.00  0.00    -0.296 OA
ENDBRANCH  11  12
ENDBRANCH  10  11
ENDBRANCH   5  10
ENDBRANCH   3   4
ENDBRANCH   2   3
ENDBRANCH   1   2
BRANCH   1  15
HETATM   15  O4  UNL     1       2.462   7.678  16.179  1.00  0.00    -0.362 OA
ATOM     16  H4  UNL     1       3.118   7.145  16.614  1.00  0.00     0.217 HD
ENDBRANCH   1  15
BRANCH   1  17
HETATM   17  C12 UNL     1       0.364   7.830  17.222  1.00  0.00     0.055 A 
HETATM   18  C13 UNL     1      -0.020   7.015  18.284  1.00  0.00     0.124 A 
HETATM   19  N1  UNL     1      -0.758   7.497  19.277  1.00  0.00    -0.201 N 
HETATM   20  C14 UNL     1      -1.137   8.773  19.258  1.00  0.00     0.677 A 
ATOM     21  H1  UNL     1      -1.033   6.892  20.051  1.00  0.00     0.183 HD
HETATM   22  N3  UNL     1      -0.794   9.588  18.262  1.00  0.00    -0.176 N 
HETATM   23  C15 UNL     1      -0.034   9.147  17.208  1.00  0.00     0.129 A 
ATOM     24  H3  UNL     1      -1.102  10.560  18.283  1.00  0.00     0.186 HD
HETATM   25  N4  UNL     1       0.170   9.964  16.240  1.00  0.00    -0.384 N 
ATOM     26  H42 UNL     1       0.735   9.636  15.457  1.00  0.00     0.157 HD
ATOM     27  H41 UNL     1      -0.125  10.940  16.230  1.00  0.00     0.157 HD
BRANCH  20  28
HETATM   28  N2  UNL     1      -1.862   9.242  20.240  1.00  0.00    -0.234 N 
ATOM     29  H22 UNL     1      -2.171  10.214  20.207  1.00  0.00     0.174 HD
ATOM     30  H21 UNL     1      -2.104   8.630  21.019  1.00  0.00     0.174 HD
ENDBRANCH  20  28
ENDBRANCH   1  17
TORSDOF 9
ENDMDL
