MODEL 1
REMARK VINA RESULT: -9.252374725      0.000      0.000
REMARK  6 active torsions:
REMARK  status: ('A' for Active; 'I' for Inactive)
REMARK    1  A    between atoms: C2_2  and  C3_4 
REMARK    2  A    between atoms: C3_4  and  C5_6 
REMARK    3  A    between atoms: C5_6  and  C6_8 
REMARK       I    between atoms: C6_8  and  N1_10 
REMARK    4  A    between atoms: N1_10  and  N2_12 
REMARK    5  A    between atoms: C7_14  and  C8_15 
REMARK    6  A    between atoms: C11_18  and  N3_19 
REMARK       I    between atoms: N3_19  and  C12_21 
ROOT
HETATM    1  N2  UNL     1       0.237   6.419  15.158  1.00  0.00    -0.308 N 
ATOM      2  H2  UNL     1       1.139   6.666  14.748  1.00  0.00     0.186 HD
HETATM    3  C7  UNL     1      -0.287   5.297  14.873  1.00  0.00     0.118 C 
ENDROOT
BRANCH   3   4
HETATM    4  C8  UNL     1       0.381   4.355  13.970  1.00  0.00    -0.019 A 
HETATM    5  C9  UNL     1       1.428   3.563  14.396  1.00  0.00     0.015 A 
HETATM    6  C10 UNL     1       2.033   2.682  13.504  1.00  0.00     0.030 A 
HETATM    7  C11 UNL     1       1.614   2.578  12.195  1.00  0.00     0.034 A 
HETATM    8  C13 UNL     1       0.569   3.365  11.758  1.00  0.00     0.030 A 
HETATM    9  C14 UNL     1      -0.024   4.237  12.658  1.00  0.00     0.015 A 
BRANCH   7  10
HETATM   10  N3  UNL     1       2.245   1.669  11.288  1.00  0.00    -0.331 N 
HETATM   11  C12 UNL     1       2.425   0.302  11.583  1.00  0.00     0.186 C 
HETATM   12  N4  UNL     1       3.531  -0.136  12.078  1.00  0.00    -0.373 N 
HETATM   13  N5  UNL     1       1.417  -0.684  11.359  1.00  0.00    -0.064 NA
ATOM     14  H42 UNL     1       4.251   0.569  12.238  1.00  0.00     0.158 HD
ATOM     15  H41 UNL     1       3.661  -1.125  12.291  1.00  0.00     0.158 HD
ATOM     16  H3  UNL     1       2.578   2.024  10.392  1.00  0.00     0.168 HD
ENDBRANCH   7  10
ENDBRANCH   3   4
BRANCH   1  17
HETATM   17  N1  UNL     1      -0.387   7.316  16.010  1.00  0.00    -0.264 N 
HETATM   18  C6  UNL     1       0.282   7.970  17.080  1.00  0.00     0.306 C 
HETATM   19  O3  UNL     1       1.494   7.720  17.256  1.00  0.00    -0.263 OA
ATOM     20  H1  UNL     1      -1.376   7.517  15.862  1.00  0.00     0.190 HD
BRANCH  18  21
HETATM   21  C5  UNL     1      -0.413   8.915  17.963  1.00  0.00     0.229 C 
HETATM   22  O2  UNL     1      -0.663  10.045  17.495  1.00  0.00    -0.286 OA
BRANCH  21  23
HETATM   23  C3  UNL     1      -0.808   8.580  19.330  1.00  0.00     0.131 C 
HETATM   24  C4  UNL     1      -1.973   9.495  19.717  1.00  0.00     0.026 C 
BRANCH  23  25
HETATM   25  C2  UNL     1      -1.218   7.189  19.457  1.00  0.00     0.134 C 
HETATM   26  C1  UNL     1      -2.669   6.826  19.267  1.00  0.00     0.091 C 
HETATM   27  O1  UNL     1      -0.443   6.309  19.711  1.00  0.00    -0.298 OA
ENDBRANCH  23  25
ENDBRANCH  21  23
ENDBRANCH  18  21
ENDBRANCH   1  17
TORSDOF 6
ENDMDL
MODEL 2
REMARK VINA RESULT: -9.205444675      0.117      1.017
REMARK  6 active torsions:
REMARK  status: ('A' for Active; 'I' for Inactive)
REMARK    1  A    between atoms: C2_2  and  C3_4 
REMARK    2  A    between atoms: C3_4  and  C5_6 
REMARK    3  A    between atoms: C5_6  and  C6_8 
REMARK       I    between atoms: C6_8  and  N1_10 
REMARK    4  A    between atoms: N1_10  and  N2_12 
REMARK    5  A    between atoms: C7_14  and  C8_15 
REMARK    6  A    between atoms: C11_18  and  N3_19 
REMARK       I    between atoms: N3_19  and  C12_21 
ROOT
HETATM    1  N2  UNL     1       0.250   6.309  15.156  1.00  0.00    -0.308 N 
ATOM      2  H2  UNL     1       1.230   6.459  14.911  1.00  0.00     0.186 HD
HETATM    3  C7  UNL     1      -0.362   5.304  14.676  1.00  0.00     0.118 C 
ENDROOT
BRANCH   3   4
HETATM    4  C8  UNL     1       0.314   4.360  13.780  1.00  0.00    -0.019 A 
HETATM    5  C9  UNL     1      -0.052   4.231  12.457  1.00  0.00     0.015 A 
HETATM    6  C10 UNL     1       0.618   3.321  11.643  1.00  0.00     0.030 A 
HETATM    7  C11 UNL     1       1.645   2.539  12.126  1.00  0.00     0.034 A 
HETATM    8  C13 UNL     1       2.020   2.661  13.447  1.00  0.00     0.030 A 
HETATM    9  C14 UNL     1       1.344   3.570  14.245  1.00  0.00     0.015 A 
BRANCH   7  10
HETATM   10  N3  UNL     1       2.326   1.609  11.278  1.00  0.00    -0.331 N 
HETATM   11  C12 UNL     1       2.471   0.245  11.605  1.00  0.00     0.186 C 
HETATM   12  N4  UNL     1       3.537  -0.195  12.180  1.00  0.00    -0.373 N 
HETATM   13  N5  UNL     1       1.470  -0.734  11.330  1.00  0.00    -0.064 NA
ATOM     14  H42 UNL     1       4.252   0.506  12.377  1.00  0.00     0.158 HD
ATOM     15  H41 UNL     1       3.642  -1.181  12.417  1.00  0.00     0.158 HD
ATOM     16  H3  UNL     1       2.722   1.946  10.401  1.00  0.00     0.168 HD
ENDBRANCH   7  10
ENDBRANCH   3   4
BRANCH   1  17
HETATM   17  N1  UNL     1      -0.380   7.207  16.002  1.00  0.00    -0.264 N 
HETATM   18  C6  UNL     1       0.301   7.932  17.018  1.00  0.00     0.306 C 
HETATM   19  O3  UNL     1       1.530   7.746  17.149  1.00  0.00    -0.263 OA
ATOM     20  H1  UNL     1      -1.383   7.356  15.890  1.00  0.00     0.190 HD
BRANCH  18  21
HETATM   21  C5  UNL     1      -0.402   8.875  17.896  1.00  0.00     0.229 C 
HETATM   22  O2  UNL     1      -0.685   9.991  17.413  1.00  0.00    -0.286 OA
BRANCH  21  23
HETATM   23  C3  UNL     1      -0.766   8.555  19.275  1.00  0.00     0.131 C 
HETATM   24  C4  UNL     1      -1.907   9.488  19.686  1.00  0.00     0.026 C 
BRANCH  23  25
HETATM   25  C2  UNL     1      -1.192   7.170  19.422  1.00  0.00     0.134 C 
HETATM   26  C1  UNL     1      -2.640   6.816  19.197  1.00  0.00     0.091 C 
HETATM   27  O1  UNL     1      -0.433   6.291  19.720  1.00  0.00    -0.298 OA
ENDBRANCH  23  25
ENDBRANCH  21  23
ENDBRANCH  18  21
ENDBRANCH   1  17
TORSDOF 6
ENDMDL
MODEL 3
REMARK VINA RESULT: -9.190190887      1.140      1.208
REMARK  6 active torsions:
REMARK  status: ('A' for Active; 'I' for Inactive)
REMARK    1  A    between atoms: C2_2  and  C3_4 
REMARK    2  A    between atoms: C3_4  and  C5_6 
REMARK    3  A    between atoms: C5_6  and  C6_8 
REMARK       I    between atoms: C6_8  and  N1_10 
REMARK    4  A    between atoms: N1_10  and  N2_12 
REMARK    5  A    between atoms: C7_14  and  C8_15 
REMARK    6  A    between atoms: C11_18  and  N3_19 
REMARK       I    between atoms: N3_19  and  C12_21 
ROOT
HETATM    1  N2  UNL     1      -0.323   5.584  15.810  1.00  0.00    -0.308 N 
ATOM      2  H2  UNL     1       0.600   5.300  16.139  1.00  0.00     0.186 HD
HETATM    3  C7  UNL     1      -0.743   5.150  14.691  1.00  0.00     0.118 C 
ENDROOT
BRANCH   3   4
HETATM    4  C8  UNL     1       0.075   4.251  13.870  1.00  0.00    -0.019 A 
HETATM    5  C9  UNL     1       1.179   3.605  14.387  1.00  0.00     0.015 A 
HETATM    6  C10 UNL     1       1.926   2.760  13.571  1.00  0.00     0.030 A 
HETATM    7  C11 UNL     1       1.594   2.550  12.251  1.00  0.00     0.034 A 
HETATM    8  C13 UNL     1       0.492   3.190  11.724  1.00  0.00     0.030 A 
HETATM    9  C14 UNL     1      -0.243   4.028  12.548  1.00  0.00     0.015 A 
BRANCH   7  10
HETATM   10  N3  UNL     1       2.371   1.678  11.423  1.00  0.00    -0.331 N 
HETATM   11  C12 UNL     1       2.491   0.296  11.674  1.00  0.00     0.186 C 
HETATM   12  N4  UNL     1       3.491  -0.180  12.333  1.00  0.00    -0.373 N 
HETATM   13  N5  UNL     1       1.535  -0.664  11.226  1.00  0.00    -0.064 NA
ATOM     14  H42 UNL     1       4.174   0.506  12.653  1.00  0.00     0.158 HD
ATOM     15  H41 UNL     1       3.577  -1.181  12.514  1.00  0.00     0.158 HD
ATOM     16  H3  UNL     1       2.859   2.073  10.620  1.00  0.00     0.168 HD
ENDBRANCH   7  10
ENDBRANCH   3   4
BRANCH   1  17
HETATM   17  N1  UNL     1      -1.089   6.434  16.592  1.00  0.00    -0.264 N 
HETATM   18  C6  UNL     1      -0.785   7.810  16.776  1.00  0.00     0.306 C 
HETATM   19  O3  UNL     1       0.224   8.272  16.199  1.00  0.00    -0.263 OA
ATOM     20  H1  UNL     1      -1.911   6.052  17.059  1.00  0.00     0.190 HD
BRANCH  18  21
HETATM   21  C5  UNL     1      -1.620   8.680  17.613  1.00  0.00     0.229 C 
HETATM   22  O2  UNL     1      -2.821   8.790  17.290  1.00  0.00    -0.286 OA
BRANCH  21  23
HETATM   23  C3  UNL     1      -1.102   9.397  18.776  1.00  0.00     0.131 C 
HETATM   24  C4  UNL     1      -2.298   9.933  19.566  1.00  0.00     0.026 C 
BRANCH  23  25
HETATM   25  C2  UNL     1      -0.295   8.540  19.634  1.00  0.00     0.134 C 
HETATM   26  C1  UNL     1      -0.939   7.357  20.311  1.00  0.00     0.091 C 
HETATM   27  O1  UNL     1       0.871   8.739  19.830  1.00  0.00    -0.298 OA
ENDBRANCH  23  25
ENDBRANCH  21  23
ENDBRANCH  18  21
ENDBRANCH   1  17
TORSDOF 6
ENDMDL
MODEL 4
REMARK VINA RESULT: -9.153239189      1.165      1.583
REMARK  6 active torsions:
REMARK  status: ('A' for Active; 'I' for Inactive)
REMARK    1  A    between atoms: C2_2  and  C3_4 
REMARK    2  A    between atoms: C3_4  and  C5_6 
REMARK    3  A    between atoms: C5_6  and  C6_8 
REMARK       I    between atoms: C6_8  and  N1_10 
REMARK    4  A    between atoms: N1_10  and  N2_12 
REMARK    5  A    between atoms: C7_14  and  C8_15 
REMARK    6  A    between atoms: C11_18  and  N3_19 
REMARK       I    between atoms: N3_19  and  C12_21 
ROOT
HETATM    1  N2  UNL     1      -0.254   5.510  15.772  1.00  0.00    -0.308 N 
ATOM      2  H2  UNL     1       0.631   5.132  16.110  1.00  0.00     0.186 HD
HETATM    3  C7  UNL     1      -0.668   5.182  14.616  1.00  0.00     0.118 C 
ENDROOT
BRANCH   3   4
HETATM    4  C8  UNL     1       0.104   4.273  13.763  1.00  0.00    -0.019 A 
HETATM    5  C9  UNL     1      -0.220   4.075  12.438  1.00  0.00     0.015 A 
HETATM    6  C10 UNL     1       0.541   3.202  11.665  1.00  0.00     0.030 A 
HETATM    7  C11 UNL     1       1.619   2.523  12.192  1.00  0.00     0.034 A 
HETATM    8  C13 UNL     1       1.953   2.714  13.516  1.00  0.00     0.030 A 
HETATM    9  C14 UNL     1       1.185   3.586  14.273  1.00  0.00     0.015 A 
BRANCH   7  10
HETATM   10  N3  UNL     1       2.394   1.629  11.387  1.00  0.00    -0.331 N 
HETATM   11  C12 UNL     1       2.519   0.256  11.679  1.00  0.00     0.186 C 
HETATM   12  N4  UNL     1       3.525  -0.197  12.346  1.00  0.00    -0.373 N 
HETATM   13  N5  UNL     1       1.563  -0.720  11.267  1.00  0.00    -0.064 NA
ATOM     14  H42 UNL     1       4.208   0.501  12.640  1.00  0.00     0.158 HD
ATOM     15  H41 UNL     1       3.616  -1.191  12.557  1.00  0.00     0.158 HD
ATOM     16  H3  UNL     1       2.874   2.001  10.568  1.00  0.00     0.168 HD
ENDBRANCH   7  10
ENDBRANCH   3   4
BRANCH   1  17
HETATM   17  N1  UNL     1      -0.977   6.369  16.585  1.00  0.00    -0.264 N 
HETATM   18  C6  UNL     1      -0.744   7.770  16.641  1.00  0.00     0.306 C 
HETATM   19  O3  UNL     1       0.158   8.246  15.919  1.00  0.00    -0.263 OA
ATOM     20  H1  UNL     1      -1.712   5.976  17.172  1.00  0.00     0.190 HD
BRANCH  18  21
HETATM   21  C5  UNL     1      -1.530   8.649  17.516  1.00  0.00     0.229 C 
HETATM   22  O2  UNL     1      -2.740   8.787  17.237  1.00  0.00    -0.286 OA
BRANCH  21  23
HETATM   23  C3  UNL     1      -0.956   9.344  18.666  1.00  0.00     0.131 C 
HETATM   24  C4  UNL     1      -2.112   9.889  19.508  1.00  0.00     0.026 C 
BRANCH  23  25
HETATM   25  C2  UNL     1      -0.130   8.466  19.482  1.00  0.00     0.134 C 
HETATM   26  C1  UNL     1      -0.790   7.397  20.316  1.00  0.00     0.091 C 
HETATM   27  O1  UNL     1       1.065   8.557  19.520  1.00  0.00    -0.298 OA
ENDBRANCH  23  25
ENDBRANCH  21  23
ENDBRANCH  18  21
ENDBRANCH   1  17
TORSDOF 6
ENDMDL
MODEL 5
REMARK VINA RESULT: -9.139091981      1.232      1.696
REMARK  6 active torsions:
REMARK  status: ('A' for Active; 'I' for Inactive)
REMARK    1  A    between atoms: C2_2  and  C3_4 
REMARK    2  A    between atoms: C3_4  and  C5_6 
REMARK    3  A    between atoms: C5_6  and  C6_8 
REMARK       I    between atoms: C6_8  and  N1_10 
REMARK    4  A    between atoms: N1_10  and  N2_12 
REMARK    5  A    between atoms: C7_14  and  C8_15 
REMARK    6  A    between atoms: C11_18  and  N3_19 
REMARK       I    between atoms: N3_19  and  C12_21 
ROOT
HETATM    1  N2  UNL     1      -0.331   5.919  15.720  1.00  0.00    -0.308 N 
ATOM      2  H2  UNL     1      -0.068   5.189  16.383  1.00  0.00     0.186 HD
HETATM    3  C7  UNL     1      -0.292   5.669  14.474  1.00  0.00     0.118 C 
ENDROOT
BRANCH   3   4
HETATM    4  C8  UNL     1       0.123   4.353  13.977  1.00  0.00    -0.019 A 
HETATM    5  C9  UNL     1       0.293   4.110  12.630  1.00  0.00     0.015 A 
HETATM    6  C10 UNL     1       0.688   2.845  12.203  1.00  0.00     0.030 A 
HETATM    7  C11 UNL     1       0.916   1.820  13.095  1.00  0.00     0.034 A 
HETATM    8  C13 UNL     1       0.750   2.052  14.444  1.00  0.00     0.030 A 
HETATM    9  C14 UNL     1       0.356   3.316  14.854  1.00  0.00     0.015 A 
BRANCH   7  10
HETATM   10  N3  UNL     1       1.322   0.524  12.643  1.00  0.00    -0.331 N 
HETATM   11  C12 UNL     1       2.654   0.069  12.732  1.00  0.00     0.186 C 
HETATM   12  N4  UNL     1       3.464   0.172  11.736  1.00  0.00    -0.373 N 
HETATM   13  N5  UNL     1       3.196  -0.529  13.909  1.00  0.00    -0.064 NA
ATOM     14  H42 UNL     1       3.076   0.600  10.895  1.00  0.00     0.158 HD
ATOM     15  H41 UNL     1       4.428  -0.157  11.801  1.00  0.00     0.158 HD
ATOM     16  H3  UNL     1       0.620  -0.095  12.239  1.00  0.00     0.168 HD
ENDBRANCH   7  10
ENDBRANCH   3   4
BRANCH   1  17
HETATM   17  N1  UNL     1      -0.721   7.160  16.199  1.00  0.00    -0.264 N 
HETATM   18  C6  UNL     1       0.160   8.046  16.876  1.00  0.00     0.306 C 
HETATM   19  O3  UNL     1       1.345   7.685  17.043  1.00  0.00    -0.263 OA
ATOM     20  H1  UNL     1      -1.688   7.450  16.059  1.00  0.00     0.190 HD
BRANCH  18  21
HETATM   21  C5  UNL     1      -0.290   9.353  17.370  1.00  0.00     0.229 C 
HETATM   22  O2  UNL     1      -0.185  10.320  16.586  1.00  0.00    -0.286 OA
BRANCH  21  23
HETATM   23  C3  UNL     1      -0.839   9.549  18.710  1.00  0.00     0.131 C 
HETATM   24  C4  UNL     1      -2.328   9.198  18.662  1.00  0.00     0.026 C 
BRANCH  23  25
HETATM   25  C2  UNL     1      -0.175   8.716  19.702  1.00  0.00     0.134 C 
HETATM   26  C1  UNL     1      -0.878   7.491  20.229  1.00  0.00     0.091 C 
HETATM   27  O1  UNL     1       0.920   8.966  20.125  1.00  0.00    -0.298 OA
ENDBRANCH  23  25
ENDBRANCH  21  23
ENDBRANCH  18  21
ENDBRANCH   1  17
TORSDOF 6
ENDMDL
