MODEL 1
REMARK VINA RESULT: -8.203715449      0.000      0.000
REMARK  7 active torsions:
REMARK  status: ('A' for Active; 'I' for Inactive)
REMARK    1  A    between atoms: C2_2  and  S1_4 
REMARK    2  A    between atoms: S1_4  and  C4_5 
REMARK    3  A    between atoms: C4_5  and  C5_6 
REMARK       I    between atoms: C5_6  and  N1_8 
REMARK    4  A    between atoms: N1_8  and  N2_10 
REMARK    5  A    between atoms: N2_10  and  S2_12 
REMARK    6  A    between atoms: S2_12  and  C6_15 
REMARK    7  A    between atoms: C9_18  and  N3_19 
REMARK       I    between atoms: N3_19  and  C10_21 
ROOT
HETATM    1  S2  UNL     1       5.245   4.168   7.594  1.00  0.00     0.276 S 
HETATM    2  O2  UNL     1       6.525   3.423   7.794  1.00  0.00    -0.199 OA
HETATM    3  O3  UNL     1       5.588   5.434   6.858  1.00  0.00    -0.199 OA
ENDROOT
BRANCH   1   4
HETATM    4  N2  UNL     1       4.193   3.240   6.625  1.00  0.00    -0.220 N 
ATOM      5  H2  UNL     1       3.432   2.686   7.017  1.00  0.00     0.200 HD
BRANCH   4   6
HETATM    6  N1  UNL     1       4.452   3.297   5.270  1.00  0.00    -0.260 N 
HETATM    7  C5  UNL     1       5.217   2.276   4.583  1.00  0.00     0.245 C 
HETATM    8  O1  UNL     1       5.633   1.343   5.272  1.00  0.00    -0.271 OA
ATOM      9  H1  UNL     1       4.092   4.087   4.733  1.00  0.00     0.190 HD
BRANCH   7  10
HETATM   10  C4  UNL     1       5.436   2.430   3.142  1.00  0.00     0.178 C 
BRANCH  10  11
HETATM   11  S1  UNL     1       7.003   3.048   2.610  1.00  0.00    -0.156 SA
BRANCH  11  12
HETATM   12  C2  UNL     1       7.560   4.586   3.279  1.00  0.00     0.039 C 
HETATM   13  C1  UNL     1       8.227   4.447   4.622  1.00  0.00     0.021 C 
HETATM   14  C3  UNL     1       6.482   5.657   3.307  1.00  0.00     0.021 C 
ENDBRANCH  11  12
ENDBRANCH  10  11
ENDBRANCH   7  10
ENDBRANCH   4   6
ENDBRANCH   1   4
BRANCH   1  15
HETATM   15  C6  UNL     1       4.565   4.621   9.141  1.00  0.00     0.081 A 
HETATM   16  C7  UNL     1       3.276   4.254   9.448  1.00  0.00     0.027 A 
HETATM   17  C8  UNL     1       2.716   4.602  10.686  1.00  0.00     0.031 A 
HETATM   18  C9  UNL     1       3.404   5.309  11.635  1.00  0.00     0.036 A 
HETATM   19  C11 UNL     1       4.702   5.663  11.289  1.00  0.00     0.031 A 
HETATM   20  C12 UNL     1       5.271   5.331  10.081  1.00  0.00     0.027 A 
BRANCH  18  21
HETATM   21  N3  UNL     1       2.906   5.687  12.893  1.00  0.00    -0.311 N 
HETATM   22  C10 UNL     1       2.801   4.926  14.055  1.00  0.00     0.333 C 
HETATM   23  N4  UNL     1       2.263   5.500  15.239  1.00  0.00    -0.040 NA
HETATM   24  O4  UNL     1       3.160   3.745  14.127  1.00  0.00    -0.251 OA
ATOM     25  H3  UNL     1       2.576   6.650  12.965  1.00  0.00     0.170 HD
ENDBRANCH  18  21
ENDBRANCH   1  15
TORSDOF 7
ENDMDL
MODEL 2
REMARK VINA RESULT: -8.106704693      2.887      3.870
REMARK  7 active torsions:
REMARK  status: ('A' for Active; 'I' for Inactive)
REMARK    1  A    between atoms: C2_2  and  S1_4 
REMARK    2  A    between atoms: S1_4  and  C4_5 
REMARK    3  A    between atoms: C4_5  and  C5_6 
REMARK       I    between atoms: C5_6  and  N1_8 
REMARK    4  A    between atoms: N1_8  and  N2_10 
REMARK    5  A    between atoms: N2_10  and  S2_12 
REMARK    6  A    between atoms: S2_12  and  C6_15 
REMARK    7  A    between atoms: C9_18  and  N3_19 
REMARK       I    between atoms: N3_19  and  C10_21 
ROOT
HETATM    1  S2  UNL     1       3.334   3.527   4.054  1.00  0.00     0.276 S 
HETATM    2  O2  UNL     1       3.216   4.868   3.403  1.00  0.00    -0.199 OA
HETATM    3  O3  UNL     1       2.080   2.767   3.717  1.00  0.00    -0.199 OA
ENDROOT
BRANCH   1   4
HETATM    4  N2  UNL     1       4.671   2.696   3.403  1.00  0.00    -0.220 N 
ATOM      5  H2  UNL     1       4.586   2.046   2.621  1.00  0.00     0.200 HD
BRANCH   4   6
HETATM    6  N1  UNL     1       5.878   2.969   4.015  1.00  0.00    -0.260 N 
HETATM    7  C5  UNL     1       6.803   3.957   3.500  1.00  0.00     0.245 C 
HETATM    8  O1  UNL     1       6.461   4.550   2.475  1.00  0.00    -0.271 OA
ATOM      9  H1  UNL     1       6.127   2.457   4.862  1.00  0.00     0.190 HD
BRANCH   7  10
HETATM   10  C4  UNL     1       8.059   4.172   4.223  1.00  0.00     0.178 C 
BRANCH  10  11
HETATM   11  S1  UNL     1       8.095   5.442   5.451  1.00  0.00    -0.156 SA
BRANCH  11  12
HETATM   12  C2  UNL     1       7.304   5.123   6.999  1.00  0.00     0.039 C 
HETATM   13  C1  UNL     1       8.023   5.732   8.173  1.00  0.00     0.021 C 
HETATM   14  C3  UNL     1       7.011   3.651   7.234  1.00  0.00     0.021 C 
ENDBRANCH  11  12
ENDBRANCH  10  11
ENDBRANCH   7  10
ENDBRANCH   4   6
ENDBRANCH   1   4
BRANCH   1  15
HETATM   15  C6  UNL     1       3.393   3.709   5.793  1.00  0.00     0.081 A 
HETATM   16  C7  UNL     1       3.451   4.969   6.341  1.00  0.00     0.027 A 
HETATM   17  C8  UNL     1       3.492   5.134   7.733  1.00  0.00     0.031 A 
HETATM   18  C9  UNL     1       3.478   4.078   8.604  1.00  0.00     0.036 A 
HETATM   19  C11 UNL     1       3.419   2.822   8.014  1.00  0.00     0.031 A 
HETATM   20  C12 UNL     1       3.377   2.636   6.651  1.00  0.00     0.027 A 
BRANCH  18  21
HETATM   21  N3  UNL     1       3.514   4.173  10.004  1.00  0.00    -0.311 N 
HETATM   22  C10 UNL     1       2.697   4.920  10.850  1.00  0.00     0.333 C 
HETATM   23  N4  UNL     1       2.898   4.880  12.257  1.00  0.00    -0.040 NA
HETATM   24  O4  UNL     1       1.777   5.639  10.444  1.00  0.00    -0.251 OA
ATOM     25  H3  UNL     1       4.236   3.619  10.465  1.00  0.00     0.170 HD
ENDBRANCH  18  21
ENDBRANCH   1  15
TORSDOF 7
ENDMDL
MODEL 3
REMARK VINA RESULT: -8.091617838      0.624      1.262
REMARK  7 active torsions:
REMARK  status: ('A' for Active; 'I' for Inactive)
REMARK    1  A    between atoms: C2_2  and  S1_4 
REMARK    2  A    between atoms: S1_4  and  C4_5 
REMARK    3  A    between atoms: C4_5  and  C5_6 
REMARK       I    between atoms: C5_6  and  N1_8 
REMARK    4  A    between atoms: N1_8  and  N2_10 
REMARK    5  A    between atoms: N2_10  and  S2_12 
REMARK    6  A    between atoms: S2_12  and  C6_15 
REMARK    7  A    between atoms: C9_18  and  N3_19 
REMARK       I    between atoms: N3_19  and  C10_21 
ROOT
HETATM    1  S2  UNL     1       5.310   4.320   7.589  1.00  0.00     0.276 S 
HETATM    2  O2  UNL     1       6.594   3.583   7.793  1.00  0.00    -0.199 OA
HETATM    3  O3  UNL     1       5.656   5.617   6.910  1.00  0.00    -0.199 OA
ENDROOT
BRANCH   1   4
HETATM    4  N2  UNL     1       4.295   3.418   6.560  1.00  0.00    -0.220 N 
ATOM      5  H2  UNL     1       3.458   2.940   6.895  1.00  0.00     0.200 HD
BRANCH   4   6
HETATM    6  N1  UNL     1       4.693   3.382   5.238  1.00  0.00    -0.260 N 
HETATM    7  C5  UNL     1       5.402   2.253   4.672  1.00  0.00     0.245 C 
HETATM    8  O1  UNL     1       5.639   1.314   5.434  1.00  0.00    -0.271 OA
ATOM      9  H1  UNL     1       4.479   4.180   4.639  1.00  0.00     0.190 HD
BRANCH   7  10
HETATM   10  C4  UNL     1       5.781   2.313   3.258  1.00  0.00     0.178 C 
BRANCH  10  11
HETATM   11  S1  UNL     1       6.786   3.667   2.732  1.00  0.00    -0.156 SA
BRANCH  11  12
HETATM   12  C2  UNL     1       8.356   3.889   3.513  1.00  0.00     0.039 C 
HETATM   13  C1  UNL     1       8.287   4.715   4.769  1.00  0.00     0.021 C 
HETATM   14  C3  UNL     1       9.431   4.406   2.571  1.00  0.00     0.021 C 
ENDBRANCH  11  12
ENDBRANCH  10  11
ENDBRANCH   7  10
ENDBRANCH   4   6
ENDBRANCH   1   4
BRANCH   1  15
HETATM   15  C6  UNL     1       4.588   4.706   9.135  1.00  0.00     0.081 A 
HETATM   16  C7  UNL     1       5.323   5.390  10.074  1.00  0.00     0.027 A 
HETATM   17  C8  UNL     1       4.759   5.714  11.316  1.00  0.00     0.031 A 
HETATM   18  C9  UNL     1       3.477   5.376  11.657  1.00  0.00     0.036 A 
HETATM   19  C11 UNL     1       2.766   4.686  10.683  1.00  0.00     0.031 A 
HETATM   20  C12 UNL     1       3.299   4.358   9.457  1.00  0.00     0.027 A 
BRANCH  18  21
HETATM   21  N3  UNL     1       2.851   5.671  12.879  1.00  0.00    -0.311 N 
HETATM   22  C10 UNL     1       2.750   4.880  14.021  1.00  0.00     0.333 C 
HETATM   23  N4  UNL     1       2.067   5.366  15.169  1.00  0.00    -0.040 NA
HETATM   24  O4  UNL     1       3.235   3.745  14.106  1.00  0.00    -0.251 OA
ATOM     25  H3  UNL     1       2.410   6.588  12.937  1.00  0.00     0.170 HD
ENDBRANCH  18  21
ENDBRANCH   1  15
TORSDOF 7
ENDMDL
MODEL 4
REMARK VINA RESULT: -8.034229233      2.889      3.815
REMARK  7 active torsions:
REMARK  status: ('A' for Active; 'I' for Inactive)
REMARK    1  A    between atoms: C2_2  and  S1_4 
REMARK    2  A    between atoms: S1_4  and  C4_5 
REMARK    3  A    between atoms: C4_5  and  C5_6 
REMARK       I    between atoms: C5_6  and  N1_8 
REMARK    4  A    between atoms: N1_8  and  N2_10 
REMARK    5  A    between atoms: N2_10  and  S2_12 
REMARK    6  A    between atoms: S2_12  and  C6_15 
REMARK    7  A    between atoms: C9_18  and  N3_19 
REMARK       I    between atoms: N3_19  and  C10_21 
ROOT
HETATM    1  S2  UNL     1       3.327   3.550   4.051  1.00  0.00     0.276 S 
HETATM    2  O2  UNL     1       3.200   4.886   3.393  1.00  0.00    -0.199 OA
HETATM    3  O3  UNL     1       2.076   2.783   3.724  1.00  0.00    -0.199 OA
ENDROOT
BRANCH   1   4
HETATM    4  N2  UNL     1       4.665   2.721   3.399  1.00  0.00    -0.220 N 
ATOM      5  H2  UNL     1       4.581   2.072   2.616  1.00  0.00     0.200 HD
BRANCH   4   6
HETATM    6  N1  UNL     1       5.872   2.995   4.012  1.00  0.00    -0.260 N 
HETATM    7  C5  UNL     1       6.816   3.952   3.472  1.00  0.00     0.245 C 
HETATM    8  O1  UNL     1       6.490   4.518   2.427  1.00  0.00    -0.271 OA
ATOM      9  H1  UNL     1       6.107   2.505   4.875  1.00  0.00     0.190 HD
BRANCH   7  10
HETATM   10  C4  UNL     1       8.070   4.171   4.198  1.00  0.00     0.178 C 
BRANCH  10  11
HETATM   11  S1  UNL     1       8.099   5.438   5.428  1.00  0.00    -0.156 SA
BRANCH  11  12
HETATM   12  C2  UNL     1       7.314   5.110   6.978  1.00  0.00     0.039 C 
HETATM   13  C1  UNL     1       8.038   5.711   8.153  1.00  0.00     0.021 C 
HETATM   14  C3  UNL     1       7.021   3.636   7.205  1.00  0.00     0.021 C 
ENDBRANCH  11  12
ENDBRANCH  10  11
ENDBRANCH   7  10
ENDBRANCH   4   6
ENDBRANCH   1   4
BRANCH   1  15
HETATM   15  C6  UNL     1       3.393   3.742   5.789  1.00  0.00     0.081 A 
HETATM   16  C7  UNL     1       3.329   2.629   6.595  1.00  0.00     0.027 A 
HETATM   17  C8  UNL     1       3.387   2.762   7.990  1.00  0.00     0.031 A 
HETATM   18  C9  UNL     1       3.507   3.975   8.613  1.00  0.00     0.036 A 
HETATM   19  C11 UNL     1       3.568   5.075   7.766  1.00  0.00     0.031 A 
HETATM   20  C12 UNL     1       3.513   4.968   6.395  1.00  0.00     0.027 A 
BRANCH  18  21
HETATM   21  N3  UNL     1       3.573   4.178  10.001  1.00  0.00    -0.311 N 
HETATM   22  C10 UNL     1       2.756   4.967  10.808  1.00  0.00     0.333 C 
HETATM   23  N4  UNL     1       2.991   5.041  12.208  1.00  0.00    -0.040 NA
HETATM   24  O4  UNL     1       1.806   5.628  10.371  1.00  0.00    -0.251 OA
ATOM     25  H3  UNL     1       4.321   3.681  10.484  1.00  0.00     0.170 HD
ENDBRANCH  18  21
ENDBRANCH   1  15
TORSDOF 7
ENDMDL
MODEL 5
REMARK VINA RESULT: -8.021668709      1.801      2.170
REMARK  7 active torsions:
REMARK  status: ('A' for Active; 'I' for Inactive)
REMARK    1  A    between atoms: C2_2  and  S1_4 
REMARK    2  A    between atoms: S1_4  and  C4_5 
REMARK    3  A    between atoms: C4_5  and  C5_6 
REMARK       I    between atoms: C5_6  and  N1_8 
REMARK    4  A    between atoms: N1_8  and  N2_10 
REMARK    5  A    between atoms: N2_10  and  S2_12 
REMARK    6  A    between atoms: S2_12  and  C6_15 
REMARK    7  A    between atoms: C9_18  and  N3_19 
REMARK       I    between atoms: N3_19  and  C10_21 
ROOT
HETATM    1  S2  UNL     1       6.173   4.926   7.981  1.00  0.00     0.276 S 
HETATM    2  O2  UNL     1       7.632   5.096   8.256  1.00  0.00    -0.199 OA
HETATM    3  O3  UNL     1       5.787   5.996   6.998  1.00  0.00    -0.199 OA
ENDROOT
BRANCH   1   4
HETATM    4  N2  UNL     1       5.904   3.403   7.266  1.00  0.00    -0.220 N 
ATOM      5  H2  UNL     1       6.273   2.538   7.661  1.00  0.00     0.200 HD
BRANCH   4   6
HETATM    6  N1  UNL     1       5.147   3.430   6.111  1.00  0.00    -0.260 N 
HETATM    7  C5  UNL     1       5.431   2.573   4.978  1.00  0.00     0.245 C 
HETATM    8  O1  UNL     1       6.392   1.810   5.092  1.00  0.00    -0.271 OA
ATOM      9  H1  UNL     1       4.360   4.077   6.054  1.00  0.00     0.190 HD
BRANCH   7  10
HETATM   10  C4  UNL     1       4.568   2.680   3.798  1.00  0.00     0.178 C 
BRANCH  10  11
HETATM   11  S1  UNL     1       2.931   3.302   4.029  1.00  0.00    -0.156 SA
BRANCH  11  12
HETATM   12  C2  UNL     1       2.730   5.040   4.279  1.00  0.00     0.039 C 
HETATM   13  C1  UNL     1       3.775   5.868   3.581  1.00  0.00     0.021 C 
HETATM   14  C3  UNL     1       2.605   5.428   5.743  1.00  0.00     0.021 C 
ENDBRANCH  11  12
ENDBRANCH  10  11
ENDBRANCH   7  10
ENDBRANCH   4   6
ENDBRANCH   1   4
BRANCH   1  15
HETATM   15  C6  UNL     1       5.252   5.192   9.445  1.00  0.00     0.081 A 
HETATM   16  C7  UNL     1       3.977   4.686   9.544  1.00  0.00     0.027 A 
HETATM   17  C8  UNL     1       3.225   4.883  10.711  1.00  0.00     0.031 A 
HETATM   18  C9  UNL     1       3.706   5.574  11.792  1.00  0.00     0.036 A 
HETATM   19  C11 UNL     1       4.996   6.070  11.655  1.00  0.00     0.031 A 
HETATM   20  C12 UNL     1       5.752   5.888  10.518  1.00  0.00     0.027 A 
BRANCH  18  21
HETATM   21  N3  UNL     1       3.010   5.805  12.989  1.00  0.00    -0.311 N 
HETATM   22  C10 UNL     1       2.794   4.935  14.056  1.00  0.00     0.333 C 
HETATM   23  N4  UNL     1       2.055   5.365  15.191  1.00  0.00    -0.040 NA
HETATM   24  O4  UNL     1       3.219   3.774  14.081  1.00  0.00    -0.251 OA
ATOM     25  H3  UNL     1       2.608   6.737  13.092  1.00  0.00     0.170 HD
ENDBRANCH  18  21
ENDBRANCH   1  15
TORSDOF 7
ENDMDL
