MODEL 1
REMARK VINA RESULT: -9.235960039      0.000      0.000
REMARK  7 active torsions:
REMARK  status: ('A' for Active; 'I' for Inactive)
REMARK    1  A    between atoms: C5_5  and  C6_6 
REMARK       I    between atoms: C6_6  and  N1_8 
REMARK    2  A    between atoms: N1_8  and  C7_10 
REMARK    3  A    between atoms: C7_10  and  C8_11 
REMARK    4  A    between atoms: C8_11  and  N3_14 
REMARK    5  A    between atoms: N3_14  and  C10_16 
REMARK    6  A    between atoms: C10_16  and  C11_17 
REMARK    7  A    between atoms: C10_16  and  C13_26 
ROOT
HETATM    1  C8  UNL     1       5.056   7.418  10.100  1.00  0.00     0.225 C 
HETATM    2  C9  UNL     1       5.556   8.620  10.804  1.00  0.00     0.089 C 
HETATM    3  N2  UNL     1       5.893   9.583  11.370  1.00  0.00    -0.195 NA
ENDROOT
BRANCH   1   4
HETATM    4  C7  UNL     1       6.092   6.351  10.018  1.00  0.00     0.103 C 
BRANCH   4   5
HETATM    5  N1  UNL     1       6.260   5.606   8.855  1.00  0.00    -0.332 N 
HETATM    6  C6  UNL     1       5.864   4.356   8.389  1.00  0.00     0.279 C 
HETATM    7  O1  UNL     1       5.163   3.502   8.981  1.00  0.00    -0.265 OA
ATOM      8  H1  UNL     1       6.818   6.107   8.163  1.00  0.00     0.168 HD
BRANCH   6   9
HETATM    9  C5  UNL     1       6.311   3.953   7.021  1.00  0.00     0.143 A 
HETATM   10  C4  UNL     1       7.435   4.391   6.387  1.00  0.00     0.045 A 
HETATM   11  C3  UNL     1       7.447   3.763   5.159  1.00  0.00     0.035 A 
HETATM   12  C2  UNL     1       6.334   2.972   5.093  1.00  0.00     0.050 A 
HETATM   13  C1  UNL     1       5.860   2.085   4.001  1.00  0.00     0.076 C 
HETATM   14  O3  UNL     1       5.697   3.125   6.228  1.00  0.00    -0.310 OA
ENDBRANCH   6   9
ENDBRANCH   4   5
ENDBRANCH   1   4
BRANCH   1  15
HETATM   15  N3  UNL     1       3.932   6.988  10.830  1.00  0.00    -0.390 N 
ATOM     16  H3  UNL     1       3.570   7.630  11.536  1.00  0.00     0.155 HD
BRANCH  15  17
HETATM   17  C10 UNL     1       3.270   5.785  10.686  1.00  0.00     0.151 C 
BRANCH  17  18
HETATM   18  C11 UNL     1       3.045   5.215  12.078  1.00  0.00     0.123 A 
HETATM   19  N4  UNL     1       3.044   5.962  13.215  1.00  0.00    -0.294 N 
HETATM   20  C12 UNL     1       2.782   5.145  14.256  1.00  0.00     0.340 A 
ATOM     21  H4  UNL     1       3.211   6.967  13.271  1.00  0.00     0.172 HD
HETATM   22  O2  UNL     1       2.700   5.480  15.466  1.00  0.00    -0.245 OA
HETATM   23  N5  UNL     1       2.621   3.899  13.771  1.00  0.00    -0.250 N 
HETATM   24  N6  UNL     1       2.787   3.971  12.433  1.00  0.00    -0.283 N 
ATOM     25  H5  UNL     1       2.411   3.060  14.312  1.00  0.00     0.192 HD
ATOM     26  H6  UNL     1       2.723   3.180  11.792  1.00  0.00     0.188 HD
ENDBRANCH  17  18
BRANCH  17  27
HETATM   27  C13 UNL     1       2.022   5.777   9.889  1.00  0.00     0.007 C 
HETATM   28  C14 UNL     1       1.098   6.946  10.053  1.00  0.00     0.012 C 
HETATM   29  C15 UNL     1       2.357   5.680   8.376  1.00  0.00     0.012 C 
ENDBRANCH  17  27
ENDBRANCH  15  17
ENDBRANCH   1  15
TORSDOF 7
ENDMDL
MODEL 2
REMARK VINA RESULT: -9.132396859      1.944      2.947
REMARK  7 active torsions:
REMARK  status: ('A' for Active; 'I' for Inactive)
REMARK    1  A    between atoms: C5_5  and  C6_6 
REMARK       I    between atoms: C6_6  and  N1_8 
REMARK    2  A    between atoms: N1_8  and  C7_10 
REMARK    3  A    between atoms: C7_10  and  C8_11 
REMARK    4  A    between atoms: C8_11  and  N3_14 
REMARK    5  A    between atoms: N3_14  and  C10_16 
REMARK    6  A    between atoms: C10_16  and  C11_17 
REMARK    7  A    between atoms: C10_16  and  C13_26 
ROOT
HETATM    1  C8  UNL     1       3.919   4.022   8.807  1.00  0.00     0.225 C 
HETATM    2  C9  UNL     1       3.250   4.727   7.691  1.00  0.00     0.089 C 
HETATM    3  N2  UNL     1       2.685   5.309   6.851  1.00  0.00    -0.195 NA
ENDROOT
BRANCH   1   4
HETATM    4  C7  UNL     1       5.300   3.597   8.447  1.00  0.00     0.103 C 
BRANCH   4   5
HETATM    5  N1  UNL     1       5.676   3.446   7.116  1.00  0.00    -0.332 N 
HETATM    6  C6  UNL     1       5.311   2.632   6.047  1.00  0.00     0.279 C 
HETATM    7  O1  UNL     1       4.437   1.735   6.029  1.00  0.00    -0.265 OA
ATOM      8  H1  UNL     1       6.411   4.104   6.855  1.00  0.00     0.168 HD
BRANCH   6   9
HETATM    9  C5  UNL     1       6.029   2.827   4.751  1.00  0.00     0.143 A 
HETATM   10  C4  UNL     1       5.616   2.374   3.533  1.00  0.00     0.045 A 
HETATM   11  C3  UNL     1       6.577   2.778   2.631  1.00  0.00     0.035 A 
HETATM   12  C2  UNL     1       7.535   3.458   3.332  1.00  0.00     0.050 A 
HETATM   13  C1  UNL     1       8.784   4.103   2.856  1.00  0.00     0.076 C 
HETATM   14  O3  UNL     1       7.155   3.454   4.587  1.00  0.00    -0.310 OA
ENDBRANCH   6   9
ENDBRANCH   4   5
ENDBRANCH   1   4
BRANCH   1  15
HETATM   15  N3  UNL     1       3.924   4.929   9.883  1.00  0.00    -0.390 N 
ATOM     16  H3  UNL     1       4.836   5.243  10.216  1.00  0.00     0.155 HD
BRANCH  15  17
HETATM   17  C10 UNL     1       2.817   5.437  10.534  1.00  0.00     0.151 C 
BRANCH  17  18
HETATM   18  C11 UNL     1       2.850   4.923  11.966  1.00  0.00     0.123 A 
HETATM   19  N4  UNL     1       3.001   5.721  13.057  1.00  0.00    -0.294 N 
HETATM   20  C12 UNL     1       2.951   4.943  14.159  1.00  0.00     0.340 A 
ATOM     21  H4  UNL     1       3.129   6.733  13.045  1.00  0.00     0.172 HD
HETATM   22  O2  UNL     1       3.054   5.331  15.350  1.00  0.00    -0.245 OA
HETATM   23  N5  UNL     1       2.770   3.671  13.755  1.00  0.00    -0.250 N 
HETATM   24  N6  UNL     1       2.712   3.687  12.407  1.00  0.00    -0.283 N 
ATOM     25  H5  UNL     1       2.691   2.850  14.356  1.00  0.00     0.192 HD
ATOM     26  H6  UNL     1       2.579   2.866  11.816  1.00  0.00     0.188 HD
ENDBRANCH  17  18
BRANCH  17  27
HETATM   27  C13 UNL     1       2.603   6.901  10.489  1.00  0.00     0.007 C 
HETATM   28  C14 UNL     1       3.543   7.704   9.642  1.00  0.00     0.012 C 
HETATM   29  C15 UNL     1       1.169   7.214   9.984  1.00  0.00     0.012 C 
ENDBRANCH  17  27
ENDBRANCH  15  17
ENDBRANCH   1  15
TORSDOF 7
ENDMDL
MODEL 3
REMARK VINA RESULT: -9.105240058      0.619      1.046
REMARK  7 active torsions:
REMARK  status: ('A' for Active; 'I' for Inactive)
REMARK    1  A    between atoms: C5_5  and  C6_6 
REMARK       I    between atoms: C6_6  and  N1_8 
REMARK    2  A    between atoms: N1_8  and  C7_10 
REMARK    3  A    between atoms: C7_10  and  C8_11 
REMARK    4  A    between atoms: C8_11  and  N3_14 
REMARK    5  A    between atoms: N3_14  and  C10_16 
REMARK    6  A    between atoms: C10_16  and  C11_17 
REMARK    7  A    between atoms: C10_16  and  C13_26 
ROOT
HETATM    1  C8  UNL     1       5.071   7.429  10.127  1.00  0.00     0.225 C 
HETATM    2  C9  UNL     1       5.568   8.623  10.847  1.00  0.00     0.089 C 
HETATM    3  N2  UNL     1       5.902   9.579  11.426  1.00  0.00    -0.195 NA
ENDROOT
BRANCH   1   4
HETATM    4  C7  UNL     1       6.104   6.360  10.045  1.00  0.00     0.103 C 
BRANCH   4   5
HETATM    5  N1  UNL     1       6.292   5.638   8.870  1.00  0.00    -0.332 N 
HETATM    6  C6  UNL     1       5.897   4.401   8.369  1.00  0.00     0.279 C 
HETATM    7  O1  UNL     1       5.176   3.541   8.927  1.00  0.00    -0.265 OA
ATOM      8  H1  UNL     1       6.871   6.148   8.203  1.00  0.00     0.168 HD
BRANCH   6   9
HETATM    9  C5  UNL     1       6.373   4.022   7.004  1.00  0.00     0.143 A 
HETATM   10  C4  UNL     1       5.840   3.047   6.214  1.00  0.00     0.045 A 
HETATM   11  C3  UNL     1       6.586   3.046   5.055  1.00  0.00     0.035 A 
HETATM   12  C2  UNL     1       7.542   4.016   5.183  1.00  0.00     0.050 A 
HETATM   13  C1  UNL     1       8.604   4.437   4.236  1.00  0.00     0.076 C 
HETATM   14  O3  UNL     1       7.366   4.563   6.362  1.00  0.00    -0.310 OA
ENDBRANCH   6   9
ENDBRANCH   4   5
ENDBRANCH   1   4
BRANCH   1  15
HETATM   15  N3  UNL     1       3.938   6.996  10.841  1.00  0.00    -0.390 N 
ATOM     16  H3  UNL     1       3.564   7.637  11.542  1.00  0.00     0.155 HD
BRANCH  15  17
HETATM   17  C10 UNL     1       3.281   5.792  10.689  1.00  0.00     0.151 C 
BRANCH  17  18
HETATM   18  C11 UNL     1       3.052   5.214  12.077  1.00  0.00     0.123 A 
HETATM   19  N4  UNL     1       3.054   5.954  13.219  1.00  0.00    -0.294 N 
HETATM   20  C12 UNL     1       2.787   5.131  14.255  1.00  0.00     0.340 A 
ATOM     21  H4  UNL     1       3.228   6.957  13.281  1.00  0.00     0.172 HD
HETATM   22  O2  UNL     1       2.707   5.460  15.466  1.00  0.00    -0.245 OA
HETATM   23  N5  UNL     1       2.618   3.890  13.761  1.00  0.00    -0.250 N 
HETATM   24  N6  UNL     1       2.786   3.969  12.424  1.00  0.00    -0.283 N 
ATOM     25  H5  UNL     1       2.403   3.049  14.296  1.00  0.00     0.192 HD
ATOM     26  H6  UNL     1       2.717   3.183  11.777  1.00  0.00     0.188 HD
ENDBRANCH  17  18
BRANCH  17  27
HETATM   27  C13 UNL     1       2.037   5.782   9.886  1.00  0.00     0.007 C 
HETATM   28  C14 UNL     1       1.122   6.960  10.029  1.00  0.00     0.012 C 
HETATM   29  C15 UNL     1       2.379   5.663   8.376  1.00  0.00     0.012 C 
ENDBRANCH  17  27
ENDBRANCH  15  17
ENDBRANCH   1  15
TORSDOF 7
ENDMDL
MODEL 4
REMARK VINA RESULT: -9.048211546      1.082      1.112
REMARK  7 active torsions:
REMARK  status: ('A' for Active; 'I' for Inactive)
REMARK    1  A    between atoms: C5_5  and  C6_6 
REMARK       I    between atoms: C6_6  and  N1_8 
REMARK    2  A    between atoms: N1_8  and  C7_10 
REMARK    3  A    between atoms: C7_10  and  C8_11 
REMARK    4  A    between atoms: C8_11  and  N3_14 
REMARK    5  A    between atoms: N3_14  and  C10_16 
REMARK    6  A    between atoms: C10_16  and  C11_17 
REMARK    7  A    between atoms: C10_16  and  C13_26 
ROOT
HETATM    1  C8  UNL     1       5.060   7.668  10.261  1.00  0.00     0.225 C 
HETATM    2  C9  UNL     1       5.506   8.811  11.089  1.00  0.00     0.089 C 
HETATM    3  N2  UNL     1       5.799   9.726  11.753  1.00  0.00    -0.195 NA
ENDROOT
BRANCH   1   4
HETATM    4  C7  UNL     1       6.116   6.625  10.141  1.00  0.00     0.103 C 
BRANCH   4   5
HETATM    5  N1  UNL     1       6.121   5.734   9.071  1.00  0.00    -0.332 N 
HETATM    6  C6  UNL     1       7.053   5.268   8.148  1.00  0.00     0.279 C 
HETATM    7  O1  UNL     1       8.265   5.574   8.059  1.00  0.00    -0.265 OA
ATOM      8  H1  UNL     1       5.204   5.313   8.927  1.00  0.00     0.168 HD
BRANCH   6   9
HETATM    9  C5  UNL     1       6.583   4.284   7.126  1.00  0.00     0.143 A 
HETATM   10  C4  UNL     1       7.318   3.803   6.084  1.00  0.00     0.045 A 
HETATM   11  C3  UNL     1       6.492   2.930   5.407  1.00  0.00     0.035 A 
HETATM   12  C2  UNL     1       5.290   2.914   6.061  1.00  0.00     0.050 A 
HETATM   13  C1  UNL     1       4.053   2.152   5.760  1.00  0.00     0.076 C 
HETATM   14  O3  UNL     1       5.404   3.738   7.075  1.00  0.00    -0.310 OA
ENDBRANCH   6   9
ENDBRANCH   4   5
ENDBRANCH   1   4
BRANCH   1  15
HETATM   15  N3  UNL     1       3.909   7.163  10.894  1.00  0.00    -0.390 N 
ATOM     16  H3  UNL     1       3.452   7.775  11.572  1.00  0.00     0.155 HD
BRANCH  15  17
HETATM   17  C10 UNL     1       3.336   5.924  10.691  1.00  0.00     0.151 C 
BRANCH  17  18
HETATM   18  C11 UNL     1       3.121   5.287  12.055  1.00  0.00     0.123 A 
HETATM   19  N4  UNL     1       3.095   5.983  13.224  1.00  0.00    -0.294 N 
HETATM   20  C12 UNL     1       2.851   5.114  14.227  1.00  0.00     0.340 A 
ATOM     21  H4  UNL     1       3.236   6.989  13.325  1.00  0.00     0.172 HD
HETATM   22  O2  UNL     1       2.756   5.394  15.449  1.00  0.00    -0.245 OA
HETATM   23  N5  UNL     1       2.724   3.888  13.686  1.00  0.00    -0.250 N 
HETATM   24  N6  UNL     1       2.894   4.022  12.354  1.00  0.00    -0.283 N 
ATOM     25  H5  UNL     1       2.535   3.020  14.189  1.00  0.00     0.192 HD
ATOM     26  H6  UNL     1       2.853   3.259  11.678  1.00  0.00     0.188 HD
ENDBRANCH  17  18
BRANCH  17  27
HETATM   27  C13 UNL     1       2.110   5.860   9.863  1.00  0.00     0.007 C 
HETATM   28  C14 UNL     1       1.160   7.015   9.957  1.00  0.00     0.012 C 
HETATM   29  C15 UNL     1       2.486   5.711   8.364  1.00  0.00     0.012 C 
ENDBRANCH  17  27
ENDBRANCH  15  17
ENDBRANCH   1  15
TORSDOF 7
ENDMDL
MODEL 5
REMARK VINA RESULT: -9.018999696      1.902      2.874
REMARK  7 active torsions:
REMARK  status: ('A' for Active; 'I' for Inactive)
REMARK    1  A    between atoms: C5_5  and  C6_6 
REMARK       I    between atoms: C6_6  and  N1_8 
REMARK    2  A    between atoms: N1_8  and  C7_10 
REMARK    3  A    between atoms: C7_10  and  C8_11 
REMARK    4  A    between atoms: C8_11  and  N3_14 
REMARK    5  A    between atoms: N3_14  and  C10_16 
REMARK    6  A    between atoms: C10_16  and  C11_17 
REMARK    7  A    between atoms: C10_16  and  C13_26 
ROOT
HETATM    1  C8  UNL     1       3.630   4.007   8.836  1.00  0.00     0.225 C 
HETATM    2  C9  UNL     1       3.086   4.741   7.671  1.00  0.00     0.089 C 
HETATM    3  N2  UNL     1       2.620   5.349   6.791  1.00  0.00    -0.195 NA
ENDROOT
BRANCH   1   4
HETATM    4  C7  UNL     1       4.989   3.463   8.564  1.00  0.00     0.103 C 
BRANCH   4   5
HETATM    5  N1  UNL     1       5.433   3.271   7.259  1.00  0.00    -0.332 N 
HETATM    6  C6  UNL     1       6.581   3.564   6.528  1.00  0.00     0.279 C 
HETATM    7  O1  UNL     1       7.622   4.133   6.930  1.00  0.00    -0.265 OA
ATOM      8  H1  UNL     1       4.736   2.791   6.690  1.00  0.00     0.168 HD
BRANCH   6   9
HETATM    9  C5  UNL     1       6.607   3.165   5.089  1.00  0.00     0.143 A 
HETATM   10  C4  UNL     1       5.741   2.303   4.483  1.00  0.00     0.045 A 
HETATM   11  C3  UNL     1       6.136   2.232   3.164  1.00  0.00     0.035 A 
HETATM   12  C2  UNL     1       7.223   3.050   3.018  1.00  0.00     0.050 A 
HETATM   13  C1  UNL     1       8.038   3.344   1.813  1.00  0.00     0.076 C 
HETATM   14  O3  UNL     1       7.456   3.578   4.195  1.00  0.00    -0.310 OA
ENDBRANCH   6   9
ENDBRANCH   4   5
ENDBRANCH   1   4
BRANCH   1  15
HETATM   15  N3  UNL     1       3.649   4.933   9.896  1.00  0.00    -0.390 N 
ATOM     16  H3  UNL     1       4.562   5.294  10.175  1.00  0.00     0.155 HD
BRANCH  15  17
HETATM   17  C10 UNL     1       2.555   5.402  10.597  1.00  0.00     0.151 C 
BRANCH  17  18
HETATM   18  C11 UNL     1       2.688   4.917  12.033  1.00  0.00     0.123 A 
HETATM   19  N4  UNL     1       2.738   5.743  13.113  1.00  0.00    -0.294 N 
HETATM   20  C12 UNL     1       2.821   4.980  14.223  1.00  0.00     0.340 A 
ATOM     21  H4  UNL     1       2.716   6.763  13.088  1.00  0.00     0.172 HD
HETATM   22  O2  UNL     1       2.886   5.395  15.409  1.00  0.00    -0.245 OA
HETATM   23  N5  UNL     1       2.822   3.691  13.836  1.00  0.00    -0.250 N 
HETATM   24  N6  UNL     1       2.739   3.680  12.489  1.00  0.00    -0.283 N 
ATOM     25  H5  UNL     1       2.874   2.875  14.447  1.00  0.00     0.192 HD
ATOM     26  H6  UNL     1       2.718   2.841  11.910  1.00  0.00     0.188 HD
ENDBRANCH  17  18
BRANCH  17  27
HETATM   27  C13 UNL     1       2.271   6.854  10.539  1.00  0.00     0.007 C 
HETATM   28  C14 UNL     1       3.257   7.715   9.809  1.00  0.00     0.012 C 
HETATM   29  C15 UNL     1       0.887   7.099   9.878  1.00  0.00     0.012 C 
ENDBRANCH  17  27
ENDBRANCH  15  17
ENDBRANCH   1  15
TORSDOF 7
ENDMDL
