MODEL 1
REMARK VINA RESULT: -9.060816490      0.000      0.000
REMARK  8 active torsions:
REMARK  status: ('A' for Active; 'I' for Inactive)
REMARK    1  A    between atoms: C2_2  and  C3_3 
REMARK    2  A    between atoms: C2_2  and  N4_21 
REMARK    3  A    between atoms: C3_3  and  C4_4 
REMARK    4  A    between atoms: C4_4  and  C6_6 
REMARK       I    between atoms: C6_6  and  N1_8 
REMARK    5  A    between atoms: N1_8  and  C7_10 
REMARK    6  A    between atoms: C10_13  and  O2_14 
REMARK    7  A    between atoms: O2_14  and  C11_15 
REMARK    8  A    between atoms: N4_21  and  S1_23 
ROOT
HETATM    1  C6  UNL     1       3.343   4.937   8.717  1.00  0.00     0.227 C 
HETATM    2  O1  UNL     1       3.020   3.954   9.414  1.00  0.00    -0.273 OA
HETATM    3  N1  UNL     1       2.837   6.223   9.092  1.00  0.00    -0.307 N 
ATOM      4  H1  UNL     1       3.084   7.043   8.539  1.00  0.00     0.171 HD
ENDROOT
BRANCH   1   5
HETATM    5  C4  UNL     1       4.230   4.816   7.513  1.00  0.00     0.076 C 
HETATM    6  C5  UNL     1       5.286   3.773   8.011  1.00  0.00     0.020 C 
BRANCH   5   7
HETATM    7  C3  UNL     1       3.549   4.218   6.335  1.00  0.00     0.039 C 
BRANCH   7   8
HETATM    8  C2  UNL     1       3.785   2.798   6.020  1.00  0.00     0.089 C 
HETATM    9  C1  UNL     1       2.788   1.834   6.575  1.00  0.00     0.033 C 
BRANCH   8  10
HETATM   10  N4  UNL     1       4.029   2.563   4.599  1.00  0.00    -0.315 N 
ATOM     11  H4  UNL     1       3.301   2.618   3.887  1.00  0.00     0.172 HD
BRANCH  10  12
HETATM   12  S1  UNL     1       5.665   2.184   4.251  1.00  0.00     0.223 S 
HETATM   13  C12 UNL     1       6.764   3.507   4.699  1.00  0.00     0.185 C 
HETATM   14  O4  UNL     1       6.035   0.996   5.093  1.00  0.00    -0.206 OA
HETATM   15  O5  UNL     1       5.868   1.909   2.788  1.00  0.00    -0.206 OA
ENDBRANCH  10  12
ENDBRANCH   8  10
ENDBRANCH   7   8
ENDBRANCH   5   7
ENDBRANCH   1   5
BRANCH   3  16
HETATM   16  C7  UNL     1       1.994   6.367  10.225  1.00  0.00     0.153 A 
HETATM   17  C8  UNL     1       0.825   7.092  10.308  1.00  0.00     0.061 A 
HETATM   18  C9  UNL     1       0.381   6.924  11.595  1.00  0.00     0.069 A 
HETATM   19  C10 UNL     1       1.277   6.111  12.263  1.00  0.00     0.195 A 
HETATM   20  O3  UNL     1       2.210   5.814  11.398  1.00  0.00    -0.270 OA
BRANCH  19  21
HETATM   21  O2  UNL     1       1.251   5.668  13.565  1.00  0.00    -0.258 OA
BRANCH  21  22
HETATM   22  C11 UNL     1       2.329   4.954  14.062  1.00  0.00     0.232 C 
HETATM   23  N2  UNL     1       2.713   3.919  13.413  1.00  0.00    -0.367 N 
ATOM     24  H22 UNL     1       2.232   3.641  12.557  1.00  0.00     0.159 HD
ATOM     25  H21 UNL     1       3.507   3.393  13.778  1.00  0.00     0.159 HD
HETATM   26  N3  UNL     1       2.996   5.341  15.249  1.00  0.00    -0.056 NA
ENDBRANCH  21  22
ENDBRANCH  19  21
ENDBRANCH   3  16
TORSDOF 8
ENDMDL
MODEL 2
REMARK VINA RESULT: -8.840311815      1.084      1.199
REMARK  8 active torsions:
REMARK  status: ('A' for Active; 'I' for Inactive)
REMARK    1  A    between atoms: C2_2  and  C3_3 
REMARK    2  A    between atoms: C2_2  and  N4_21 
REMARK    3  A    between atoms: C3_3  and  C4_4 
REMARK    4  A    between atoms: C4_4  and  C6_6 
REMARK       I    between atoms: C6_6  and  N1_8 
REMARK    5  A    between atoms: N1_8  and  C7_10 
REMARK    6  A    between atoms: C10_13  and  O2_14 
REMARK    7  A    between atoms: O2_14  and  C11_15 
REMARK    8  A    between atoms: N4_21  and  S1_23 
ROOT
HETATM    1  C6  UNL     1       3.700   5.998   8.570  1.00  0.00     0.227 C 
HETATM    2  O1  UNL     1       4.318   6.666   9.423  1.00  0.00    -0.273 OA
HETATM    3  N1  UNL     1       2.340   5.643   8.849  1.00  0.00    -0.307 N 
ATOM      4  H1  UNL     1       1.812   5.097   8.170  1.00  0.00     0.171 HD
ENDROOT
BRANCH   1   5
HETATM    5  C4  UNL     1       4.327   5.557   7.281  1.00  0.00     0.076 C 
HETATM    6  C5  UNL     1       5.565   4.753   7.799  1.00  0.00     0.020 C 
BRANCH   5   7
HETATM    7  C3  UNL     1       3.484   4.608   6.507  1.00  0.00     0.039 C 
BRANCH   7   8
HETATM    8  C2  UNL     1       3.990   3.248   6.254  1.00  0.00     0.089 C 
HETATM    9  C1  UNL     1       3.243   2.141   6.923  1.00  0.00     0.033 C 
BRANCH   8  10
HETATM   10  N4  UNL     1       4.203   2.974   4.835  1.00  0.00    -0.315 N 
ATOM     11  H4  UNL     1       3.493   3.132   4.120  1.00  0.00     0.172 HD
BRANCH  10  12
HETATM   12  S1  UNL     1       5.768   2.359   4.495  1.00  0.00     0.223 S 
HETATM   13  C12 UNL     1       6.113   2.347   2.751  1.00  0.00     0.185 C 
HETATM   14  O4  UNL     1       6.759   3.289   5.136  1.00  0.00    -0.206 OA
HETATM   15  O5  UNL     1       5.927   0.952   4.994  1.00  0.00    -0.206 OA
ENDBRANCH  10  12
ENDBRANCH   8  10
ENDBRANCH   7   8
ENDBRANCH   5   7
ENDBRANCH   1   5
BRANCH   3  16
HETATM   16  C7  UNL     1       1.721   6.045  10.062  1.00  0.00     0.153 A 
HETATM   17  C8  UNL     1       0.855   7.101  10.246  1.00  0.00     0.061 A 
HETATM   18  C9  UNL     1       0.532   7.080  11.579  1.00  0.00     0.069 A 
HETATM   19  C10 UNL     1       1.200   6.026  12.174  1.00  0.00     0.195 A 
HETATM   20  O3  UNL     1       1.888   5.452  11.223  1.00  0.00    -0.270 OA
BRANCH  19  21
HETATM   21  O2  UNL     1       1.189   5.614  13.487  1.00  0.00    -0.258 OA
BRANCH  21  22
HETATM   22  C11 UNL     1       2.286   4.941  13.998  1.00  0.00     0.232 C 
HETATM   23  N2  UNL     1       2.693   3.898  13.375  1.00  0.00    -0.367 N 
ATOM     24  H22 UNL     1       2.215   3.584  12.530  1.00  0.00     0.159 HD
ATOM     25  H21 UNL     1       3.500   3.402  13.751  1.00  0.00     0.159 HD
HETATM   26  N3  UNL     1       2.949   5.377  15.170  1.00  0.00    -0.056 NA
ENDBRANCH  21  22
ENDBRANCH  19  21
ENDBRANCH   3  16
TORSDOF 8
ENDMDL
MODEL 3
REMARK VINA RESULT: -8.807036623      1.747      1.935
REMARK  8 active torsions:
REMARK  status: ('A' for Active; 'I' for Inactive)
REMARK    1  A    between atoms: C2_2  and  C3_3 
REMARK    2  A    between atoms: C2_2  and  N4_21 
REMARK    3  A    between atoms: C3_3  and  C4_4 
REMARK    4  A    between atoms: C4_4  and  C6_6 
REMARK       I    between atoms: C6_6  and  N1_8 
REMARK    5  A    between atoms: N1_8  and  C7_10 
REMARK    6  A    between atoms: C10_13  and  O2_14 
REMARK    7  A    between atoms: O2_14  and  C11_15 
REMARK    8  A    between atoms: N4_21  and  S1_23 
ROOT
HETATM    1  C6  UNL     1       3.583   6.355   8.682  1.00  0.00     0.227 C 
HETATM    2  O1  UNL     1       4.166   7.043   9.545  1.00  0.00    -0.273 OA
HETATM    3  N1  UNL     1       2.267   5.876   8.979  1.00  0.00    -0.307 N 
ATOM      4  H1  UNL     1       1.769   5.311   8.292  1.00  0.00     0.171 HD
ENDROOT
BRANCH   1   5
HETATM    5  C4  UNL     1       4.211   6.015   7.362  1.00  0.00     0.076 C 
HETATM    6  C5  UNL     1       5.418   7.011   7.329  1.00  0.00     0.020 C 
BRANCH   5   7
HETATM    7  C3  UNL     1       4.779   4.642   7.314  1.00  0.00     0.039 C 
BRANCH   7   8
HETATM    8  C2  UNL     1       3.968   3.556   6.738  1.00  0.00     0.089 C 
HETATM    9  C1  UNL     1       3.340   2.622   7.721  1.00  0.00     0.033 C 
BRANCH   8  10
HETATM   10  N4  UNL     1       3.002   4.027   5.750  1.00  0.00    -0.315 N 
ATOM     11  H4  UNL     1       2.147   4.527   5.994  1.00  0.00     0.172 HD
BRANCH  10  12
HETATM   12  S1  UNL     1       3.452   3.656   4.137  1.00  0.00     0.223 S 
HETATM   13  C12 UNL     1       4.878   2.596   4.072  1.00  0.00     0.185 C 
HETATM   14  O4  UNL     1       2.310   2.899   3.521  1.00  0.00    -0.206 OA
HETATM   15  O5  UNL     1       3.779   4.896   3.356  1.00  0.00    -0.206 OA
ENDBRANCH  10  12
ENDBRANCH   8  10
ENDBRANCH   7   8
ENDBRANCH   5   7
ENDBRANCH   1   5
BRANCH   3  16
HETATM   16  C7  UNL     1       1.649   6.180  10.220  1.00  0.00     0.153 A 
HETATM   17  C8  UNL     1       0.750   7.193  10.479  1.00  0.00     0.061 A 
HETATM   18  C9  UNL     1       0.443   7.079  11.810  1.00  0.00     0.069 A 
HETATM   19  C10 UNL     1       1.152   6.012  12.331  1.00  0.00     0.195 A 
HETATM   20  O3  UNL     1       1.848   5.522  11.341  1.00  0.00    -0.270 OA
BRANCH  19  21
HETATM   21  O2  UNL     1       1.169   5.519  13.616  1.00  0.00    -0.258 OA
BRANCH  21  22
HETATM   22  C11 UNL     1       2.311   4.895  14.090  1.00  0.00     0.232 C 
HETATM   23  N2  UNL     1       2.753   3.882  13.443  1.00  0.00    -0.367 N 
ATOM     24  H22 UNL     1       2.269   3.555  12.606  1.00  0.00     0.159 HD
ATOM     25  H21 UNL     1       3.593   3.422  13.792  1.00  0.00     0.159 HD
HETATM   26  N3  UNL     1       2.981   5.348  15.251  1.00  0.00    -0.056 NA
ENDBRANCH  21  22
ENDBRANCH  19  21
ENDBRANCH   3  16
TORSDOF 8
ENDMDL
MODEL 4
REMARK VINA RESULT: -8.795504300      1.318      1.938
REMARK  8 active torsions:
REMARK  status: ('A' for Active; 'I' for Inactive)
REMARK    1  A    between atoms: C2_2  and  C3_3 
REMARK    2  A    between atoms: C2_2  and  N4_21 
REMARK    3  A    between atoms: C3_3  and  C4_4 
REMARK    4  A    between atoms: C4_4  and  C6_6 
REMARK       I    between atoms: C6_6  and  N1_8 
REMARK    5  A    between atoms: N1_8  and  C7_10 
REMARK    6  A    between atoms: C10_13  and  O2_14 
REMARK    7  A    between atoms: O2_14  and  C11_15 
REMARK    8  A    between atoms: N4_21  and  S1_23 
ROOT
HETATM    1  C6  UNL     1       3.094   4.813   8.775  1.00  0.00     0.227 C 
HETATM    2  O1  UNL     1       3.276   4.080   9.768  1.00  0.00    -0.273 OA
HETATM    3  N1  UNL     1       2.238   5.951   8.926  1.00  0.00    -0.307 N 
ATOM      4  H1  UNL     1       2.071   6.566   8.130  1.00  0.00     0.171 HD
ENDROOT
BRANCH   1   5
HETATM    5  C4  UNL     1       3.732   4.542   7.444  1.00  0.00     0.076 C 
HETATM    6  C5  UNL     1       2.725   5.240   6.471  1.00  0.00     0.020 C 
BRANCH   5   7
HETATM    7  C3  UNL     1       5.045   5.216   7.270  1.00  0.00     0.039 C 
BRANCH   7   8
HETATM    8  C2  UNL     1       6.175   4.446   6.721  1.00  0.00     0.089 C 
HETATM    9  C1  UNL     1       7.503   4.700   7.355  1.00  0.00     0.033 C 
BRANCH   8  10
HETATM   10  N4  UNL     1       5.892   3.017   6.614  1.00  0.00    -0.315 N 
ATOM     11  H4  UNL     1       5.682   2.425   7.417  1.00  0.00     0.172 HD
BRANCH  10  12
HETATM   12  S1  UNL     1       5.951   2.438   5.001  1.00  0.00     0.223 S 
HETATM   13  C12 UNL     1       4.529   2.943   4.061  1.00  0.00     0.185 C 
HETATM   14  O4  UNL     1       7.154   3.058   4.350  1.00  0.00    -0.206 OA
HETATM   15  O5  UNL     1       6.010   0.938   4.956  1.00  0.00    -0.206 OA
ENDBRANCH  10  12
ENDBRANCH   8  10
ENDBRANCH   7   8
ENDBRANCH   5   7
ENDBRANCH   1   5
BRANCH   3  16
HETATM   16  C7  UNL     1       1.620   6.232  10.173  1.00  0.00     0.153 A 
HETATM   17  C8  UNL     1       0.681   7.205  10.438  1.00  0.00     0.061 A 
HETATM   18  C9  UNL     1       0.392   7.081  11.773  1.00  0.00     0.069 A 
HETATM   19  C10 UNL     1       1.152   6.047  12.289  1.00  0.00     0.195 A 
HETATM   20  O3  UNL     1       1.858   5.585  11.292  1.00  0.00    -0.270 OA
BRANCH  19  21
HETATM   21  O2  UNL     1       1.202   5.558  13.574  1.00  0.00    -0.258 OA
BRANCH  21  22
HETATM   22  C11 UNL     1       2.344   4.905  14.010  1.00  0.00     0.232 C 
HETATM   23  N2  UNL     1       2.749   3.894  13.337  1.00  0.00    -0.367 N 
ATOM     24  H22 UNL     1       2.238   3.588  12.509  1.00  0.00     0.159 HD
ATOM     25  H21 UNL     1       3.590   3.414  13.657  1.00  0.00     0.159 HD
HETATM   26  N3  UNL     1       3.052   5.330  15.159  1.00  0.00    -0.056 NA
ENDBRANCH  21  22
ENDBRANCH  19  21
ENDBRANCH   3  16
TORSDOF 8
ENDMDL
MODEL 5
REMARK VINA RESULT: -8.761838623      1.618      2.092
REMARK  8 active torsions:
REMARK  status: ('A' for Active; 'I' for Inactive)
REMARK    1  A    between atoms: C2_2  and  C3_3 
REMARK    2  A    between atoms: C2_2  and  N4_21 
REMARK    3  A    between atoms: C3_3  and  C4_4 
REMARK    4  A    between atoms: C4_4  and  C6_6 
REMARK       I    between atoms: C6_6  and  N1_8 
REMARK    5  A    between atoms: N1_8  and  C7_10 
REMARK    6  A    between atoms: C10_13  and  O2_14 
REMARK    7  A    between atoms: O2_14  and  C11_15 
REMARK    8  A    between atoms: N4_21  and  S1_23 
ROOT
HETATM    1  C6  UNL     1       3.615   6.229   8.658  1.00  0.00     0.227 C 
HETATM    2  O1  UNL     1       4.196   6.951   9.493  1.00  0.00    -0.273 OA
HETATM    3  N1  UNL     1       2.299   5.759   8.974  1.00  0.00    -0.307 N 
ATOM      4  H1  UNL     1       1.802   5.167   8.310  1.00  0.00     0.171 HD
ENDROOT
BRANCH   1   5
HETATM    5  C4  UNL     1       4.244   5.838   7.353  1.00  0.00     0.076 C 
HETATM    6  C5  UNL     1       5.481   6.795   7.307  1.00  0.00     0.020 C 
BRANCH   5   7
HETATM    7  C3  UNL     1       4.769   4.447   7.343  1.00  0.00     0.039 C 
BRANCH   7   8
HETATM    8  C2  UNL     1       5.090   3.815   6.052  1.00  0.00     0.089 C 
HETATM    9  C1  UNL     1       6.440   3.183   5.954  1.00  0.00     0.033 C 
BRANCH   8  10
HETATM   10  N4  UNL     1       4.039   2.917   5.580  1.00  0.00    -0.315 N 
ATOM     11  H4  UNL     1       3.729   2.094   6.096  1.00  0.00     0.172 HD
BRANCH  10  12
HETATM   12  S1  UNL     1       3.379   3.389   4.069  1.00  0.00     0.223 S 
HETATM   13  C12 UNL     1       3.174   5.151   3.953  1.00  0.00     0.185 C 
HETATM   14  O4  UNL     1       4.364   2.987   3.009  1.00  0.00    -0.206 OA
HETATM   15  O5  UNL     1       2.032   2.765   3.837  1.00  0.00    -0.206 OA
ENDBRANCH  10  12
ENDBRANCH   8  10
ENDBRANCH   7   8
ENDBRANCH   5   7
ENDBRANCH   1   5
BRANCH   3  16
HETATM   16  C7  UNL     1       1.681   6.112  10.202  1.00  0.00     0.153 A 
HETATM   17  C8  UNL     1       0.780   7.131  10.420  1.00  0.00     0.061 A 
HETATM   18  C9  UNL     1       0.473   7.070  11.756  1.00  0.00     0.069 A 
HETATM   19  C10 UNL     1       1.185   6.027  12.319  1.00  0.00     0.195 A 
HETATM   20  O3  UNL     1       1.882   5.499  11.348  1.00  0.00    -0.270 OA
BRANCH  19  21
HETATM   21  O2  UNL     1       1.204   5.586  13.622  1.00  0.00    -0.258 OA
BRANCH  21  22
HETATM   22  C11 UNL     1       2.315   4.908  14.095  1.00  0.00     0.232 C 
HETATM   23  N2  UNL     1       2.696   3.864  13.459  1.00  0.00    -0.367 N 
ATOM     24  H22 UNL     1       2.188   3.552  12.632  1.00  0.00     0.159 HD
ATOM     25  H21 UNL     1       3.515   3.365  13.807  1.00  0.00     0.159 HD
HETATM   26  N3  UNL     1       3.020   5.342  15.243  1.00  0.00    -0.056 NA
ENDBRANCH  21  22
ENDBRANCH  19  21
ENDBRANCH   3  16
TORSDOF 8
ENDMDL
