MODEL 1
REMARK VINA RESULT: -8.660906382      0.000      0.000
REMARK  7 active torsions:
REMARK  status: ('A' for Active; 'I' for Inactive)
REMARK    1  A    between atoms: N1_1  and  N2_4 
REMARK    2  A    between atoms: N2_4  and  C1_5 
REMARK    3  A    between atoms: C1_5  and  C2_7 
REMARK       I    between atoms: C2_7  and  N3_9 
REMARK    4  A    between atoms: N3_9  and  C3_11 
REMARK    5  A    between atoms: C3_11  and  C4_12 
REMARK    6  A    between atoms: C3_11  and  C5_15 
REMARK    7  A    between atoms: C6_18  and  C7_19 
ROOT
HETATM    1  C3  UNL     1       4.255   2.378   6.630  1.00  0.00     0.243 C 
ENDROOT
BRANCH   1   2
HETATM    2  N3  UNL     1       4.688   2.989   5.386  1.00  0.00    -0.339 N 
HETATM    3  C2  UNL     1       5.660   2.411   4.542  1.00  0.00     0.250 C 
HETATM    4  O1  UNL     1       6.163   1.306   4.911  1.00  0.00    -0.271 OA
ATOM      5  H3  UNL     1       4.269   3.877   5.108  1.00  0.00     0.163 HD
BRANCH   3   6
HETATM    6  C1  UNL     1       6.050   3.087   3.296  1.00  0.00     0.262 C 
HETATM    7  S1  UNL     1       6.168   4.879   3.558  1.00  0.00    -0.062 SA
BRANCH   6   8
HETATM    8  N2  UNL     1       7.278   2.542   2.752  1.00  0.00    -0.122 NA
BRANCH   8   9
HETATM    9  N1  UNL     1       7.996   3.471   2.019  1.00  0.00    -0.347 N 
ATOM     10  H12 UNL     1       7.851   4.477   2.109  1.00  0.00     0.172 HD
ATOM     11  H11 UNL     1       8.674   3.038   1.391  1.00  0.00     0.172 HD
ENDBRANCH   8   9
ENDBRANCH   6   8
ENDBRANCH   3   6
ENDBRANCH   1   2
BRANCH   1  12
HETATM   12  C4  UNL     1       2.866   1.888   6.464  1.00  0.00     0.203 C 
HETATM   13  O2  UNL     1       2.401   1.062   7.258  1.00  0.00    -0.646 OA
HETATM   14  O3  UNL     1       2.094   2.362   5.414  1.00  0.00    -0.646 OA
ENDBRANCH   1  12
BRANCH   1  15
HETATM   15  C5  UNL     1       4.314   3.380   7.741  1.00  0.00     0.085 A 
HETATM   16  N4  UNL     1       3.338   3.977   8.395  1.00  0.00    -0.351 N 
HETATM   17  C6  UNL     1       3.616   4.826   9.336  1.00  0.00     0.049 A 
ATOM     18  H4  UNL     1       2.366   3.773   8.163  1.00  0.00     0.166 HD
HETATM   19  C13 UNL     1       4.941   5.063   9.605  1.00  0.00     0.082 A 
HETATM   20  S2  UNL     1       5.708   4.034   8.470  1.00  0.00    -0.084 SA
BRANCH  17  21
HETATM   21  C7  UNL     1       2.550   5.524  10.104  1.00  0.00    -0.009 A 
HETATM   22  C8  UNL     1       1.711   6.432   9.530  1.00  0.00     0.014 A 
HETATM   23  C9  UNL     1       0.715   7.091  10.223  1.00  0.00     0.001 A 
HETATM   24  C10 UNL     1       0.544   6.834  11.558  1.00  0.00     0.000 A 
HETATM   25  C11 UNL     1       1.368   5.926  12.172  1.00  0.00     0.001 A 
HETATM   26  C12 UNL     1       2.354   5.283  11.457  1.00  0.00     0.014 A 
ENDBRANCH  17  21
ENDBRANCH   1  15
TORSDOF 7
ENDMDL
MODEL 2
REMARK VINA RESULT: -8.655541363      0.018      1.001
REMARK  7 active torsions:
REMARK  status: ('A' for Active; 'I' for Inactive)
REMARK    1  A    between atoms: N1_1  and  N2_4 
REMARK    2  A    between atoms: N2_4  and  C1_5 
REMARK    3  A    between atoms: C1_5  and  C2_7 
REMARK       I    between atoms: C2_7  and  N3_9 
REMARK    4  A    between atoms: N3_9  and  C3_11 
REMARK    5  A    between atoms: C3_11  and  C4_12 
REMARK    6  A    between atoms: C3_11  and  C5_15 
REMARK    7  A    between atoms: C6_18  and  C7_19 
ROOT
HETATM    1  C3  UNL     1       4.269   2.386   6.631  1.00  0.00     0.243 C 
ENDROOT
BRANCH   1   2
HETATM    2  N3  UNL     1       4.700   2.999   5.386  1.00  0.00    -0.339 N 
HETATM    3  C2  UNL     1       5.672   2.424   4.542  1.00  0.00     0.250 C 
HETATM    4  O1  UNL     1       6.178   1.320   4.910  1.00  0.00    -0.271 OA
ATOM      5  H3  UNL     1       4.279   3.886   5.110  1.00  0.00     0.163 HD
BRANCH   3   6
HETATM    6  C1  UNL     1       6.060   3.101   3.296  1.00  0.00     0.262 C 
HETATM    7  S1  UNL     1       6.184   4.892   3.561  1.00  0.00    -0.062 SA
BRANCH   6   8
HETATM    8  N2  UNL     1       7.285   2.553   2.746  1.00  0.00    -0.122 NA
BRANCH   8   9
HETATM    9  N1  UNL     1       8.002   3.481   2.011  1.00  0.00    -0.347 N 
ATOM     10  H12 UNL     1       7.580   4.326   1.626  1.00  0.00     0.172 HD
ATOM     11  H11 UNL     1       8.983   3.224   1.902  1.00  0.00     0.172 HD
ENDBRANCH   8   9
ENDBRANCH   6   8
ENDBRANCH   3   6
ENDBRANCH   1   2
BRANCH   1  12
HETATM   12  C4  UNL     1       2.881   1.893   6.466  1.00  0.00     0.203 C 
HETATM   13  O2  UNL     1       2.422   1.058   7.252  1.00  0.00    -0.646 OA
HETATM   14  O3  UNL     1       2.103   2.375   5.422  1.00  0.00    -0.646 OA
ENDBRANCH   1  12
BRANCH   1  15
HETATM   15  C5  UNL     1       4.326   3.388   7.742  1.00  0.00     0.085 A 
HETATM   16  N4  UNL     1       3.349   3.975   8.404  1.00  0.00    -0.351 N 
HETATM   17  C6  UNL     1       3.626   4.825   9.343  1.00  0.00     0.049 A 
ATOM     18  H4  UNL     1       2.377   3.761   8.178  1.00  0.00     0.166 HD
HETATM   19  C13 UNL     1       4.950   5.075   9.603  1.00  0.00     0.082 A 
HETATM   20  S2  UNL     1       5.719   4.055   8.461  1.00  0.00    -0.084 SA
BRANCH  17  21
HETATM   21  C7  UNL     1       2.558   5.513  10.119  1.00  0.00    -0.009 A 
HETATM   22  C8  UNL     1       2.359   5.287  11.448  1.00  0.00     0.014 A 
HETATM   23  C9  UNL     1       1.376   5.913  12.187  1.00  0.00     0.001 A 
HETATM   24  C10 UNL     1       0.545   6.813  11.573  1.00  0.00     0.000 A 
HETATM   25  C11 UNL     1       0.714   7.069  10.236  1.00  0.00     0.001 A 
HETATM   26  C12 UNL     1       1.703   6.429   9.522  1.00  0.00     0.014 A 
ENDBRANCH  17  21
ENDBRANCH   1  15
TORSDOF 7
ENDMDL
MODEL 3
REMARK VINA RESULT: -8.400019943      1.253      1.776
REMARK  7 active torsions:
REMARK  status: ('A' for Active; 'I' for Inactive)
REMARK    1  A    between atoms: N1_1  and  N2_4 
REMARK    2  A    between atoms: N2_4  and  C1_5 
REMARK    3  A    between atoms: C1_5  and  C2_7 
REMARK       I    between atoms: C2_7  and  N3_9 
REMARK    4  A    between atoms: N3_9  and  C3_11 
REMARK    5  A    between atoms: C3_11  and  C4_12 
REMARK    6  A    between atoms: C3_11  and  C5_15 
REMARK    7  A    between atoms: C6_18  and  C7_19 
ROOT
HETATM    1  C3  UNL     1       4.332   2.674   6.624  1.00  0.00     0.243 C 
ENDROOT
BRANCH   1   2
HETATM    2  N3  UNL     1       4.744   3.431   5.456  1.00  0.00    -0.339 N 
HETATM    3  C2  UNL     1       6.025   3.315   4.875  1.00  0.00     0.250 C 
HETATM    4  O1  UNL     1       6.834   2.503   5.418  1.00  0.00    -0.271 OA
ATOM      5  H3  UNL     1       4.076   4.078   5.035  1.00  0.00     0.163 HD
BRANCH   3   6
HETATM    6  C1  UNL     1       6.373   4.115   3.692  1.00  0.00     0.262 C 
HETATM    7  S1  UNL     1       7.091   3.058   2.404  1.00  0.00    -0.062 SA
BRANCH   6   8
HETATM    8  N2  UNL     1       5.236   4.867   3.198  1.00  0.00    -0.122 NA
BRANCH   8   9
HETATM    9  N1  UNL     1       5.376   6.231   3.386  1.00  0.00    -0.347 N 
ATOM     10  H12 UNL     1       6.126   6.773   2.957  1.00  0.00     0.172 HD
ATOM     11  H11 UNL     1       4.653   6.621   3.992  1.00  0.00     0.172 HD
ENDBRANCH   8   9
ENDBRANCH   6   8
ENDBRANCH   3   6
ENDBRANCH   1   2
BRANCH   1  12
HETATM   12  C4  UNL     1       2.967   2.143   6.393  1.00  0.00     0.203 C 
HETATM   13  O2  UNL     1       2.277   2.590   5.470  1.00  0.00    -0.646 OA
HETATM   14  O3  UNL     1       2.473   1.143   7.218  1.00  0.00    -0.646 OA
ENDBRANCH   1  12
BRANCH   1  15
HETATM   15  C5  UNL     1       4.339   3.555   7.835  1.00  0.00     0.085 A 
HETATM   16  N4  UNL     1       3.340   4.150   8.455  1.00  0.00    -0.351 N 
HETATM   17  C6  UNL     1       3.572   4.880   9.501  1.00  0.00     0.049 A 
ATOM     18  H4  UNL     1       2.385   4.038   8.112  1.00  0.00     0.166 HD
HETATM   19  C13 UNL     1       4.875   4.996   9.916  1.00  0.00     0.082 A 
HETATM   20  S2  UNL     1       5.690   4.034   8.755  1.00  0.00    -0.084 SA
BRANCH  17  21
HETATM   21  C7  UNL     1       2.478   5.571  10.235  1.00  0.00    -0.009 A 
HETATM   22  C8  UNL     1       2.254   5.378  11.565  1.00  0.00     0.014 A 
HETATM   23  C9  UNL     1       1.245   6.009  12.266  1.00  0.00     0.001 A 
HETATM   24  C10 UNL     1       0.414   6.879  11.610  1.00  0.00     0.000 A 
HETATM   25  C11 UNL     1       0.607   7.100  10.270  1.00  0.00     0.001 A 
HETATM   26  C12 UNL     1       1.622   6.457   9.595  1.00  0.00     0.014 A 
ENDBRANCH  17  21
ENDBRANCH   1  15
TORSDOF 7
ENDMDL
MODEL 4
REMARK VINA RESULT: -8.386135903      1.538      2.274
REMARK  7 active torsions:
REMARK  status: ('A' for Active; 'I' for Inactive)
REMARK    1  A    between atoms: N1_1  and  N2_4 
REMARK    2  A    between atoms: N2_4  and  C1_5 
REMARK    3  A    between atoms: C1_5  and  C2_7 
REMARK       I    between atoms: C2_7  and  N3_9 
REMARK    4  A    between atoms: N3_9  and  C3_11 
REMARK    5  A    between atoms: C3_11  and  C4_12 
REMARK    6  A    between atoms: C3_11  and  C5_15 
REMARK    7  A    between atoms: C6_18  and  C7_19 
ROOT
HETATM    1  C3  UNL     1       4.439   2.850   4.472  1.00  0.00     0.243 C 
ENDROOT
BRANCH   1   2
HETATM    2  N3  UNL     1       5.361   3.508   3.563  1.00  0.00    -0.339 N 
HETATM    3  C2  UNL     1       6.375   2.820   2.864  1.00  0.00     0.250 C 
HETATM    4  O1  UNL     1       6.464   1.569   3.056  1.00  0.00    -0.271 OA
ATOM      5  H3  UNL     1       5.270   4.514   3.423  1.00  0.00     0.163 HD
BRANCH   3   6
HETATM    6  C1  UNL     1       7.273   3.553   1.959  1.00  0.00     0.262 C 
HETATM    7  S1  UNL     1       7.301   5.316   2.386  1.00  0.00    -0.062 SA
BRANCH   6   8
HETATM    8  N2  UNL     1       8.606   2.981   1.949  1.00  0.00    -0.122 NA
BRANCH   8   9
HETATM    9  N1  UNL     1       9.581   3.896   2.308  1.00  0.00    -0.347 N 
ATOM     10  H12 UNL     1       9.997   4.550   1.645  1.00  0.00     0.172 HD
ATOM     11  H11 UNL     1       9.829   3.838   3.296  1.00  0.00     0.172 HD
ENDBRANCH   8   9
ENDBRANCH   6   8
ENDBRANCH   3   6
ENDBRANCH   1   2
BRANCH   1  12
HETATM   12  C4  UNL     1       3.051   3.140   4.039  1.00  0.00     0.203 C 
HETATM   13  O2  UNL     1       2.847   3.822   3.028  1.00  0.00    -0.646 OA
HETATM   14  O3  UNL     1       1.986   2.642   4.776  1.00  0.00    -0.646 OA
ENDBRANCH   1  12
BRANCH   1  15
HETATM   15  C5  UNL     1       4.653   3.347   5.868  1.00  0.00     0.085 A 
HETATM   16  N4  UNL     1       3.797   3.876   6.719  1.00  0.00    -0.351 N 
HETATM   17  C6  UNL     1       4.201   4.244   7.895  1.00  0.00     0.049 A 
ATOM     18  H4  UNL     1       2.820   3.997   6.453  1.00  0.00     0.166 HD
HETATM   19  C13 UNL     1       5.526   4.059   8.197  1.00  0.00     0.082 A 
HETATM   20  S2  UNL     1       6.112   3.358   6.747  1.00  0.00    -0.084 SA
BRANCH  17  21
HETATM   21  C7  UNL     1       3.273   4.846   8.891  1.00  0.00    -0.009 A 
HETATM   22  C8  UNL     1       3.274   4.483  10.204  1.00  0.00     0.014 A 
HETATM   23  C9  UNL     1       2.422   5.028  11.144  1.00  0.00     0.001 A 
HETATM   24  C10 UNL     1       1.522   5.986  10.759  1.00  0.00     0.000 A 
HETATM   25  C11 UNL     1       1.490   6.379   9.445  1.00  0.00     0.001 A 
HETATM   26  C12 UNL     1       2.351   5.818   8.528  1.00  0.00     0.014 A 
ENDBRANCH  17  21
ENDBRANCH   1  15
TORSDOF 7
ENDMDL
MODEL 5
REMARK VINA RESULT: -8.378606918      1.523      2.021
REMARK  7 active torsions:
REMARK  status: ('A' for Active; 'I' for Inactive)
REMARK    1  A    between atoms: N1_1  and  N2_4 
REMARK    2  A    between atoms: N2_4  and  C1_5 
REMARK    3  A    between atoms: C1_5  and  C2_7 
REMARK       I    between atoms: C2_7  and  N3_9 
REMARK    4  A    between atoms: N3_9  and  C3_11 
REMARK    5  A    between atoms: C3_11  and  C4_12 
REMARK    6  A    between atoms: C3_11  and  C5_15 
REMARK    7  A    between atoms: C6_18  and  C7_19 
ROOT
HETATM    1  C3  UNL     1       4.416   2.852   4.494  1.00  0.00     0.243 C 
ENDROOT
BRANCH   1   2
HETATM    2  N3  UNL     1       5.337   3.515   3.588  1.00  0.00    -0.339 N 
HETATM    3  C2  UNL     1       6.362   2.835   2.898  1.00  0.00     0.250 C 
HETATM    4  O1  UNL     1       6.462   1.585   3.095  1.00  0.00    -0.271 OA
ATOM      5  H3  UNL     1       5.238   4.520   3.443  1.00  0.00     0.163 HD
BRANCH   3   6
HETATM    6  C1  UNL     1       7.259   3.572   1.995  1.00  0.00     0.262 C 
HETATM    7  S1  UNL     1       7.274   5.336   2.420  1.00  0.00    -0.062 SA
BRANCH   6   8
HETATM    8  N2  UNL     1       8.596   3.009   1.990  1.00  0.00    -0.122 NA
BRANCH   8   9
HETATM    9  N1  UNL     1       9.562   3.926   2.366  1.00  0.00    -0.347 N 
ATOM     10  H12 UNL     1       9.868   4.040   3.332  1.00  0.00     0.172 HD
ATOM     11  H11 UNL     1       9.924   4.462   1.577  1.00  0.00     0.172 HD
ENDBRANCH   8   9
ENDBRANCH   6   8
ENDBRANCH   3   6
ENDBRANCH   1   2
BRANCH   1  12
HETATM   12  C4  UNL     1       3.028   3.138   4.059  1.00  0.00     0.203 C 
HETATM   13  O2  UNL     1       2.823   3.849   3.069  1.00  0.00    -0.646 OA
HETATM   14  O3  UNL     1       1.965   2.603   4.771  1.00  0.00    -0.646 OA
ENDBRANCH   1  12
BRANCH   1  15
HETATM   15  C5  UNL     1       4.627   3.348   5.891  1.00  0.00     0.085 A 
HETATM   16  N4  UNL     1       3.772   3.889   6.735  1.00  0.00    -0.351 N 
HETATM   17  C6  UNL     1       4.171   4.253   7.914  1.00  0.00     0.049 A 
ATOM     18  H4  UNL     1       2.797   4.022   6.462  1.00  0.00     0.166 HD
HETATM   19  C13 UNL     1       5.491   4.051   8.226  1.00  0.00     0.082 A 
HETATM   20  S2  UNL     1       6.079   3.341   6.782  1.00  0.00    -0.084 SA
BRANCH  17  21
HETATM   21  C7  UNL     1       3.243   4.868   8.902  1.00  0.00    -0.009 A 
HETATM   22  C8  UNL     1       2.342   5.830   8.558  1.00  0.00     0.014 A 
HETATM   23  C9  UNL     1       1.472   6.414   9.458  1.00  0.00     0.001 A 
HETATM   24  C10 UNL     1       1.499   6.020  10.770  1.00  0.00     0.000 A 
HETATM   25  C11 UNL     1       2.392   5.053  11.156  1.00  0.00     0.001 A 
HETATM   26  C12 UNL     1       3.249   4.487  10.237  1.00  0.00     0.014 A 
ENDBRANCH  17  21
ENDBRANCH   1  15
TORSDOF 7
ENDMDL
