MODEL 1
REMARK VINA RESULT: -6.707073980      0.000      0.000
REMARK  7 active torsions:
REMARK  status: ('A' for Active; 'I' for Inactive)
REMARK    1  A    between atoms: O1_2  and  C2_3 
REMARK    2  A    between atoms: C2_3  and  C3_4 
REMARK    3  A    between atoms: C3_4  and  S1_5 
REMARK    4  A    between atoms: S1_5  and  C4_6 
REMARK    5  A    between atoms: C5_9  and  N2_10 
REMARK    6  A    between atoms: C7_16  and  C8_17 
REMARK    7  A    between atoms: C9_22  and  N6_23 
ROOT
HETATM    1  C4  UNL     1      -6.213 -11.181   9.248  1.00  0.00     0.100 A 
HETATM    2  N1  UNL     1      -6.772 -10.001   9.651  1.00  0.00    -0.185 N 
ATOM      3  H1  UNL     1      -7.516  -9.595   9.084  1.00  0.00     0.185 HD
HETATM    4  C5  UNL     1      -6.383  -9.354  10.761  1.00  0.00     0.677 A 
HETATM    5  N3  UNL     1      -5.401  -9.912  11.485  1.00  0.00    -0.190 N 
ATOM      6  H3  UNL     1      -5.087  -9.439  12.333  1.00  0.00     0.184 HD
HETATM    7  C6  UNL     1      -4.813 -11.068  11.138  1.00  0.00     0.081 A 
HETATM    8  C7  UNL     1      -3.793 -11.583  11.949  1.00  0.00     0.077 A 
HETATM    9  C9  UNL     1      -3.247 -12.738  11.554  1.00  0.00     0.119 A 
HETATM   10  N8  UNL     1      -3.653 -13.383  10.424  1.00  0.00    -0.345 N 
ATOM     11  H8  UNL     1      -3.191 -14.260  10.181  1.00  0.00     0.167 HD
HETATM   12  C14 UNL     1      -4.634 -12.930   9.603  1.00  0.00     0.022 A 
HETATM   13  C15 UNL     1      -5.037 -13.654   8.397  1.00  0.00     0.069 C 
HETATM   14  C16 UNL     1      -5.203 -11.748   9.997  1.00  0.00     0.049 A 
ENDROOT
BRANCH   9  15
HETATM   15  N6  UNL     1      -2.233 -13.400  12.356  1.00  0.00    -0.363 N 
HETATM   16  C10 UNL     1      -2.672 -14.316  13.341  1.00  0.00     0.152 C 
HETATM   17  C11 UNL     1      -1.668 -14.670  14.365  1.00  0.00     0.252 C 
HETATM   18  N7  UNL     1      -0.369 -14.103  14.227  1.00  0.00    -0.072 N 
HETATM   19  C12 UNL     1       0.050 -13.982  12.853  1.00  0.00     0.252 C 
ATOM     20  H72 UNL     1      -0.313 -13.204  14.705  1.00  0.00     0.277 HD
ATOM     21  H71 UNL     1       0.316 -14.625  14.772  1.00  0.00     0.277 HD
HETATM   22  C13 UNL     1      -0.863 -13.117  12.058  1.00  0.00     0.152 C 
ENDBRANCH   9  15
BRANCH   8  23
HETATM   23  C8  UNL     1      -3.431 -10.771  13.108  1.00  0.00     0.126 C 
HETATM   24  N4  UNL     1      -3.859 -10.946  14.233  1.00  0.00    -0.387 N 
ATOM     25  H42 UNL     1      -4.514 -11.721  14.335  1.00  0.00     0.157 HD
ATOM     26  H41 UNL     1      -3.607 -10.379  15.043  1.00  0.00     0.157 HD
HETATM   27  N5  UNL     1      -2.499  -9.668  12.963  1.00  0.00    -0.082 NA
ENDBRANCH   8  23
BRANCH   4  28
HETATM   28  N2  UNL     1      -6.951  -8.245  11.087  1.00  0.00    -0.234 N 
ATOM     29  H22 UNL     1      -6.954  -7.424  10.482  1.00  0.00     0.174 HD
ATOM     30  H21 UNL     1      -7.426  -8.164  11.986  1.00  0.00     0.174 HD
ENDBRANCH   4  28
BRANCH   1  31
HETATM   31  S1  UNL     1      -6.805 -11.953   7.808  1.00  0.00    -0.109 SA
BRANCH  31  32
HETATM   32  C3  UNL     1      -7.864 -10.833   6.877  1.00  0.00     0.107 C 
BRANCH  32  33
HETATM   33  C2  UNL     1      -9.303 -10.863   7.252  1.00  0.00     0.177 C 
BRANCH  33  34
HETATM   34  O1  UNL     1     -10.076 -10.396   6.185  1.00  0.00    -0.395 OA
HETATM   35  C1  UNL     1     -10.388 -11.481   5.367  1.00  0.00     0.201 C 
ENDBRANCH  33  34
ENDBRANCH  32  33
ENDBRANCH  31  32
ENDBRANCH   1  31
TORSDOF 7
ENDMDL
MODEL 2
REMARK VINA RESULT: -6.706935703      4.878      7.557
REMARK  7 active torsions:
REMARK  status: ('A' for Active; 'I' for Inactive)
REMARK    1  A    between atoms: O1_2  and  C2_3 
REMARK    2  A    between atoms: C2_3  and  C3_4 
REMARK    3  A    between atoms: C3_4  and  S1_5 
REMARK    4  A    between atoms: S1_5  and  C4_6 
REMARK    5  A    between atoms: C5_9  and  N2_10 
REMARK    6  A    between atoms: C7_16  and  C8_17 
REMARK    7  A    between atoms: C9_22  and  N6_23 
ROOT
HETATM    1  C4  UNL     1      -8.418 -16.909   8.893  1.00  0.00     0.100 A 
HETATM    2  N1  UNL     1      -7.345 -17.618   8.429  1.00  0.00    -0.185 N 
ATOM      3  H1  UNL     1      -7.449 -18.622   8.284  1.00  0.00     0.185 HD
HETATM    4  C5  UNL     1      -6.160 -17.048   8.157  1.00  0.00     0.677 A 
HETATM    5  N3  UNL     1      -6.053 -15.726   8.359  1.00  0.00    -0.190 N 
ATOM      6  H3  UNL     1      -5.162 -15.270   8.160  1.00  0.00     0.184 HD
HETATM    7  C6  UNL     1      -7.072 -14.979   8.814  1.00  0.00     0.081 A 
HETATM    8  C7  UNL     1      -6.877 -13.604   8.999  1.00  0.00     0.077 A 
HETATM    9  C9  UNL     1      -7.927 -12.911   9.452  1.00  0.00     0.119 A 
HETATM   10  N8  UNL     1      -9.124 -13.504   9.724  1.00  0.00    -0.345 N 
ATOM     11  H8  UNL     1      -9.883 -12.916  10.069  1.00  0.00     0.167 HD
HETATM   12  C14 UNL     1      -9.367 -14.830   9.564  1.00  0.00     0.022 A 
HETATM   13  C15 UNL     1     -10.668 -15.425   9.871  1.00  0.00     0.069 C 
HETATM   14  C16 UNL     1      -8.300 -15.550   9.098  1.00  0.00     0.049 A 
ENDROOT
BRANCH   9  15
HETATM   15  N6  UNL     1      -7.861 -11.469   9.611  1.00  0.00    -0.363 N 
HETATM   16  C10 UNL     1      -7.771 -10.684   8.438  1.00  0.00     0.152 C 
HETATM   17  C11 UNL     1      -7.332  -9.289   8.645  1.00  0.00     0.252 C 
HETATM   18  N7  UNL     1      -7.097  -8.872   9.986  1.00  0.00    -0.072 N 
HETATM   19  C12 UNL     1      -8.019  -9.459  10.927  1.00  0.00     0.252 C 
ATOM     20  H72 UNL     1      -6.132  -9.053  10.260  1.00  0.00     0.277 HD
ATOM     21  H71 UNL     1      -7.103  -7.855  10.058  1.00  0.00     0.277 HD
HETATM   22  C13 UNL     1      -7.943 -10.945  10.940  1.00  0.00     0.152 C 
ENDBRANCH   9  15
BRANCH   8  23
HETATM   23  C8  UNL     1      -5.535 -13.107   8.706  1.00  0.00     0.126 C 
HETATM   24  N4  UNL     1      -4.714 -12.797   9.549  1.00  0.00    -0.387 N 
ATOM     25  H42 UNL     1      -5.022 -12.903  10.516  1.00  0.00     0.157 HD
ATOM     26  H41 UNL     1      -3.777 -12.449   9.344  1.00  0.00     0.157 HD
HETATM   27  N5  UNL     1      -5.098 -12.954   7.330  1.00  0.00    -0.082 NA
ENDBRANCH   8  23
BRANCH   4  28
HETATM   28  N2  UNL     1      -5.188 -17.772   7.722  1.00  0.00    -0.234 N 
ATOM     29  H22 UNL     1      -5.080 -18.758   7.959  1.00  0.00     0.174 HD
ATOM     30  H21 UNL     1      -4.484 -17.359   7.110  1.00  0.00     0.174 HD
ENDBRANCH   4  28
BRANCH   1  31
HETATM   31  S1  UNL     1      -9.917 -17.736   9.191  1.00  0.00    -0.109 SA
BRANCH  31  32
HETATM   32  C3  UNL     1      -9.613 -19.428   9.727  1.00  0.00     0.107 C 
BRANCH  32  33
HETATM   33  C2  UNL     1     -10.190 -19.787  11.050  1.00  0.00     0.177 C 
BRANCH  33  34
HETATM   34  O1  UNL     1     -11.134 -18.827  11.427  1.00  0.00    -0.395 OA
HETATM   35  C1  UNL     1     -12.054 -19.436  12.279  1.00  0.00     0.201 C 
ENDBRANCH  33  34
ENDBRANCH  32  33
ENDBRANCH  31  32
ENDBRANCH   1  31
TORSDOF 7
ENDMDL
MODEL 3
REMARK VINA RESULT: -6.685050103      4.570      6.726
REMARK  7 active torsions:
REMARK  status: ('A' for Active; 'I' for Inactive)
REMARK    1  A    between atoms: O1_2  and  C2_3 
REMARK    2  A    between atoms: C2_3  and  C3_4 
REMARK    3  A    between atoms: C3_4  and  S1_5 
REMARK    4  A    between atoms: S1_5  and  C4_6 
REMARK    5  A    between atoms: C5_9  and  N2_10 
REMARK    6  A    between atoms: C7_16  and  C8_17 
REMARK    7  A    between atoms: C9_22  and  N6_23 
ROOT
HETATM    1  C4  UNL     1     -10.419 -14.935   7.881  1.00  0.00     0.100 A 
HETATM    2  N1  UNL     1     -10.939 -14.655   6.648  1.00  0.00    -0.185 N 
ATOM      3  H1  UNL     1     -11.669 -15.263   6.276  1.00  0.00     0.185 HD
HETATM    4  C5  UNL     1     -10.531 -13.613   5.906  1.00  0.00     0.677 A 
HETATM    5  N3  UNL     1      -9.569 -12.832   6.421  1.00  0.00    -0.190 N 
ATOM      6  H3  UNL     1      -9.241 -12.034   5.876  1.00  0.00     0.184 HD
HETATM    7  C6  UNL     1      -9.020 -13.058   7.625  1.00  0.00     0.081 A 
HETATM    8  C7  UNL     1      -8.019 -12.195   8.090  1.00  0.00     0.077 A 
HETATM    9  C9  UNL     1      -7.511 -12.469   9.296  1.00  0.00     0.119 A 
HETATM   10  N8  UNL     1      -7.937 -13.531  10.038  1.00  0.00    -0.345 N 
ATOM     11  H8  UNL     1      -7.505 -13.683  10.949  1.00  0.00     0.167 HD
HETATM   12  C14 UNL     1      -8.901 -14.398   9.637  1.00  0.00     0.022 A 
HETATM   13  C15 UNL     1      -9.326 -15.527  10.464  1.00  0.00     0.069 C 
HETATM   14  C16 UNL     1      -9.431 -14.127   8.403  1.00  0.00     0.049 A 
ENDROOT
BRANCH   9  15
HETATM   15  N6  UNL     1      -6.521 -11.600   9.908  1.00  0.00    -0.363 N 
HETATM   16  C10 UNL     1      -5.180 -12.048   9.928  1.00  0.00     0.152 C 
HETATM   17  C11 UNL     1      -4.291 -11.337  10.869  1.00  0.00     0.252 C 
HETATM   18  N7  UNL     1      -4.856 -10.260  11.611  1.00  0.00    -0.072 N 
HETATM   19  C12 UNL     1      -5.819  -9.500  10.854  1.00  0.00     0.252 C 
ATOM     20  H72 UNL     1      -5.260 -10.593  12.485  1.00  0.00     0.277 HD
ATOM     21  H71 UNL     1      -4.126  -9.654  11.985  1.00  0.00     0.277 HD
HETATM   22  C13 UNL     1      -6.966 -10.333  10.401  1.00  0.00     0.152 C 
ENDBRANCH   9  15
BRANCH   8  23
HETATM   23  C8  UNL     1      -7.632 -11.122   7.178  1.00  0.00     0.126 C 
HETATM   24  N4  UNL     1      -6.526 -11.001   6.685  1.00  0.00    -0.387 N 
ATOM     25  H42 UNL     1      -5.850 -11.716   6.951  1.00  0.00     0.157 HD
ATOM     26  H41 UNL     1      -6.255 -10.251   6.048  1.00  0.00     0.157 HD
HETATM   27  N5  UNL     1      -8.594 -10.103   6.800  1.00  0.00    -0.082 NA
ENDBRANCH   8  23
BRANCH   4  28
HETATM   28  N2  UNL     1     -11.062 -13.403   4.752  1.00  0.00    -0.234 N 
ATOM     29  H22 UNL     1     -12.069 -13.334   4.608  1.00  0.00     0.174 HD
ATOM     30  H21 UNL     1     -10.464 -13.297   3.932  1.00  0.00     0.174 HD
ENDBRANCH   4  28
BRANCH   1  31
HETATM   31  S1  UNL     1     -11.035 -16.293   8.774  1.00  0.00    -0.109 SA
BRANCH  31  32
HETATM   32  C3  UNL     1     -12.637 -15.902   9.497  1.00  0.00     0.107 C 
BRANCH  32  33
HETATM   33  C2  UNL     1     -12.858 -16.429  10.870  1.00  0.00     0.177 C 
BRANCH  33  34
HETATM   34  O1  UNL     1     -14.170 -16.897  10.990  1.00  0.00    -0.395 OA
HETATM   35  C1  UNL     1     -14.989 -16.096  10.196  1.00  0.00     0.201 C 
ENDBRANCH  33  34
ENDBRANCH  32  33
ENDBRANCH  31  32
ENDBRANCH   1  31
TORSDOF 7
ENDMDL
MODEL 4
REMARK VINA RESULT: -6.651149245      4.698      7.324
REMARK  7 active torsions:
REMARK  status: ('A' for Active; 'I' for Inactive)
REMARK    1  A    between atoms: O1_2  and  C2_3 
REMARK    2  A    between atoms: C2_3  and  C3_4 
REMARK    3  A    between atoms: C3_4  and  S1_5 
REMARK    4  A    between atoms: S1_5  and  C4_6 
REMARK    5  A    between atoms: C5_9  and  N2_10 
REMARK    6  A    between atoms: C7_16  and  C8_17 
REMARK    7  A    between atoms: C9_22  and  N6_23 
ROOT
HETATM    1  C4  UNL     1     -10.371 -14.968   8.141  1.00  0.00     0.100 A 
HETATM    2  N1  UNL     1     -10.827 -14.957   6.853  1.00  0.00    -0.185 N 
ATOM      3  H1  UNL     1     -11.426 -15.721   6.540  1.00  0.00     0.185 HD
HETATM    4  C5  UNL     1     -10.520 -13.983   5.981  1.00  0.00     0.677 A 
HETATM    5  N3  UNL     1      -9.729 -12.992   6.421  1.00  0.00    -0.190 N 
ATOM      6  H3  UNL     1      -9.482 -12.240   5.778  1.00  0.00     0.184 HD
HETATM    7  C6  UNL     1      -9.251 -12.950   7.675  1.00  0.00     0.081 A 
HETATM    8  C7  UNL     1      -8.430 -11.880   8.055  1.00  0.00     0.077 A 
HETATM    9  C9  UNL     1      -7.986 -11.891   9.316  1.00  0.00     0.119 A 
HETATM   10  N8  UNL     1      -8.306 -12.888  10.189  1.00  0.00    -0.345 N 
ATOM     11  H8  UNL     1      -7.931 -12.835  11.136  1.00  0.00     0.167 HD
HETATM   12  C14 UNL     1      -9.095 -13.947   9.875  1.00  0.00     0.022 A 
HETATM   13  C15 UNL     1      -9.412 -14.997  10.843  1.00  0.00     0.069 C 
HETATM   14  C16 UNL     1      -9.559 -13.946   8.586  1.00  0.00     0.049 A 
ENDROOT
BRANCH   9  15
HETATM   15  N6  UNL     1      -7.188 -10.796   9.839  1.00  0.00    -0.363 N 
HETATM   16  C10 UNL     1      -7.875  -9.649  10.301  1.00  0.00     0.152 C 
HETATM   17  C11 UNL     1      -7.044  -8.439  10.465  1.00  0.00     0.252 C 
HETATM   18  N7  UNL     1      -5.651  -8.564  10.193  1.00  0.00    -0.072 N 
HETATM   19  C12 UNL     1      -5.112  -9.839  10.594  1.00  0.00     0.252 C 
ATOM     20  H72 UNL     1      -5.455  -8.379   9.210  1.00  0.00     0.277 HD
ATOM     21  H71 UNL     1      -5.127  -7.798  10.616  1.00  0.00     0.277 HD
HETATM   22  C13 UNL     1      -5.771 -10.977   9.896  1.00  0.00     0.152 C 
ENDBRANCH   9  15
BRANCH   8  23
HETATM   23  C8  UNL     1      -8.136 -10.903   7.010  1.00  0.00     0.126 C 
HETATM   24  N4  UNL     1      -7.022 -10.667   6.581  1.00  0.00    -0.387 N 
ATOM     25  H42 UNL     1      -6.268 -11.207   7.005  1.00  0.00     0.157 HD
ATOM     26  H41 UNL     1      -6.816  -9.984   5.851  1.00  0.00     0.157 HD
HETATM   27  N5  UNL     1      -9.209 -10.134   6.407  1.00  0.00    -0.082 NA
ENDBRANCH   8  23
BRANCH   4  28
HETATM   28  N2  UNL     1     -10.982 -14.030   4.780  1.00  0.00    -0.234 N 
ATOM     29  H22 UNL     1     -11.973 -14.158   4.571  1.00  0.00     0.174 HD
ATOM     30  H21 UNL     1     -10.346 -13.937   3.989  1.00  0.00     0.174 HD
ENDBRANCH   4  28
BRANCH   1  31
HETATM   31  S1  UNL     1     -10.847 -16.262   9.199  1.00  0.00    -0.109 SA
BRANCH  31  32
HETATM   32  C3  UNL     1      -9.955 -17.773   8.794  1.00  0.00     0.107 C 
BRANCH  32  33
HETATM   33  C2  UNL     1      -9.764 -18.719   9.927  1.00  0.00     0.177 C 
BRANCH  33  34
HETATM   34  O1  UNL     1     -10.874 -18.667  10.775  1.00  0.00    -0.395 OA
HETATM   35  C1  UNL     1     -10.904 -19.842  11.524  1.00  0.00     0.201 C 
ENDBRANCH  33  34
ENDBRANCH  32  33
ENDBRANCH  31  32
ENDBRANCH   1  31
TORSDOF 7
ENDMDL
MODEL 5
REMARK VINA RESULT: -6.641201013      3.138      6.650
REMARK  7 active torsions:
REMARK  status: ('A' for Active; 'I' for Inactive)
REMARK    1  A    between atoms: O1_2  and  C2_3 
REMARK    2  A    between atoms: C2_3  and  C3_4 
REMARK    3  A    between atoms: C3_4  and  S1_5 
REMARK    4  A    between atoms: S1_5  and  C4_6 
REMARK    5  A    between atoms: C5_9  and  N2_10 
REMARK    6  A    between atoms: C7_16  and  C8_17 
REMARK    7  A    between atoms: C9_22  and  N6_23 
ROOT
HETATM    1  C4  UNL     1      -2.853 -11.773  10.562  1.00  0.00     0.100 A 
HETATM    2  N1  UNL     1      -2.760 -11.185  11.792  1.00  0.00    -0.185 N 
ATOM      3  H1  UNL     1      -1.847 -11.146  12.247  1.00  0.00     0.185 HD
HETATM    4  C5  UNL     1      -3.818 -10.656  12.427  1.00  0.00     0.677 A 
HETATM    5  N3  UNL     1      -5.005 -10.724  11.805  1.00  0.00    -0.190 N 
ATOM      6  H3  UNL     1      -5.824 -10.329  12.268  1.00  0.00     0.184 HD
HETATM    7  C6  UNL     1      -5.157 -11.290  10.597  1.00  0.00     0.081 A 
HETATM    8  C7  UNL     1      -6.432 -11.321  10.017  1.00  0.00     0.077 A 
HETATM    9  C9  UNL     1      -6.523 -11.895   8.813  1.00  0.00     0.119 A 
HETATM   10  N8  UNL     1      -5.439 -12.428   8.180  1.00  0.00    -0.345 N 
ATOM     11  H8  UNL     1      -5.580 -12.853   7.264  1.00  0.00     0.167 HD
HETATM   12  C14 UNL     1      -4.183 -12.427   8.696  1.00  0.00     0.022 A 
HETATM   13  C15 UNL     1      -3.048 -13.013   7.983  1.00  0.00     0.069 C 
HETATM   14  C16 UNL     1      -4.077 -11.839   9.929  1.00  0.00     0.049 A 
ENDROOT
BRANCH   9  15
HETATM   15  N6  UNL     1      -7.780 -11.918   8.086  1.00  0.00    -0.363 N 
HETATM   16  C10 UNL     1      -8.620 -13.042   8.266  1.00  0.00     0.152 C 
HETATM   17  C11 UNL     1      -9.678 -13.208   7.248  1.00  0.00     0.252 C 
HETATM   18  N7  UNL     1      -9.772 -12.209   6.238  1.00  0.00    -0.072 N 
HETATM   19  C12 UNL     1      -9.477 -10.885   6.726  1.00  0.00     0.252 C 
ATOM     20  H72 UNL     1      -9.183 -12.442   5.439  1.00  0.00     0.277 HD
ATOM     21  H71 UNL     1     -10.685 -12.234   5.784  1.00  0.00     0.277 HD
HETATM   22  C13 UNL     1      -8.099 -10.781   7.279  1.00  0.00     0.152 C 
ENDBRANCH   9  15
BRANCH   8  23
HETATM   23  C8  UNL     1      -7.510 -10.749  10.819  1.00  0.00     0.126 C 
HETATM   24  N4  UNL     1      -8.303 -11.400  11.474  1.00  0.00    -0.387 N 
ATOM     25  H42 UNL     1      -8.175 -12.411  11.432  1.00  0.00     0.157 HD
ATOM     26  H41 UNL     1      -9.056 -11.001  12.034  1.00  0.00     0.157 HD
HETATM   27  N5  UNL     1      -7.692  -9.310  10.878  1.00  0.00    -0.082 NA
ENDBRANCH   8  23
BRANCH   4  28
HETATM   28  N2  UNL     1      -3.663 -10.115  13.586  1.00  0.00    -0.234 N 
ATOM     29  H22 UNL     1      -2.769  -9.748  13.912  1.00  0.00     0.174 HD
ATOM     30  H21 UNL     1      -4.458 -10.041  14.220  1.00  0.00     0.174 HD
ENDBRANCH   4  28
BRANCH   1  31
HETATM   31  S1  UNL     1      -1.419 -12.406   9.812  1.00  0.00    -0.109 SA
BRANCH  31  32
HETATM   32  C3  UNL     1      -0.264 -11.077   9.430  1.00  0.00     0.107 C 
BRANCH  32  33
HETATM   33  C2  UNL     1      -0.885  -9.746   9.196  1.00  0.00     0.177 C 
BRANCH  33  34
HETATM   34  O1  UNL     1      -1.575  -9.757   7.980  1.00  0.00    -0.395 OA
HETATM   35  C1  UNL     1      -0.648  -9.954   6.958  1.00  0.00     0.201 C 
ENDBRANCH  33  34
ENDBRANCH  32  33
ENDBRANCH  31  32
ENDBRANCH   1  31
TORSDOF 7
ENDMDL
