MODEL 1
REMARK VINA RESULT: -7.382476336      0.000      0.000
REMARK  10 active torsions:
REMARK  status: ('A' for Active; 'I' for Inactive)
REMARK    1  A    between atoms: O1_2  and  C2_3 
REMARK    2  A    between atoms: C4_5  and  O2_6 
REMARK    3  A    between atoms: C6_8  and  O3_9 
REMARK    4  A    between atoms: C9_12  and  C10_13 
REMARK    5  A    between atoms: C10_13  and  C11_14 
REMARK    6  A    between atoms: C11_14  and  N1_15 
REMARK    7  A    between atoms: N1_15  and  C12_17 
REMARK    8  A    between atoms: C15_26  and  N5_27 
REMARK    9  A    between atoms: C16_32  and  N7_33 
REMARK   10  A    between atoms: N7_33  and  O4_35 
ROOT
HETATM    1  C12 UNL     1      -7.411  -9.929   9.159  1.00  0.00     0.119 A 
HETATM    2  N2  UNL     1      -8.293  -9.189   9.853  1.00  0.00    -0.338 N 
ATOM      3  H2  UNL     1      -9.285  -9.189   9.613  1.00  0.00     0.168 HD
HETATM    4  C13 UNL     1      -7.825  -8.449  10.873  1.00  0.00     0.183 A 
HETATM    5  N3  UNL     1      -6.522  -8.420  11.222  1.00  0.00    -0.337 N 
ATOM      6  H3  UNL     1      -6.221  -7.839  12.005  1.00  0.00     0.168 HD
HETATM    7  C14 UNL     1      -5.623  -9.141  10.554  1.00  0.00     0.139 A 
HETATM    8  N4  UNL     1      -4.299  -9.160  10.850  1.00  0.00    -0.176 N 
ATOM      9  H4  UNL     1      -3.968  -8.591  11.629  1.00  0.00     0.186 HD
HETATM   10  C15 UNL     1      -3.412  -9.887  10.173  1.00  0.00     0.679 A 
HETATM   11  N6  UNL     1      -3.835 -10.652   9.134  1.00  0.00    -0.174 N 
ATOM     12  H6  UNL     1      -3.167 -11.215   8.607  1.00  0.00     0.186 HD
HETATM   13  C16 UNL     1      -5.133 -10.664   8.806  1.00  0.00     0.158 A 
HETATM   14  C17 UNL     1      -6.055  -9.910   9.508  1.00  0.00     0.099 A 
ENDROOT
BRANCH   1  15
HETATM   15  N1  UNL     1      -7.721 -10.667   8.179  1.00  0.00    -0.375 N 
ATOM     16  H1  UNL     1      -6.934 -11.043   7.650  1.00  0.00     0.161 HD
BRANCH  15  17
HETATM   17  C11 UNL     1      -9.009 -11.049   7.708  1.00  0.00     0.126 C 
BRANCH  17  18
HETATM   18  C10 UNL     1      -8.967 -12.319   6.866  1.00  0.00     0.061 C 
BRANCH  18  19
HETATM   19  C9  UNL     1      -8.860 -13.489   7.783  1.00  0.00    -0.020 A 
HETATM   20  C2  UNL     1      -7.728 -14.267   7.876  1.00  0.00     0.077 A 
HETATM   21  C3  UNL     1      -7.654 -15.359   8.746  1.00  0.00     0.076 A 
HETATM   22  C4  UNL     1      -8.755 -15.647   9.522  1.00  0.00     0.104 A 
HETATM   23  C6  UNL     1      -9.905 -14.889   9.455  1.00  0.00     0.102 A 
HETATM   24  C8  UNL     1      -9.942 -13.831   8.595  1.00  0.00     0.049 A 
BRANCH  20  25
HETATM   25  O1  UNL     1      -6.643 -13.957   7.087  1.00  0.00    -0.355 OA
HETATM   26  C1  UNL     1      -5.577 -14.872   6.878  1.00  0.00     0.210 C 
ENDBRANCH  20  25
BRANCH  22  27
HETATM   27  O2  UNL     1      -8.712 -16.721  10.393  1.00  0.00    -0.353 OA
HETATM   28  C5  UNL     1      -8.928 -18.056  10.050  1.00  0.00     0.210 C 
ENDBRANCH  22  27
BRANCH  23  29
HETATM   29  O3  UNL     1     -10.960 -15.230  10.254  1.00  0.00    -0.353 OA
HETATM   30  C7  UNL     1     -12.099 -15.932   9.864  1.00  0.00     0.210 C 
ENDBRANCH  23  29
ENDBRANCH  18  19
ENDBRANCH  17  18
ENDBRANCH  15  17
ENDBRANCH   1  15
BRANCH  13  31
HETATM   31  N7  UNL     1      -5.544 -11.378   7.832  1.00  0.00    -0.252 N 
ATOM     32  H7  UNL     1      -6.113 -12.193   8.061  1.00  0.00     0.196 HD
BRANCH  31  33
HETATM   33  O4  UNL     1      -5.290 -11.149   6.516  1.00  0.00    -0.288 OA
ATOM     34  H4  UNL     1      -5.849 -10.667   5.919  1.00  0.00     0.244 HD
ENDBRANCH  31  33
ENDBRANCH  13  31
BRANCH  10  35
HETATM   35  N5  UNL     1      -2.173  -9.844  10.524  1.00  0.00    -0.234 N 
ATOM     36  H52 UNL     1      -1.894  -9.658  11.488  1.00  0.00     0.174 HD
ATOM     37  H51 UNL     1      -1.454 -10.001   9.818  1.00  0.00     0.174 HD
ENDBRANCH  10  35
TORSDOF 10
ENDMDL
MODEL 2
REMARK VINA RESULT: -7.173884419      1.516      2.356
REMARK  10 active torsions:
REMARK  status: ('A' for Active; 'I' for Inactive)
REMARK    1  A    between atoms: O1_2  and  C2_3 
REMARK    2  A    between atoms: C4_5  and  O2_6 
REMARK    3  A    between atoms: C6_8  and  O3_9 
REMARK    4  A    between atoms: C9_12  and  C10_13 
REMARK    5  A    between atoms: C10_13  and  C11_14 
REMARK    6  A    between atoms: C11_14  and  N1_15 
REMARK    7  A    between atoms: N1_15  and  C12_17 
REMARK    8  A    between atoms: C15_26  and  N5_27 
REMARK    9  A    between atoms: C16_32  and  N7_33 
REMARK   10  A    between atoms: N7_33  and  O4_35 
ROOT
HETATM    1  C12 UNL     1      -6.763 -11.122   8.278  1.00  0.00     0.119 A 
HETATM    2  N2  UNL     1      -6.182 -11.053   7.068  1.00  0.00    -0.338 N 
ATOM      3  H2  UNL     1      -6.718 -11.222   6.217  1.00  0.00     0.168 HD
HETATM    4  C13 UNL     1      -4.872 -10.755   7.018  1.00  0.00     0.183 A 
HETATM    5  N3  UNL     1      -4.128 -10.526   8.121  1.00  0.00    -0.337 N 
ATOM      6  H3  UNL     1      -3.137 -10.305   8.024  1.00  0.00     0.168 HD
HETATM    7  C14 UNL     1      -4.675 -10.587   9.334  1.00  0.00     0.139 A 
HETATM    8  N4  UNL     1      -3.987 -10.368  10.483  1.00  0.00    -0.176 N 
ATOM      9  H4  UNL     1      -2.995 -10.143  10.419  1.00  0.00     0.186 HD
HETATM   10  C15 UNL     1      -4.547 -10.432  11.690  1.00  0.00     0.679 A 
HETATM   11  N6  UNL     1      -5.868 -10.729  11.794  1.00  0.00    -0.174 N 
ATOM     12  H6  UNL     1      -6.311 -10.781  12.711  1.00  0.00     0.186 HD
HETATM   13  C16 UNL     1      -6.586 -10.953  10.686  1.00  0.00     0.158 A 
HETATM   14  C17 UNL     1      -6.006 -10.887   9.432  1.00  0.00     0.099 A 
ENDROOT
BRANCH   1  15
HETATM   15  N1  UNL     1      -7.985 -11.392   8.464  1.00  0.00    -0.375 N 
ATOM     16  H1  UNL     1      -8.225 -11.706   9.404  1.00  0.00     0.161 HD
BRANCH  15  17
HETATM   17  C11 UNL     1      -9.074 -11.322   7.549  1.00  0.00     0.126 C 
BRANCH  17  18
HETATM   18  C10 UNL     1      -9.296 -12.635   6.807  1.00  0.00     0.061 C 
BRANCH  18  19
HETATM   19  C9  UNL     1      -9.109 -13.757   7.770  1.00  0.00    -0.020 A 
HETATM   20  C2  UNL     1      -7.934 -14.466   7.874  1.00  0.00     0.077 A 
HETATM   21  C3  UNL     1      -7.785 -15.515   8.787  1.00  0.00     0.076 A 
HETATM   22  C4  UNL     1      -8.856 -15.831   9.594  1.00  0.00     0.104 A 
HETATM   23  C6  UNL     1     -10.047 -15.141   9.516  1.00  0.00     0.102 A 
HETATM   24  C8  UNL     1     -10.157 -14.125   8.614  1.00  0.00     0.049 A 
BRANCH  20  25
HETATM   25  O1  UNL     1      -6.880 -14.129   7.054  1.00  0.00    -0.355 OA
HETATM   26  C1  UNL     1      -5.567 -14.624   7.273  1.00  0.00     0.210 C 
ENDBRANCH  20  25
BRANCH  22  27
HETATM   27  O2  UNL     1      -8.738 -16.863  10.507  1.00  0.00    -0.353 OA
HETATM   28  C5  UNL     1      -8.950 -18.215  10.238  1.00  0.00     0.210 C 
ENDBRANCH  22  27
BRANCH  23  29
HETATM   29  O3  UNL     1     -11.069 -15.507  10.347  1.00  0.00    -0.353 OA
HETATM   30  C7  UNL     1     -12.334 -15.946   9.959  1.00  0.00     0.210 C 
ENDBRANCH  23  29
ENDBRANCH  18  19
ENDBRANCH  17  18
ENDBRANCH  15  17
ENDBRANCH   1  15
BRANCH  13  31
HETATM   31  N7  UNL     1      -7.828 -11.234  10.769  1.00  0.00    -0.252 N 
ATOM     32  H7  UNL     1      -8.151 -12.063  10.271  1.00  0.00     0.196 HD
BRANCH  31  33
HETATM   33  O4  UNL     1      -8.758 -10.526  11.462  1.00  0.00    -0.288 OA
ATOM     34  H4  UNL     1      -9.001 -10.668  12.370  1.00  0.00     0.244 HD
ENDBRANCH  31  33
ENDBRANCH  13  31
BRANCH  10  35
HETATM   35  N5  UNL     1      -3.818 -10.209  12.729  1.00  0.00    -0.234 N 
ATOM     36  H52 UNL     1      -3.866 -10.804  13.556  1.00  0.00     0.174 HD
ATOM     37  H51 UNL     1      -3.178  -9.415  12.721  1.00  0.00     0.174 HD
ENDBRANCH  10  35
TORSDOF 10
ENDMDL
MODEL 3
REMARK VINA RESULT: -7.018102219      1.338      3.267
REMARK  10 active torsions:
REMARK  status: ('A' for Active; 'I' for Inactive)
REMARK    1  A    between atoms: O1_2  and  C2_3 
REMARK    2  A    between atoms: C4_5  and  O2_6 
REMARK    3  A    between atoms: C6_8  and  O3_9 
REMARK    4  A    between atoms: C9_12  and  C10_13 
REMARK    5  A    between atoms: C10_13  and  C11_14 
REMARK    6  A    between atoms: C11_14  and  N1_15 
REMARK    7  A    between atoms: N1_15  and  C12_17 
REMARK    8  A    between atoms: C15_26  and  N5_27 
REMARK    9  A    between atoms: C16_32  and  N7_33 
REMARK   10  A    between atoms: N7_33  and  O4_35 
ROOT
HETATM    1  C12 UNL     1      -5.251 -11.991   9.550  1.00  0.00     0.119 A 
HETATM    2  N2  UNL     1      -4.255 -12.399  10.355  1.00  0.00    -0.338 N 
ATOM      3  H2  UNL     1      -3.739 -13.258  10.161  1.00  0.00     0.168 HD
HETATM    4  C13 UNL     1      -3.962 -11.638  11.424  1.00  0.00     0.183 A 
HETATM    5  N3  UNL     1      -4.622 -10.498  11.716  1.00  0.00    -0.337 N 
ATOM      6  H3  UNL     1      -4.358  -9.959  12.542  1.00  0.00     0.168 HD
HETATM    7  C14 UNL     1      -5.613 -10.067  10.938  1.00  0.00     0.139 A 
HETATM    8  N4  UNL     1      -6.316  -8.930  11.171  1.00  0.00    -0.176 N 
ATOM      9  H4  UNL     1      -6.075  -8.370  11.988  1.00  0.00     0.186 HD
HETATM   10  C15 UNL     1      -7.306  -8.512  10.384  1.00  0.00     0.679 A 
HETATM   11  N6  UNL     1      -7.640  -9.245   9.290  1.00  0.00    -0.174 N 
ATOM     12  H6  UNL     1      -8.394  -8.937   8.677  1.00  0.00     0.186 HD
HETATM   13  C16 UNL     1      -6.972 -10.374   9.021  1.00  0.00     0.158 A 
HETATM   14  C17 UNL     1      -5.944 -10.810   9.838  1.00  0.00     0.099 A 
ENDROOT
BRANCH   1  15
HETATM   15  N1  UNL     1      -5.625 -12.614   8.513  1.00  0.00    -0.375 N 
ATOM     16  H1  UNL     1      -6.109 -12.049   7.815  1.00  0.00     0.161 HD
BRANCH  15  17
HETATM   17  C11 UNL     1      -5.467 -13.990   8.181  1.00  0.00     0.126 C 
BRANCH  17  18
HETATM   18  C10 UNL     1      -6.547 -14.484   7.225  1.00  0.00     0.061 C 
BRANCH  18  19
HETATM   19  C9  UNL     1      -7.788 -14.743   8.009  1.00  0.00    -0.020 A 
HETATM   20  C2  UNL     1      -8.951 -14.029   7.829  1.00  0.00     0.077 A 
HETATM   21  C3  UNL     1     -10.101 -14.293   8.579  1.00  0.00     0.076 A 
HETATM   22  C4  UNL     1     -10.048 -15.298   9.518  1.00  0.00     0.104 A 
HETATM   23  C6  UNL     1      -8.900 -16.034   9.725  1.00  0.00     0.102 A 
HETATM   24  C8  UNL     1      -7.797 -15.749   8.976  1.00  0.00     0.049 A 
BRANCH  20  25
HETATM   25  O1  UNL     1      -8.975 -13.028   6.884  1.00  0.00    -0.355 OA
HETATM   26  C1  UNL     1      -9.776 -13.115   5.714  1.00  0.00     0.210 C 
ENDBRANCH  20  25
BRANCH  22  27
HETATM   27  O2  UNL     1     -11.170 -15.584  10.275  1.00  0.00    -0.353 OA
HETATM   28  C5  UNL     1     -12.421 -15.940   9.771  1.00  0.00     0.210 C 
ENDBRANCH  22  27
BRANCH  23  29
HETATM   29  O3  UNL     1      -8.916 -17.019  10.673  1.00  0.00    -0.353 OA
HETATM   30  C7  UNL     1      -8.955 -18.392  10.439  1.00  0.00     0.210 C 
ENDBRANCH  23  29
ENDBRANCH  18  19
ENDBRANCH  17  18
ENDBRANCH  15  17
ENDBRANCH   1  15
BRANCH  13  31
HETATM   31  N7  UNL     1      -7.275 -11.073   7.998  1.00  0.00    -0.252 N 
ATOM     32  H7  UNL     1      -7.734 -11.969   8.166  1.00  0.00     0.196 HD
BRANCH  31  33
HETATM   33  O4  UNL     1      -7.043 -10.730   6.704  1.00  0.00    -0.288 OA
ATOM     34  H4  UNL     1      -6.191 -10.556   6.320  1.00  0.00     0.244 HD
ENDBRANCH  31  33
ENDBRANCH  13  31
BRANCH  10  35
HETATM   35  N5  UNL     1      -7.921  -7.419  10.681  1.00  0.00    -0.234 N 
ATOM     36  H52 UNL     1      -7.977  -7.079  11.642  1.00  0.00     0.174 HD
ATOM     37  H51 UNL     1      -8.363  -6.883   9.935  1.00  0.00     0.174 HD
ENDBRANCH  10  35
TORSDOF 10
ENDMDL
MODEL 4
REMARK VINA RESULT: -6.993087980      2.079      4.150
REMARK  10 active torsions:
REMARK  status: ('A' for Active; 'I' for Inactive)
REMARK    1  A    between atoms: O1_2  and  C2_3 
REMARK    2  A    between atoms: C4_5  and  O2_6 
REMARK    3  A    between atoms: C6_8  and  O3_9 
REMARK    4  A    between atoms: C9_12  and  C10_13 
REMARK    5  A    between atoms: C10_13  and  C11_14 
REMARK    6  A    between atoms: C11_14  and  N1_15 
REMARK    7  A    between atoms: N1_15  and  C12_17 
REMARK    8  A    between atoms: C15_26  and  N5_27 
REMARK    9  A    between atoms: C16_32  and  N7_33 
REMARK   10  A    between atoms: N7_33  and  O4_35 
ROOT
HETATM    1  C12 UNL     1      -7.170 -12.428   8.774  1.00  0.00     0.119 A 
HETATM    2  N2  UNL     1      -6.096 -13.233   8.858  1.00  0.00    -0.338 N 
ATOM      3  H2  UNL     1      -6.069 -14.127   8.369  1.00  0.00     0.168 HD
HETATM    4  C13 UNL     1      -5.061 -12.819   9.611  1.00  0.00     0.183 A 
HETATM    5  N3  UNL     1      -5.059 -11.645  10.275  1.00  0.00    -0.337 N 
ATOM      6  H3  UNL     1      -4.246 -11.381  10.832  1.00  0.00     0.168 HD
HETATM    7  C14 UNL     1      -6.108 -10.826  10.211  1.00  0.00     0.139 A 
HETATM    8  N4  UNL     1      -6.173  -9.631  10.851  1.00  0.00    -0.176 N 
ATOM      9  H4  UNL     1      -5.375  -9.339  11.415  1.00  0.00     0.186 HD
HETATM   10  C15 UNL     1      -7.229  -8.823  10.779  1.00  0.00     0.679 A 
HETATM   11  N6  UNL     1      -8.300  -9.195  10.031  1.00  0.00    -0.174 N 
ATOM     12  H6  UNL     1      -9.115  -8.585   9.965  1.00  0.00     0.186 HD
HETATM   13  C16 UNL     1      -8.279 -10.366   9.381  1.00  0.00     0.158 A 
HETATM   14  C17 UNL     1      -7.184 -11.206   9.456  1.00  0.00     0.099 A 
ENDROOT
BRANCH   1  15
HETATM   15  N1  UNL     1      -8.207 -12.699   8.101  1.00  0.00    -0.375 N 
ATOM     16  H1  UNL     1      -8.654 -11.902   7.649  1.00  0.00     0.161 HD
BRANCH  15  17
HETATM   17  C11 UNL     1      -8.840 -13.956   7.885  1.00  0.00     0.126 C 
BRANCH  17  18
HETATM   18  C10 UNL     1     -10.119 -14.111   8.701  1.00  0.00     0.061 C 
BRANCH  18  19
HETATM   19  C9  UNL     1     -10.189 -15.512   9.204  1.00  0.00    -0.020 A 
HETATM   20  C2  UNL     1     -11.362 -16.102   9.618  1.00  0.00     0.077 A 
HETATM   21  C3  UNL     1     -11.401 -17.419  10.085  1.00  0.00     0.076 A 
HETATM   22  C4  UNL     1     -10.220 -18.129  10.125  1.00  0.00     0.104 A 
HETATM   23  C6  UNL     1      -9.027 -17.570   9.718  1.00  0.00     0.102 A 
HETATM   24  C8  UNL     1      -9.027 -16.282   9.268  1.00  0.00     0.049 A 
BRANCH  20  25
HETATM   25  O1  UNL     1     -12.527 -15.369   9.568  1.00  0.00    -0.355 OA
HETATM   26  C1  UNL     1     -13.786 -15.931   9.905  1.00  0.00     0.210 C 
ENDBRANCH  20  25
BRANCH  22  27
HETATM   27  O2  UNL     1     -10.226 -19.435  10.581  1.00  0.00    -0.353 OA
HETATM   28  C5  UNL     1     -11.035 -19.936  11.601  1.00  0.00     0.210 C 
ENDBRANCH  22  27
BRANCH  23  29
HETATM   29  O3  UNL     1      -7.893 -18.330   9.783  1.00  0.00    -0.353 OA
HETATM   30  C7  UNL     1      -7.149 -18.801   8.702  1.00  0.00     0.210 C 
ENDBRANCH  23  29
ENDBRANCH  18  19
ENDBRANCH  17  18
ENDBRANCH  15  17
ENDBRANCH   1  15
BRANCH  13  31
HETATM   31  N7  UNL     1      -9.279 -10.728   8.677  1.00  0.00    -0.252 N 
ATOM     32  H7  UNL     1      -9.861 -11.478   9.048  1.00  0.00     0.196 HD
BRANCH  31  33
HETATM   33  O4  UNL     1      -9.636 -10.203   7.475  1.00  0.00    -0.288 OA
ATOM     34  H4  UNL     1      -9.275 -10.448   6.632  1.00  0.00     0.244 HD
ENDBRANCH  31  33
ENDBRANCH  13  31
BRANCH  10  35
HETATM   35  N5  UNL     1      -7.204  -7.706  11.420  1.00  0.00    -0.234 N 
ATOM     36  H52 UNL     1      -6.710  -7.606  12.308  1.00  0.00     0.174 HD
ATOM     37  H51 UNL     1      -7.694  -6.901  11.029  1.00  0.00     0.174 HD
ENDBRANCH  10  35
TORSDOF 10
ENDMDL
MODEL 5
REMARK VINA RESULT: -6.784107163      1.772      3.083
REMARK  10 active torsions:
REMARK  status: ('A' for Active; 'I' for Inactive)
REMARK    1  A    between atoms: O1_2  and  C2_3 
REMARK    2  A    between atoms: C4_5  and  O2_6 
REMARK    3  A    between atoms: C6_8  and  O3_9 
REMARK    4  A    between atoms: C9_12  and  C10_13 
REMARK    5  A    between atoms: C10_13  and  C11_14 
REMARK    6  A    between atoms: C11_14  and  N1_15 
REMARK    7  A    between atoms: N1_15  and  C12_17 
REMARK    8  A    between atoms: C15_26  and  N5_27 
REMARK    9  A    between atoms: C16_32  and  N7_33 
REMARK   10  A    between atoms: N7_33  and  O4_35 
ROOT
HETATM    1  C12 UNL     1      -6.437 -11.399   7.645  1.00  0.00     0.119 A 
HETATM    2  N2  UNL     1      -5.187 -11.642   7.213  1.00  0.00    -0.338 N 
ATOM      3  H2  UNL     1      -5.000 -12.368   6.522  1.00  0.00     0.168 HD
HETATM    4  C13 UNL     1      -4.192 -10.895   7.725  1.00  0.00     0.183 A 
HETATM    5  N3  UNL     1      -4.397  -9.927   8.642  1.00  0.00    -0.337 N 
ATOM      6  H3  UNL     1      -3.605  -9.391   8.996  1.00  0.00     0.168 HD
HETATM    7  C14 UNL     1      -5.624  -9.663   9.089  1.00  0.00     0.139 A 
HETATM    8  N4  UNL     1      -5.902  -8.704  10.008  1.00  0.00    -0.176 N 
ATOM      9  H4  UNL     1      -5.131  -8.151  10.380  1.00  0.00     0.186 HD
HETATM   10  C15 UNL     1      -7.134  -8.452  10.447  1.00  0.00     0.679 A 
HETATM   11  N6  UNL     1      -8.173  -9.178   9.961  1.00  0.00    -0.174 N 
ATOM     12  H6  UNL     1      -9.123  -8.995  10.286  1.00  0.00     0.186 HD
HETATM   13  C16 UNL     1      -7.946 -10.134   9.051  1.00  0.00     0.158 A 
HETATM   14  C17 UNL     1      -6.667 -10.398   8.596  1.00  0.00     0.099 A 
ENDROOT
BRANCH   1  15
HETATM   15  N1  UNL     1      -7.459 -12.029   7.245  1.00  0.00    -0.375 N 
ATOM     16  H1  UNL     1      -8.153 -11.466   6.752  1.00  0.00     0.161 HD
BRANCH  15  17
HETATM   17  C11 UNL     1      -7.782 -13.409   7.384  1.00  0.00     0.126 C 
BRANCH  17  18
HETATM   18  C10 UNL     1      -7.311 -13.984   8.715  1.00  0.00     0.061 C 
BRANCH  18  19
HETATM   19  C9  UNL     1      -8.107 -15.211   9.005  1.00  0.00    -0.020 A 
HETATM   20  C2  UNL     1      -7.616 -16.484   8.820  1.00  0.00     0.077 A 
HETATM   21  C3  UNL     1      -8.384 -17.618   9.101  1.00  0.00     0.076 A 
HETATM   22  C4  UNL     1      -9.665 -17.434   9.575  1.00  0.00     0.104 A 
HETATM   23  C6  UNL     1     -10.188 -16.174   9.772  1.00  0.00     0.102 A 
HETATM   24  C8  UNL     1      -9.411 -15.090   9.488  1.00  0.00     0.049 A 
BRANCH  20  25
HETATM   25  O1  UNL     1      -6.333 -16.638   8.344  1.00  0.00    -0.355 OA
HETATM   26  C1  UNL     1      -5.818 -17.905   7.964  1.00  0.00     0.210 C 
ENDBRANCH  20  25
BRANCH  22  27
HETATM   27  O2  UNL     1     -10.449 -18.537   9.862  1.00  0.00    -0.353 OA
HETATM   28  C5  UNL     1     -10.347 -19.331  11.004  1.00  0.00     0.210 C 
ENDBRANCH  22  27
BRANCH  23  29
HETATM   29  O3  UNL     1     -11.466 -16.063  10.245  1.00  0.00    -0.353 OA
HETATM   30  C7  UNL     1     -12.608 -15.804   9.490  1.00  0.00     0.210 C 
ENDBRANCH  23  29
ENDBRANCH  18  19
ENDBRANCH  17  18
ENDBRANCH  15  17
ENDBRANCH   1  15
BRANCH  13  31
HETATM   31  N7  UNL     1      -8.913 -10.824   8.587  1.00  0.00    -0.252 N 
ATOM     32  H7  UNL     1      -9.047 -11.757   8.978  1.00  0.00     0.196 HD
BRANCH  31  33
HETATM   33  O4  UNL     1      -9.780 -10.427   7.620  1.00  0.00    -0.288 OA
ATOM     34  H4  UNL     1     -10.232 -10.998   7.010  1.00  0.00     0.244 HD
ENDBRANCH  31  33
ENDBRANCH  13  31
BRANCH  10  35
HETATM   35  N5  UNL     1      -7.306  -7.521  11.321  1.00  0.00    -0.234 N 
ATOM     36  H52 UNL     1      -6.886  -7.573  12.250  1.00  0.00     0.174 HD
ATOM     37  H51 UNL     1      -7.879  -6.715  11.077  1.00  0.00     0.174 HD
ENDBRANCH  10  35
TORSDOF 10
ENDMDL
