MODEL 1
REMARK VINA RESULT: -7.809443566      0.000      0.000
REMARK  6 active torsions:
REMARK  status: ('A' for Active; 'I' for Inactive)
REMARK    1  A    between atoms: O1_2  and  N1_3 
REMARK    2  A    between atoms: C2_5  and  C3_6 
REMARK    3  A    between atoms: C2_5  and  C15_32 
REMARK    4  A    between atoms: C4_9  and  C5_10 
REMARK    5  A    between atoms: N3_12  and  N4_14 
REMARK       I    between atoms: N4_14  and  C7_16 
REMARK    6  A    between atoms: C8_21  and  N7_22 
ROOT
HETATM    1  C3  UNL     1      -8.720 -16.598   9.515  1.00  0.00     0.128 A 
HETATM    2  N2  UNL     1      -7.544 -16.336   8.918  1.00  0.00    -0.345 N 
ATOM      3  H2  UNL     1      -6.897 -17.110   8.765  1.00  0.00     0.166 HD
HETATM    4  C4  UNL     1      -7.169 -15.083   8.503  1.00  0.00     0.101 A 
HETATM    5  C8  UNL     1      -8.043 -14.054   8.713  1.00  0.00     0.135 A 
HETATM    6  N8  UNL     1      -9.241 -14.351   9.327  1.00  0.00    -0.306 N 
ATOM      7  H8  UNL     1      -9.897 -13.587   9.487  1.00  0.00     0.170 HD
HETATM    8  C14 UNL     1      -9.596 -15.574   9.726  1.00  0.00     0.276 A 
HETATM    9  O2  UNL     1     -10.735 -15.734  10.285  1.00  0.00    -0.266 OA
ENDROOT
BRANCH   4  10
HETATM   10  C5  UNL     1      -5.882 -14.906   7.862  1.00  0.00     0.052 C 
HETATM   11  C6  UNL     1      -4.619 -14.851   8.686  1.00  0.00     0.072 C 
HETATM   12  N3  UNL     1      -5.755 -14.792   6.619  1.00  0.00    -0.301 N 
ATOM     13  H3  UNL     1      -6.593 -14.825   6.039  1.00  0.00     0.186 HD
BRANCH  12  14
HETATM   14  N4  UNL     1      -4.539 -14.623   6.003  1.00  0.00    -0.274 N 
HETATM   15  C7  UNL     1      -4.206 -15.378   4.856  1.00  0.00     0.200 C 
HETATM   16  N5  UNL     1      -5.108 -15.498   3.925  1.00  0.00    -0.372 N 
HETATM   17  N6  UNL     1      -2.934 -15.973   4.748  1.00  0.00    -0.062 NA
ATOM     18  H52 UNL     1      -6.030 -15.066   4.003  1.00  0.00     0.158 HD
ATOM     19  H51 UNL     1      -4.868 -16.043   3.097  1.00  0.00     0.158 HD
ATOM     20  H4  UNL     1      -3.872 -13.948   6.376  1.00  0.00     0.189 HD
ENDBRANCH  12  14
ENDBRANCH   4  10
BRANCH   5  21
HETATM   21  N7  UNL     1      -7.805 -12.707   8.353  1.00  0.00    -0.365 N 
HETATM   22  C9  UNL     1      -8.172 -12.171   7.072  1.00  0.00     0.124 C 
HETATM   23  C10 UNL     1      -9.405 -11.327   7.254  1.00  0.00     0.020 C 
HETATM   24  C11 UNL     1      -9.348 -10.644   8.589  1.00  0.00     0.003 C 
HETATM   25  C12 UNL     1      -7.960 -10.409   9.115  1.00  0.00     0.020 C 
HETATM   26  C13 UNL     1      -7.225 -11.759   9.285  1.00  0.00     0.124 C 
ENDBRANCH   5  21
BRANCH   1  27
HETATM   27  C2  UNL     1      -9.038 -17.981   9.935  1.00  0.00     0.086 C 
HETATM   28  N1  UNL     1     -10.287 -18.232  10.178  1.00  0.00    -0.267 N 
ATOM     29  H1  UNL     1     -10.946 -17.462  10.061  1.00  0.00     0.194 HD
BRANCH  28  30
HETATM   30  O1  UNL     1     -10.789 -19.406  10.568  1.00  0.00    -0.285 OA
HETATM   31  C1  UNL     1     -11.355 -19.694  11.833  1.00  0.00     0.237 C 
ENDBRANCH  28  30
BRANCH  27  32
HETATM   32  C15 UNL     1      -8.036 -18.999  10.084  1.00  0.00     0.165 C 
HETATM   33  C16 UNL     1      -8.055 -20.202   9.169  1.00  0.00     0.159 C 
HETATM   34  N9  UNL     1      -6.615 -20.232   9.573  1.00  0.00    -0.146 NA
HETATM   35  N10 UNL     1      -6.723 -18.804   9.464  1.00  0.00    -0.136 NA
ENDBRANCH  27  32
ENDBRANCH   1  27
TORSDOF 6
ENDMDL
MODEL 2
REMARK VINA RESULT: -7.513614087      4.336      6.494
REMARK  6 active torsions:
REMARK  status: ('A' for Active; 'I' for Inactive)
REMARK    1  A    between atoms: O1_2  and  N1_3 
REMARK    2  A    between atoms: C2_5  and  C3_6 
REMARK    3  A    between atoms: C2_5  and  C15_32 
REMARK    4  A    between atoms: C4_9  and  C5_10 
REMARK    5  A    between atoms: N3_12  and  N4_14 
REMARK       I    between atoms: N4_14  and  C7_16 
REMARK    6  A    between atoms: C8_21  and  N7_22 
ROOT
HETATM    1  C3  UNL     1      -7.273 -11.246   9.714  1.00  0.00     0.128 A 
HETATM    2  N2  UNL     1      -6.139 -11.937   9.499  1.00  0.00    -0.345 N 
ATOM      3  H2  UNL     1      -6.118 -12.601   8.725  1.00  0.00     0.166 HD
HETATM    4  C4  UNL     1      -5.010 -11.795  10.264  1.00  0.00     0.101 A 
HETATM    5  C8  UNL     1      -5.049 -10.902  11.298  1.00  0.00     0.135 A 
HETATM    6  N8  UNL     1      -6.223 -10.208  11.496  1.00  0.00    -0.306 N 
ATOM      7  H8  UNL     1      -6.259  -9.540  12.266  1.00  0.00     0.170 HD
HETATM    8  C14 UNL     1      -7.316 -10.354  10.744  1.00  0.00     0.276 A 
HETATM    9  O2  UNL     1      -8.352  -9.656  11.019  1.00  0.00    -0.266 OA
ENDROOT
BRANCH   4  10
HETATM   10  C5  UNL     1      -3.835 -12.580   9.945  1.00  0.00     0.052 C 
HETATM   11  C6  UNL     1      -2.759 -12.016   9.050  1.00  0.00     0.072 C 
HETATM   12  N3  UNL     1      -3.657 -13.742  10.385  1.00  0.00    -0.301 N 
ATOM     13  H3  UNL     1      -4.371 -14.147  10.991  1.00  0.00     0.186 HD
BRANCH  12  14
HETATM   14  N4  UNL     1      -2.547 -14.493  10.088  1.00  0.00    -0.274 N 
HETATM   15  C7  UNL     1      -2.611 -15.904  10.107  1.00  0.00     0.200 C 
HETATM   16  N5  UNL     1      -3.637 -16.474   9.542  1.00  0.00    -0.372 N 
HETATM   17  N6  UNL     1      -1.586 -16.649  10.724  1.00  0.00    -0.062 NA
ATOM     18  H52 UNL     1      -4.379 -15.935   9.095  1.00  0.00     0.158 HD
ATOM     19  H51 UNL     1      -3.683 -17.493   9.557  1.00  0.00     0.158 HD
ATOM     20  H4  UNL     1      -1.670 -14.029   9.851  1.00  0.00     0.189 HD
ENDBRANCH  12  14
ENDBRANCH   4  10
BRANCH   5  21
HETATM   21  N7  UNL     1      -3.976 -10.644  12.183  1.00  0.00    -0.365 N 
HETATM   22  C9  UNL     1      -3.898 -11.224  13.495  1.00  0.00     0.124 C 
HETATM   23  C10 UNL     1      -2.876 -12.329  13.458  1.00  0.00     0.020 C 
HETATM   24  C11 UNL     1      -1.769 -11.951  12.518  1.00  0.00     0.003 C 
HETATM   25  C12 UNL     1      -1.562 -10.471  12.354  1.00  0.00     0.020 C 
HETATM   26  C13 UNL     1      -2.848  -9.818  11.795  1.00  0.00     0.124 C 
ENDBRANCH   5  21
BRANCH   1  27
HETATM   27  C2  UNL     1      -8.446 -11.470   8.840  1.00  0.00     0.086 C 
HETATM   28  N1  UNL     1      -8.814 -10.464   8.109  1.00  0.00    -0.267 N 
ATOM     29  H1  UNL     1      -8.270  -9.606   8.194  1.00  0.00     0.194 HD
BRANCH  28  30
HETATM   30  O1  UNL     1      -9.840 -10.449   7.255  1.00  0.00    -0.285 OA
HETATM   31  C1  UNL     1      -9.784 -10.754   5.874  1.00  0.00     0.237 C 
ENDBRANCH  28  30
BRANCH  27  32
HETATM   32  C15 UNL     1      -9.158 -12.716   8.796  1.00  0.00     0.165 C 
HETATM   33  C16 UNL     1      -8.788 -13.749   7.756  1.00  0.00     0.159 C 
HETATM   34  N9  UNL     1      -9.434 -14.645   8.765  1.00  0.00    -0.146 NA
HETATM   35  N10 UNL     1      -8.768 -13.793   9.710  1.00  0.00    -0.136 NA
ENDBRANCH  27  32
ENDBRANCH   1  27
TORSDOF 6
ENDMDL
MODEL 3
REMARK VINA RESULT: -7.505609171      4.081      6.570
REMARK  6 active torsions:
REMARK  status: ('A' for Active; 'I' for Inactive)
REMARK    1  A    between atoms: O1_2  and  N1_3 
REMARK    2  A    between atoms: C2_5  and  C3_6 
REMARK    3  A    between atoms: C2_5  and  C15_32 
REMARK    4  A    between atoms: C4_9  and  C5_10 
REMARK    5  A    between atoms: N3_12  and  N4_14 
REMARK       I    between atoms: N4_14  and  C7_16 
REMARK    6  A    between atoms: C8_21  and  N7_22 
ROOT
HETATM    1  C3  UNL     1      -5.606 -10.826  10.267  1.00  0.00     0.128 A 
HETATM    2  N2  UNL     1      -5.578 -11.946   9.523  1.00  0.00    -0.345 N 
ATOM      3  H2  UNL     1      -4.699 -12.460   9.458  1.00  0.00     0.166 HD
HETATM    4  C4  UNL     1      -6.667 -12.434   8.847  1.00  0.00     0.101 A 
HETATM    5  C8  UNL     1      -7.839 -11.737   8.940  1.00  0.00     0.135 A 
HETATM    6  N8  UNL     1      -7.840 -10.593   9.709  1.00  0.00    -0.306 N 
ATOM      7  H8  UNL     1      -8.711 -10.068   9.783  1.00  0.00     0.170 HD
HETATM    8  C14 UNL     1      -6.774 -10.128  10.363  1.00  0.00     0.276 A 
HETATM    9  O2  UNL     1      -6.890  -9.055  11.049  1.00  0.00    -0.266 OA
ENDROOT
BRANCH   4  10
HETATM   10  C5  UNL     1      -6.535 -13.654   8.078  1.00  0.00     0.052 C 
HETATM   11  C6  UNL     1      -6.804 -14.993   8.719  1.00  0.00     0.072 C 
HETATM   12  N3  UNL     1      -6.198 -13.660   6.869  1.00  0.00    -0.301 N 
ATOM     13  H3  UNL     1      -6.010 -12.767   6.412  1.00  0.00     0.186 HD
BRANCH  12  14
HETATM   14  N4  UNL     1      -6.071 -14.812   6.133  1.00  0.00    -0.274 N 
HETATM   15  C7  UNL     1      -4.829 -15.160   5.555  1.00  0.00     0.200 C 
HETATM   16  N5  UNL     1      -3.762 -15.042   6.293  1.00  0.00    -0.372 N 
HETATM   17  N6  UNL     1      -4.773 -15.616   4.224  1.00  0.00    -0.062 NA
ATOM     18  H52 UNL     1      -3.803 -14.711   7.257  1.00  0.00     0.158 HD
ATOM     19  H51 UNL     1      -2.866 -15.292   5.876  1.00  0.00     0.158 HD
ATOM     20  H4  UNL     1      -6.879 -15.421   6.002  1.00  0.00     0.189 HD
ENDBRANCH  12  14
ENDBRANCH   4  10
BRANCH   5  21
HETATM   21  N7  UNL     1      -9.047 -12.099   8.300  1.00  0.00    -0.365 N 
HETATM   22  C9  UNL     1      -9.679 -11.271   7.310  1.00  0.00     0.124 C 
HETATM   23  C10 UNL     1      -9.424 -11.881   5.958  1.00  0.00     0.020 C 
HETATM   24  C11 UNL     1      -9.415 -13.377   6.081  1.00  0.00     0.003 C 
HETATM   25  C12 UNL     1     -10.234 -13.918   7.219  1.00  0.00     0.020 C 
HETATM   26  C13 UNL     1      -9.699 -13.368   8.562  1.00  0.00     0.124 C 
ENDBRANCH   5  21
BRANCH   1  27
HETATM   27  C2  UNL     1      -4.378 -10.372  10.957  1.00  0.00     0.086 C 
HETATM   28  N1  UNL     1      -4.409 -10.397  12.253  1.00  0.00    -0.267 N 
ATOM     29  H1  UNL     1      -5.270 -10.726  12.690  1.00  0.00     0.194 HD
BRANCH  28  30
HETATM   30  O1  UNL     1      -3.417 -10.032  13.068  1.00  0.00    -0.285 OA
HETATM   31  C1  UNL     1      -2.617 -10.898  13.852  1.00  0.00     0.237 C 
ENDBRANCH  28  30
BRANCH  27  32
HETATM   32  C15 UNL     1      -3.214  -9.914  10.253  1.00  0.00     0.165 C 
HETATM   33  C16 UNL     1      -2.105 -10.890   9.934  1.00  0.00     0.159 C 
HETATM   34  N9  UNL     1      -1.828  -9.862   8.883  1.00  0.00    -0.146 NA
HETATM   35  N10 UNL     1      -3.260  -9.804   8.793  1.00  0.00    -0.136 NA
ENDBRANCH  27  32
ENDBRANCH   1  27
TORSDOF 6
ENDMDL
MODEL 4
REMARK VINA RESULT: -7.474489474      3.760      6.830
REMARK  6 active torsions:
REMARK  status: ('A' for Active; 'I' for Inactive)
REMARK    1  A    between atoms: O1_2  and  N1_3 
REMARK    2  A    between atoms: C2_5  and  C3_6 
REMARK    3  A    between atoms: C2_5  and  C15_32 
REMARK    4  A    between atoms: C4_9  and  C5_10 
REMARK    5  A    between atoms: N3_12  and  N4_14 
REMARK       I    between atoms: N4_14  and  C7_16 
REMARK    6  A    between atoms: C8_21  and  N7_22 
ROOT
HETATM    1  C3  UNL     1      -5.675 -10.998  10.331  1.00  0.00     0.128 A 
HETATM    2  N2  UNL     1      -5.708 -12.204   9.737  1.00  0.00    -0.345 N 
ATOM      3  H2  UNL     1      -4.880 -12.797   9.802  1.00  0.00     0.166 HD
HETATM    4  C4  UNL     1      -6.795 -12.680   9.050  1.00  0.00     0.101 A 
HETATM    5  C8  UNL     1      -7.898 -11.878   8.969  1.00  0.00     0.135 A 
HETATM    6  N8  UNL     1      -7.837 -10.647   9.586  1.00  0.00    -0.306 N 
ATOM      7  H8  UNL     1      -8.658 -10.043   9.529  1.00  0.00     0.170 HD
HETATM    8  C14 UNL     1      -6.774 -10.194  10.253  1.00  0.00     0.276 A 
HETATM    9  O2  UNL     1      -6.829  -9.034  10.788  1.00  0.00    -0.266 OA
ENDROOT
BRANCH   4  10
HETATM   10  C5  UNL     1      -6.733 -13.998   8.452  1.00  0.00     0.052 C 
HETATM   11  C6  UNL     1      -6.236 -14.173   7.039  1.00  0.00     0.072 C 
HETATM   12  N3  UNL     1      -7.082 -15.036   9.065  1.00  0.00    -0.301 N 
ATOM     13  H3  UNL     1      -7.423 -14.945  10.022  1.00  0.00     0.186 HD
BRANCH  12  14
HETATM   14  N4  UNL     1      -7.027 -16.289   8.506  1.00  0.00    -0.274 N 
HETATM   15  C7  UNL     1      -7.951 -17.287   8.890  1.00  0.00     0.200 C 
HETATM   16  N5  UNL     1      -9.206 -16.950   8.982  1.00  0.00    -0.372 N 
HETATM   17  N6  UNL     1      -7.505 -18.595   9.161  1.00  0.00    -0.062 NA
ATOM     18  H52 UNL     1      -9.529 -16.002   8.786  1.00  0.00     0.158 HD
ATOM     19  H51 UNL     1      -9.873 -17.670   9.260  1.00  0.00     0.158 HD
ATOM     20  H4  UNL     1      -6.314 -16.502   7.809  1.00  0.00     0.189 HD
ENDBRANCH  12  14
ENDBRANCH   4  10
BRANCH   5  21
HETATM   21  N7  UNL     1      -9.094 -12.215   8.293  1.00  0.00    -0.365 N 
HETATM   22  C9  UNL     1      -9.669 -11.383   7.272  1.00  0.00     0.124 C 
HETATM   23  C10 UNL     1      -9.386 -12.017   5.936  1.00  0.00     0.020 C 
HETATM   24  C11 UNL     1      -9.422 -13.510   6.078  1.00  0.00     0.003 C 
HETATM   25  C12 UNL     1     -10.294 -14.015   7.193  1.00  0.00     0.020 C 
HETATM   26  C13 UNL     1      -9.789 -13.463   8.547  1.00  0.00     0.124 C 
ENDBRANCH   5  21
BRANCH   1  27
HETATM   27  C2  UNL     1      -4.454 -10.565  11.046  1.00  0.00     0.086 C 
HETATM   28  N1  UNL     1      -4.479 -10.677  12.339  1.00  0.00    -0.267 N 
ATOM     29  H1  UNL     1      -5.331 -11.052  12.755  1.00  0.00     0.194 HD
BRANCH  28  30
HETATM   30  O1  UNL     1      -3.492 -10.346  13.173  1.00  0.00    -0.285 OA
HETATM   31  C1  UNL     1      -2.939 -11.170  14.183  1.00  0.00     0.237 C 
ENDBRANCH  28  30
BRANCH  27  32
HETATM   32  C15 UNL     1      -3.302 -10.037  10.372  1.00  0.00     0.165 C 
HETATM   33  C16 UNL     1      -2.179 -10.968   9.977  1.00  0.00     0.159 C 
HETATM   34  N9  UNL     1      -1.926  -9.862   9.002  1.00  0.00    -0.146 NA
HETATM   35  N10 UNL     1      -3.359  -9.822   8.924  1.00  0.00    -0.136 NA
ENDBRANCH  27  32
ENDBRANCH   1  27
TORSDOF 6
ENDMDL
MODEL 5
REMARK VINA RESULT: -7.460395432      2.294      3.233
REMARK  6 active torsions:
REMARK  status: ('A' for Active; 'I' for Inactive)
REMARK    1  A    between atoms: O1_2  and  N1_3 
REMARK    2  A    between atoms: C2_5  and  C3_6 
REMARK    3  A    between atoms: C2_5  and  C15_32 
REMARK    4  A    between atoms: C4_9  and  C5_10 
REMARK    5  A    between atoms: N3_12  and  N4_14 
REMARK       I    between atoms: N4_14  and  C7_16 
REMARK    6  A    between atoms: C8_21  and  N7_22 
ROOT
HETATM    1  C3  UNL     1      -9.274 -16.256   9.241  1.00  0.00     0.128 A 
HETATM    2  N2  UNL     1      -8.139 -15.536   9.252  1.00  0.00    -0.345 N 
ATOM      3  H2  UNL     1      -7.290 -15.978   9.606  1.00  0.00     0.166 HD
HETATM    4  C4  UNL     1      -8.061 -14.238   8.814  1.00  0.00     0.101 A 
HETATM    5  C8  UNL     1      -9.204 -13.656   8.343  1.00  0.00     0.135 A 
HETATM    6  N8  UNL     1     -10.353 -14.417   8.342  1.00  0.00    -0.306 N 
ATOM      7  H8  UNL     1     -11.210 -13.988   7.992  1.00  0.00     0.170 HD
HETATM    8  C14 UNL     1     -10.417 -15.679   8.770  1.00  0.00     0.276 A 
HETATM    9  O2  UNL     1     -11.538 -16.292   8.723  1.00  0.00    -0.266 OA
ENDROOT
BRANCH   4  10
HETATM   10  C5  UNL     1      -6.788 -13.550   8.861  1.00  0.00     0.052 C 
HETATM   11  C6  UNL     1      -5.846 -13.605   7.684  1.00  0.00     0.072 C 
HETATM   12  N3  UNL     1      -6.411 -12.889   9.859  1.00  0.00    -0.301 N 
ATOM     13  H3  UNL     1      -7.030 -12.837  10.669  1.00  0.00     0.186 HD
BRANCH  12  14
HETATM   14  N4  UNL     1      -5.206 -12.234   9.912  1.00  0.00    -0.274 N 
HETATM   15  C7  UNL     1      -5.113 -10.949  10.493  1.00  0.00     0.200 C 
HETATM   16  N5  UNL     1      -5.722 -10.751  11.628  1.00  0.00    -0.372 N 
HETATM   17  N6  UNL     1      -4.382  -9.934   9.847  1.00  0.00    -0.062 NA
ATOM     18  H52 UNL     1      -6.251 -11.486  12.096  1.00  0.00     0.158 HD
ATOM     19  H51 UNL     1      -5.655  -9.823  12.047  1.00  0.00     0.158 HD
ATOM     20  H4  UNL     1      -4.371 -12.678   9.529  1.00  0.00     0.189 HD
ENDBRANCH  12  14
ENDBRANCH   4  10
BRANCH   5  21
HETATM   21  N7  UNL     1      -9.295 -12.328   7.863  1.00  0.00    -0.365 N 
HETATM   22  C9  UNL     1      -9.667 -11.225   8.705  1.00  0.00     0.124 C 
HETATM   23  C10 UNL     1      -8.423 -10.438   9.021  1.00  0.00     0.020 C 
HETATM   24  C11 UNL     1      -7.504 -10.463   7.835  1.00  0.00     0.003 C 
HETATM   25  C12 UNL     1      -8.192 -10.643   6.511  1.00  0.00     0.020 C 
HETATM   26  C13 UNL     1      -8.959 -11.986   6.494  1.00  0.00     0.124 C 
ENDBRANCH   5  21
BRANCH   1  27
HETATM   27  C2  UNL     1      -9.264 -17.650   9.740  1.00  0.00     0.086 C 
HETATM   28  N1  UNL     1     -10.389 -18.098  10.205  1.00  0.00    -0.267 N 
ATOM     29  H1  UNL     1     -11.184 -17.460  10.189  1.00  0.00     0.194 HD
BRANCH  28  30
HETATM   30  O1  UNL     1     -10.600 -19.318  10.703  1.00  0.00    -0.285 OA
HETATM   31  C1  UNL     1     -11.396 -19.635  11.830  1.00  0.00     0.237 C 
ENDBRANCH  28  30
BRANCH  27  32
HETATM   32  C15 UNL     1      -8.087 -18.471   9.731  1.00  0.00     0.165 C 
HETATM   33  C16 UNL     1      -8.068 -19.738   8.907  1.00  0.00     0.159 C 
HETATM   34  N9  UNL     1      -6.596 -19.494   9.003  1.00  0.00    -0.146 NA
HETATM   35  N10 UNL     1      -6.977 -18.118   8.842  1.00  0.00    -0.136 NA
ENDBRANCH  27  32
ENDBRANCH   1  27
TORSDOF 6
ENDMDL
