MODEL 1
REMARK VINA RESULT: -7.877969189      0.000      0.000
REMARK  7 active torsions:
REMARK  status: ('A' for Active; 'I' for Inactive)
REMARK    1  A    between atoms: C7_8  and  C8_9 
REMARK    2  A    between atoms: C8_9  and  S1_10 
REMARK    3  A    between atoms: S1_10  and  C9_11 
REMARK    4  A    between atoms: C10_14  and  C11_15 
REMARK    5  A    between atoms: C12_18  and  N3_19 
REMARK    6  A    between atoms: N3_19  and  N4_21 
REMARK    7  A    between atoms: N4_21  and  C13_23 
ROOT
HETATM    1  C9  UNL     1      -9.371 -13.694   7.148  1.00  0.00     0.146 A 
HETATM    2  N1  UNL     1     -10.079 -14.290   8.102  1.00  0.00    -0.330 N 
ATOM      3  H1  UNL     1     -11.070 -14.112   8.266  1.00  0.00     0.168 HD
HETATM    4  C10 UNL     1      -9.346 -15.157   8.831  1.00  0.00     0.145 A 
HETATM    5  C12 UNL     1      -8.083 -15.110   8.304  1.00  0.00     0.154 A 
HETATM    6  N7  UNL     1      -8.107 -14.229   7.294  1.00  0.00    -0.320 N 
ATOM      7  H7  UNL     1      -7.304 -13.988   6.714  1.00  0.00     0.169 HD
ENDROOT
BRANCH   1   8
HETATM    8  S1  UNL     1      -9.806 -12.454   5.956  1.00  0.00    -0.089 SA
BRANCH   8   9
HETATM    9  C8  UNL     1      -9.246 -10.855   6.384  1.00  0.00     0.116 C 
BRANCH   9  10
HETATM   10  C7  UNL     1      -8.368 -10.722   7.597  1.00  0.00    -0.066 C 
HETATM   11  C6  UNL     1      -8.976 -10.398   8.760  1.00  0.00     0.053 C 
HETATM   12  C5  UNL     1      -8.198 -10.252   9.965  1.00  0.00     0.150 C 
HETATM   13  C4  UNL     1      -6.822  -9.689   9.779  1.00  0.00     0.092 C 
HETATM   14  O1  UNL     1      -8.674 -10.582  11.068  1.00  0.00    -0.293 OA
HETATM   15  C2  UNL     1      -6.154 -10.619   8.792  1.00  0.00    -0.037 C 
HETATM   16  C1  UNL     1      -5.931 -11.927   9.560  1.00  0.00     0.015 C 
HETATM   17  C3  UNL     1      -4.787 -10.063   8.462  1.00  0.00     0.015 C 
HETATM   18  C16 UNL     1      -6.938 -10.915   7.564  1.00  0.00     0.044 C 
ENDBRANCH   9  10
ENDBRANCH   8   9
ENDBRANCH   1   8
BRANCH   4  19
HETATM   19  C11 UNL     1      -9.776 -15.990   9.946  1.00  0.00     0.285 C 
HETATM   20  N2  UNL     1     -11.146 -16.024  10.354  1.00  0.00    -0.056 NA
HETATM   21  O2  UNL     1      -8.958 -16.685  10.565  1.00  0.00    -0.269 OA
ENDBRANCH   4  19
BRANCH   5  22
HETATM   22  N3  UNL     1      -6.924 -15.836   8.736  1.00  0.00    -0.281 N 
ATOM     23  H3  UNL     1      -6.326 -15.413   9.447  1.00  0.00     0.188 HD
BRANCH  22  24
HETATM   24  N4  UNL     1      -6.577 -17.070   8.244  1.00  0.00    -0.270 N 
ATOM     25  H4  UNL     1      -5.773 -17.139   7.622  1.00  0.00     0.190 HD
BRANCH  24  26
HETATM   26  C13 UNL     1      -7.293 -18.256   8.566  1.00  0.00     0.190 C 
HETATM   27  N5  UNL     1      -6.898 -19.057   9.517  1.00  0.00    -0.360 N 
HETATM   28  C14 UNL     1      -7.770 -20.177   9.654  1.00  0.00     0.142 C 
ATOM     29  H5  UNL     1      -6.069 -18.902  10.091  1.00  0.00     0.162 HD
HETATM   30  C15 UNL     1      -8.989 -19.788   8.851  1.00  0.00     0.142 C 
HETATM   31  N6  UNL     1      -8.472 -18.773   7.968  1.00  0.00    -0.360 N 
ATOM     32  H6  UNL     1      -8.877 -18.481   7.078  1.00  0.00     0.162 HD
ENDBRANCH  24  26
ENDBRANCH  22  24
ENDBRANCH   5  22
TORSDOF 7
ENDMDL
MODEL 2
REMARK VINA RESULT: -7.853318182      2.142      3.752
REMARK  7 active torsions:
REMARK  status: ('A' for Active; 'I' for Inactive)
REMARK    1  A    between atoms: C7_8  and  C8_9 
REMARK    2  A    between atoms: C8_9  and  S1_10 
REMARK    3  A    between atoms: S1_10  and  C9_11 
REMARK    4  A    between atoms: C10_14  and  C11_15 
REMARK    5  A    between atoms: C12_18  and  N3_19 
REMARK    6  A    between atoms: N3_19  and  N4_21 
REMARK    7  A    between atoms: N4_21  and  C13_23 
ROOT
HETATM    1  C9  UNL     1      -9.915 -13.746   6.865  1.00  0.00     0.146 A 
HETATM    2  N1  UNL     1      -8.859 -14.210   7.525  1.00  0.00    -0.330 N 
ATOM      3  H1  UNL     1      -7.913 -13.852   7.401  1.00  0.00     0.168 HD
HETATM    4  C10 UNL     1      -9.174 -15.207   8.378  1.00  0.00     0.145 A 
HETATM    5  C12 UNL     1     -10.525 -15.391   8.252  1.00  0.00     0.154 A 
HETATM    6  N7  UNL     1     -10.962 -14.509   7.342  1.00  0.00    -0.320 N 
ATOM      7  H7  UNL     1     -11.932 -14.415   7.043  1.00  0.00     0.169 HD
ENDROOT
BRANCH   1   8
HETATM    8  S1  UNL     1     -10.068 -12.501   5.610  1.00  0.00    -0.089 SA
BRANCH   8   9
HETATM    9  C8  UNL     1      -9.532 -10.922   6.131  1.00  0.00     0.116 C 
BRANCH   9  10
HETATM   10  C7  UNL     1      -8.614 -10.850   7.319  1.00  0.00    -0.066 C 
HETATM   11  C6  UNL     1      -9.168 -10.502   8.501  1.00  0.00     0.053 C 
HETATM   12  C5  UNL     1      -8.350 -10.412   9.684  1.00  0.00     0.150 C 
HETATM   13  C4  UNL     1      -6.949  -9.929   9.462  1.00  0.00     0.092 C 
HETATM   14  O1  UNL     1      -8.812 -10.723  10.798  1.00  0.00    -0.293 OA
HETATM   15  C2  UNL     1      -6.364 -10.888   8.451  1.00  0.00    -0.037 C 
HETATM   16  C1  UNL     1      -6.197 -12.214   9.203  1.00  0.00     0.015 C 
HETATM   17  C3  UNL     1      -4.976 -10.411   8.085  1.00  0.00     0.015 C 
HETATM   18  C16 UNL     1      -7.199 -11.128   7.244  1.00  0.00     0.044 C 
ENDBRANCH   9  10
ENDBRANCH   8   9
ENDBRANCH   1   8
BRANCH   4  19
HETATM   19  C11 UNL     1      -8.291 -15.950   9.266  1.00  0.00     0.285 C 
HETATM   20  N2  UNL     1      -8.809 -16.662  10.393  1.00  0.00    -0.056 NA
HETATM   21  O2  UNL     1      -7.070 -15.979   9.060  1.00  0.00    -0.269 OA
ENDBRANCH   4  19
BRANCH   5  22
HETATM   22  N3  UNL     1     -11.349 -16.346   8.933  1.00  0.00    -0.281 N 
ATOM     23  H3  UNL     1     -11.583 -17.214   8.450  1.00  0.00     0.188 HD
BRANCH  22  24
HETATM   24  N4  UNL     1     -11.838 -16.156  10.202  1.00  0.00    -0.270 N 
ATOM     25  H4  UNL     1     -11.185 -15.909  10.945  1.00  0.00     0.190 HD
BRANCH  24  26
HETATM   26  C13 UNL     1     -13.217 -16.288  10.524  1.00  0.00     0.190 C 
HETATM   27  N5  UNL     1     -14.151 -15.811   9.748  1.00  0.00    -0.360 N 
HETATM   28  C14 UNL     1     -15.450 -16.062  10.276  1.00  0.00     0.142 C 
ATOM     29  H5  UNL     1     -13.973 -15.319   8.872  1.00  0.00     0.162 HD
HETATM   30  C15 UNL     1     -15.209 -17.084  11.362  1.00  0.00     0.142 C 
HETATM   31  N6  UNL     1     -13.810 -16.903  11.658  1.00  0.00    -0.360 N 
ATOM     32  H6  UNL     1     -13.335 -17.167  12.521  1.00  0.00     0.162 HD
ENDBRANCH  24  26
ENDBRANCH  22  24
ENDBRANCH   5  22
TORSDOF 7
ENDMDL
MODEL 3
REMARK VINA RESULT: -7.729594608      2.387      4.149
REMARK  7 active torsions:
REMARK  status: ('A' for Active; 'I' for Inactive)
REMARK    1  A    between atoms: C7_8  and  C8_9 
REMARK    2  A    between atoms: C8_9  and  S1_10 
REMARK    3  A    between atoms: S1_10  and  C9_11 
REMARK    4  A    between atoms: C10_14  and  C11_15 
REMARK    5  A    between atoms: C12_18  and  N3_19 
REMARK    6  A    between atoms: N3_19  and  N4_21 
REMARK    7  A    between atoms: N4_21  and  C13_23 
ROOT
HETATM    1  C9  UNL     1      -9.907 -13.758   6.879  1.00  0.00     0.146 A 
HETATM    2  N1  UNL     1      -8.857 -14.236   7.538  1.00  0.00    -0.330 N 
ATOM      3  H1  UNL     1      -7.906 -13.889   7.414  1.00  0.00     0.168 HD
HETATM    4  C10 UNL     1      -9.184 -15.231   8.389  1.00  0.00     0.145 A 
HETATM    5  C12 UNL     1     -10.537 -15.397   8.263  1.00  0.00     0.154 A 
HETATM    6  N7  UNL     1     -10.964 -14.509   7.355  1.00  0.00    -0.320 N 
ATOM      7  H7  UNL     1     -11.933 -14.403   7.057  1.00  0.00     0.169 HD
ENDROOT
BRANCH   1   8
HETATM    8  S1  UNL     1     -10.046 -12.510   5.626  1.00  0.00    -0.089 SA
BRANCH   8   9
HETATM    9  C8  UNL     1      -9.625 -10.911   6.190  1.00  0.00     0.116 C 
BRANCH   9  10
HETATM   10  C7  UNL     1      -8.581 -10.800   7.267  1.00  0.00    -0.066 C 
HETATM   11  C6  UNL     1      -7.303 -11.056   6.909  1.00  0.00     0.053 C 
HETATM   12  C5  UNL     1      -6.248 -10.971   7.888  1.00  0.00     0.150 C 
HETATM   13  C4  UNL     1      -6.624 -11.389   9.277  1.00  0.00     0.092 C 
HETATM   14  O1  UNL     1      -5.114 -10.574   7.562  1.00  0.00    -0.293 OA
HETATM   15  C2  UNL     1      -7.796 -10.507   9.642  1.00  0.00    -0.037 C 
HETATM   16  C1  UNL     1      -7.206  -9.103   9.811  1.00  0.00     0.015 C 
HETATM   17  C3  UNL     1      -8.313 -10.934  10.998  1.00  0.00     0.015 C 
HETATM   18  C16 UNL     1      -8.887 -10.447   8.633  1.00  0.00     0.044 C 
ENDBRANCH   9  10
ENDBRANCH   8   9
ENDBRANCH   1   8
BRANCH   4  19
HETATM   19  C11 UNL     1      -8.309 -15.986   9.275  1.00  0.00     0.285 C 
HETATM   20  N2  UNL     1      -8.824 -16.628  10.445  1.00  0.00    -0.056 NA
HETATM   21  O2  UNL     1      -7.099 -16.085   9.032  1.00  0.00    -0.269 OA
ENDBRANCH   4  19
BRANCH   5  22
HETATM   22  N3  UNL     1     -11.372 -16.344   8.944  1.00  0.00    -0.281 N 
ATOM     23  H3  UNL     1     -11.611 -17.211   8.463  1.00  0.00     0.188 HD
BRANCH  22  24
HETATM   24  N4  UNL     1     -11.866 -16.145  10.209  1.00  0.00    -0.270 N 
ATOM     25  H4  UNL     1     -11.218 -15.882  10.951  1.00  0.00     0.190 HD
BRANCH  24  26
HETATM   26  C13 UNL     1     -13.245 -16.290  10.530  1.00  0.00     0.190 C 
HETATM   27  N5  UNL     1     -14.181 -15.815   9.756  1.00  0.00    -0.360 N 
HETATM   28  C14 UNL     1     -15.479 -16.079  10.282  1.00  0.00     0.142 C 
ATOM     29  H5  UNL     1     -14.007 -15.316   8.883  1.00  0.00     0.162 HD
HETATM   30  C15 UNL     1     -15.231 -17.106  11.362  1.00  0.00     0.142 C 
HETATM   31  N6  UNL     1     -13.833 -16.916  11.659  1.00  0.00    -0.360 N 
ATOM     32  H6  UNL     1     -13.356 -17.182  12.521  1.00  0.00     0.162 HD
ENDBRANCH  24  26
ENDBRANCH  22  24
ENDBRANCH   5  22
TORSDOF 7
ENDMDL
MODEL 4
REMARK VINA RESULT: -7.727970599      2.467      4.354
REMARK  7 active torsions:
REMARK  status: ('A' for Active; 'I' for Inactive)
REMARK    1  A    between atoms: C7_8  and  C8_9 
REMARK    2  A    between atoms: C8_9  and  S1_10 
REMARK    3  A    between atoms: S1_10  and  C9_11 
REMARK    4  A    between atoms: C10_14  and  C11_15 
REMARK    5  A    between atoms: C12_18  and  N3_19 
REMARK    6  A    between atoms: N3_19  and  N4_21 
REMARK    7  A    between atoms: N4_21  and  C13_23 
ROOT
HETATM    1  C9  UNL     1      -7.609 -15.287   8.762  1.00  0.00     0.146 A 
HETATM    2  N1  UNL     1      -7.917 -16.571   8.917  1.00  0.00    -0.330 N 
ATOM      3  H1  UNL     1      -7.280 -17.335   8.696  1.00  0.00     0.168 HD
HETATM    4  C10 UNL     1      -9.164 -16.753   9.398  1.00  0.00     0.145 A 
HETATM    5  C12 UNL     1      -9.687 -15.497   9.561  1.00  0.00     0.154 A 
HETATM    6  N7  UNL     1      -8.746 -14.623   9.177  1.00  0.00    -0.320 N 
ATOM      7  H7  UNL     1      -8.855 -13.610   9.189  1.00  0.00     0.169 HD
ENDROOT
BRANCH   1   8
HETATM    8  S1  UNL     1      -6.155 -14.491   8.129  1.00  0.00    -0.089 SA
BRANCH   8   9
HETATM    9  C8  UNL     1      -5.522 -13.257   9.191  1.00  0.00     0.116 C 
BRANCH   9  10
HETATM   10  C7  UNL     1      -6.233 -11.932   9.228  1.00  0.00    -0.066 C 
HETATM   11  C6  UNL     1      -7.114 -11.683   8.234  1.00  0.00     0.053 C 
HETATM   12  C5  UNL     1      -7.832 -10.433   8.203  1.00  0.00     0.150 C 
HETATM   13  C4  UNL     1      -7.074  -9.243   8.706  1.00  0.00     0.092 C 
HETATM   14  O1  UNL     1      -9.002 -10.387   7.778  1.00  0.00    -0.293 OA
HETATM   15  C2  UNL     1      -6.660  -9.613  10.111  1.00  0.00    -0.037 C 
HETATM   16  C1  UNL     1      -7.958  -9.612  10.927  1.00  0.00     0.015 C 
HETATM   17  C3  UNL     1      -5.793  -8.504  10.663  1.00  0.00     0.015 C 
HETATM   18  C16 UNL     1      -6.009 -10.942  10.254  1.00  0.00     0.044 C 
ENDBRANCH   9  10
ENDBRANCH   8   9
ENDBRANCH   1   8
BRANCH   4  19
HETATM   19  C11 UNL     1      -9.843 -18.006   9.700  1.00  0.00     0.285 C 
HETATM   20  N2  UNL     1      -9.611 -19.177   8.912  1.00  0.00    -0.056 NA
HETATM   21  O2  UNL     1     -10.637 -18.079  10.647  1.00  0.00    -0.269 OA
ENDBRANCH   4  19
BRANCH   5  22
HETATM   22  N3  UNL     1     -10.994 -15.145  10.033  1.00  0.00    -0.281 N 
ATOM     23  H3  UNL     1     -11.066 -14.586  10.884  1.00  0.00     0.188 HD
BRANCH  22  24
HETATM   24  N4  UNL     1     -12.154 -15.520   9.400  1.00  0.00    -0.270 N 
ATOM     25  H4  UNL     1     -12.187 -15.485   8.382  1.00  0.00     0.190 HD
BRANCH  24  26
HETATM   26  C13 UNL     1     -13.310 -15.954  10.105  1.00  0.00     0.190 C 
HETATM   27  N5  UNL     1     -14.513 -15.732   9.651  1.00  0.00    -0.360 N 
HETATM   28  C14 UNL     1     -15.508 -16.256  10.526  1.00  0.00     0.142 C 
ATOM     29  H5  UNL     1     -14.716 -15.243   8.778  1.00  0.00     0.162 HD
HETATM   30  C15 UNL     1     -14.733 -17.156  11.460  1.00  0.00     0.142 C 
HETATM   31  N6  UNL     1     -13.390 -16.648  11.341  1.00  0.00    -0.360 N 
ATOM     32  H6  UNL     1     -12.636 -16.765  12.019  1.00  0.00     0.162 HD
ENDBRANCH  24  26
ENDBRANCH  22  24
ENDBRANCH   5  22
TORSDOF 7
ENDMDL
MODEL 5
REMARK VINA RESULT: -7.722258626      1.060      1.762
REMARK  7 active torsions:
REMARK  status: ('A' for Active; 'I' for Inactive)
REMARK    1  A    between atoms: C7_8  and  C8_9 
REMARK    2  A    between atoms: C8_9  and  S1_10 
REMARK    3  A    between atoms: S1_10  and  C9_11 
REMARK    4  A    between atoms: C10_14  and  C11_15 
REMARK    5  A    between atoms: C12_18  and  N3_19 
REMARK    6  A    between atoms: N3_19  and  N4_21 
REMARK    7  A    between atoms: N4_21  and  C13_23 
ROOT
HETATM    1  C9  UNL     1      -9.431 -13.720   7.137  1.00  0.00     0.146 A 
HETATM    2  N1  UNL     1     -10.126 -14.298   8.112  1.00  0.00    -0.330 N 
ATOM      3  H1  UNL     1     -11.115 -14.121   8.281  1.00  0.00     0.168 HD
HETATM    4  C10 UNL     1      -9.381 -15.145   8.852  1.00  0.00     0.145 A 
HETATM    5  C12 UNL     1      -8.123 -15.102   8.311  1.00  0.00     0.154 A 
HETATM    6  N7  UNL     1      -8.163 -14.245   7.282  1.00  0.00    -0.320 N 
ATOM      7  H7  UNL     1      -7.366 -14.013   6.689  1.00  0.00     0.169 HD
ENDROOT
BRANCH   1   8
HETATM    8  S1  UNL     1      -9.885 -12.509   5.922  1.00  0.00    -0.089 SA
BRANCH   8   9
HETATM    9  C8  UNL     1      -9.345 -10.895   6.317  1.00  0.00     0.116 C 
BRANCH   9  10
HETATM   10  C7  UNL     1      -8.350 -10.743   7.435  1.00  0.00    -0.066 C 
HETATM   11  C6  UNL     1      -7.048 -10.918   7.121  1.00  0.00     0.053 C 
HETATM   12  C5  UNL     1      -6.036 -10.789   8.141  1.00  0.00     0.150 C 
HETATM   13  C4  UNL     1      -6.439 -11.250   9.509  1.00  0.00     0.092 C 
HETATM   14  O1  UNL     1      -4.915 -10.321   7.864  1.00  0.00    -0.293 OA
HETATM   15  C2  UNL     1      -7.673 -10.444   9.842  1.00  0.00    -0.037 C 
HETATM   16  C1  UNL     1      -7.172  -9.011  10.054  1.00  0.00     0.015 C 
HETATM   17  C3  UNL     1      -8.214 -10.923  11.170  1.00  0.00     0.015 C 
HETATM   18  C16 UNL     1      -8.727 -10.430   8.793  1.00  0.00     0.044 C 
ENDBRANCH   9  10
ENDBRANCH   8   9
ENDBRANCH   1   8
BRANCH   4  19
HETATM   19  C11 UNL     1      -9.794 -15.954   9.990  1.00  0.00     0.285 C 
HETATM   20  N2  UNL     1     -11.145 -15.928  10.459  1.00  0.00    -0.056 NA
HETATM   21  O2  UNL     1      -8.980 -16.682  10.574  1.00  0.00    -0.269 OA
ENDBRANCH   4  19
BRANCH   5  22
HETATM   22  N3  UNL     1      -6.956 -15.813   8.747  1.00  0.00    -0.281 N 
ATOM     23  H3  UNL     1      -6.362 -15.378   9.454  1.00  0.00     0.188 HD
BRANCH  22  24
HETATM   24  N4  UNL     1      -6.596 -17.046   8.264  1.00  0.00    -0.270 N 
ATOM     25  H4  UNL     1      -5.776 -17.115   7.663  1.00  0.00     0.190 HD
BRANCH  24  26
HETATM   26  C13 UNL     1      -7.320 -18.233   8.567  1.00  0.00     0.190 C 
HETATM   27  N5  UNL     1      -6.943 -19.042   9.518  1.00  0.00    -0.360 N 
HETATM   28  C14 UNL     1      -7.820 -20.159   9.634  1.00  0.00     0.142 C 
ATOM     29  H5  UNL     1      -6.123 -18.892  10.107  1.00  0.00     0.162 HD
HETATM   30  C15 UNL     1      -9.025 -19.762   8.814  1.00  0.00     0.142 C 
HETATM   31  N6  UNL     1      -8.491 -18.743   7.946  1.00  0.00    -0.360 N 
ATOM     32  H6  UNL     1      -8.882 -18.443   7.053  1.00  0.00     0.162 HD
ENDBRANCH  24  26
ENDBRANCH  22  24
ENDBRANCH   5  22
TORSDOF 7
ENDMDL
