MODEL 1
REMARK VINA RESULT: -5.902703454      0.000      0.000
REMARK  1 active torsions:
REMARK  status: ('A' for Active; 'I' for Inactive)
REMARK    1  A    between atoms: N1_1  and  N2_4 
ROOT
HETATM    1  N2  UNL     1      17.995 -22.835  22.479  1.00  0.00    -0.232 NA
HETATM    2  C1  UNL     1      19.276 -22.917  23.180  1.00  0.00     0.141 C 
HETATM    3  C2  UNL     1      19.145 -22.300  24.554  1.00  0.00     0.248 C 
HETATM    4  N3  UNL     1      19.380 -23.223  25.615  1.00  0.00    -0.072 N 
ATOM      5  H31 UNL     1      19.941 -22.788  26.347  1.00  0.00     0.277 HD
ATOM      6  H32 UNL     1      20.025 -23.954  25.314  1.00  0.00     0.277 HD
HETATM    7  C3  UNL     1      18.183 -23.804  26.173  1.00  0.00     0.253 C 
HETATM    8  C4  UNL     1      17.336 -24.519  25.174  1.00  0.00     0.166 C 
HETATM    9  N4  UNL     1      16.426 -23.616  24.541  1.00  0.00    -0.335 N 
ATOM     10  H4  UNL     1      16.276 -22.675  24.905  1.00  0.00     0.180 HD
HETATM   11  N5  UNL     1      15.777 -24.049  23.454  1.00  0.00    -0.319 N 
ATOM     12  H5  UNL     1      14.781 -23.858  23.343  1.00  0.00     0.185 HD
HETATM   13  C5  UNL     1      16.470 -24.766  22.469  1.00  0.00     0.095 C 
HETATM   14  C6  UNL     1      17.648 -24.077  21.855  1.00  0.00     0.159 C 
ENDROOT
BRANCH   1  15
HETATM   15  N1  UNL     1      18.085 -21.782  21.562  1.00  0.00    -0.363 NA
ATOM     16  H12 UNL     1      19.043 -21.456  21.436  1.00  0.00     0.171 HD
ATOM     17  H11 UNL     1      17.470 -21.037  21.889  1.00  0.00     0.171 HD
ENDBRANCH   1  15
TORSDOF 1
ENDMDL
MODEL 2
REMARK VINA RESULT: -5.850196228      1.527      3.089
REMARK  1 active torsions:
REMARK  status: ('A' for Active; 'I' for Inactive)
REMARK    1  A    between atoms: N1_1  and  N2_4 
ROOT
HETATM    1  N2  UNL     1      16.726 -24.343  23.928  1.00  0.00    -0.232 NA
HETATM    2  C1  UNL     1      17.106 -23.156  24.693  1.00  0.00     0.141 C 
HETATM    3  C2  UNL     1      18.604 -22.964  24.621  1.00  0.00     0.248 C 
HETATM    4  N3  UNL     1      18.989 -21.741  23.998  1.00  0.00    -0.072 N 
ATOM      5  H31 UNL     1      19.760 -21.309  24.506  1.00  0.00     0.277 HD
ATOM      6  H32 UNL     1      18.271 -21.029  24.134  1.00  0.00     0.277 HD
HETATM    7  C3  UNL     1      19.316 -21.865  22.597  1.00  0.00     0.253 C 
HETATM    8  C4  UNL     1      18.212 -22.431  21.767  1.00  0.00     0.166 C 
HETATM    9  N4  UNL     1      18.266 -23.860  21.756  1.00  0.00    -0.335 N 
ATOM     10  H4  UNL     1      19.082 -24.360  22.108  1.00  0.00     0.180 HD
HETATM   11  N5  UNL     1      17.208 -24.517  21.266  1.00  0.00    -0.319 N 
ATOM     12  H5  UNL     1      17.344 -25.311  20.641  1.00  0.00     0.185 HD
HETATM   13  C5  UNL     1      15.913 -24.110  21.616  1.00  0.00     0.095 C 
HETATM   14  C6  UNL     1      15.598 -24.091  23.079  1.00  0.00     0.159 C 
ENDROOT
BRANCH   1  15
HETATM   15  N1  UNL     1      16.486 -25.374  24.842  1.00  0.00    -0.363 NA
ATOM     16  H12 UNL     1      16.407 -25.034  25.801  1.00  0.00     0.171 HD
ATOM     17  H11 UNL     1      17.240 -26.053  24.743  1.00  0.00     0.171 HD
ENDBRANCH   1  15
TORSDOF 1
ENDMDL
MODEL 3
REMARK VINA RESULT: -5.633156909      1.172      3.295
REMARK  1 active torsions:
REMARK  status: ('A' for Active; 'I' for Inactive)
REMARK    1  A    between atoms: N1_1  and  N2_4 
ROOT
HETATM    1  N2  UNL     1      18.681 -23.690  24.487  1.00  0.00    -0.232 NA
HETATM    2  C1  UNL     1      18.947 -22.702  23.442  1.00  0.00     0.141 C 
HETATM    3  C2  UNL     1      18.803 -23.348  22.083  1.00  0.00     0.248 C 
HETATM    4  N3  UNL     1      17.767 -22.773  21.290  1.00  0.00    -0.072 N 
ATOM      5  H31 UNL     1      18.075 -22.668  20.323  1.00  0.00     0.277 HD
ATOM      6  H32 UNL     1      17.631 -21.793  21.536  1.00  0.00     0.277 HD
HETATM    7  C3  UNL     1      16.512 -23.485  21.345  1.00  0.00     0.253 C 
HETATM    8  C4  UNL     1      15.958 -23.626  22.723  1.00  0.00     0.166 C 
HETATM    9  N4  UNL     1      16.480 -24.793  23.364  1.00  0.00    -0.335 N 
ATOM     10  H4  UNL     1      16.990 -25.501  22.836  1.00  0.00     0.180 HD
HETATM   11  N5  UNL     1      16.275 -24.922  24.680  1.00  0.00    -0.319 N 
ATOM     12  H5  UNL     1      15.990 -25.822  25.067  1.00  0.00     0.185 HD
HETATM   13  C5  UNL     1      16.453 -23.818  25.524  1.00  0.00     0.095 C 
HETATM   14  C6  UNL     1      17.805 -23.175  25.497  1.00  0.00     0.159 C 
ENDROOT
BRANCH   1  15
HETATM   15  N1  UNL     1      19.915 -24.095  25.006  1.00  0.00    -0.363 NA
ATOM     16  H12 UNL     1      20.347 -24.835  24.452  1.00  0.00     0.171 HD
ATOM     17  H11 UNL     1      19.762 -24.385  25.971  1.00  0.00     0.171 HD
ENDBRANCH   1  15
TORSDOF 1
ENDMDL
MODEL 4
REMARK VINA RESULT: -5.530435236      1.177      3.393
REMARK  1 active torsions:
REMARK  status: ('A' for Active; 'I' for Inactive)
REMARK    1  A    between atoms: N1_1  and  N2_4 
ROOT
HETATM    1  N2  UNL     1      18.742 -22.779  24.180  1.00  0.00    -0.232 NA
HETATM    2  C1  UNL     1      18.114 -24.038  24.578  1.00  0.00     0.141 C 
HETATM    3  C2  UNL     1      16.620 -23.844  24.705  1.00  0.00     0.248 C 
HETATM    4  N3  UNL     1      15.865 -24.643  23.799  1.00  0.00    -0.072 N 
ATOM      5  H31 UNL     1      15.049 -25.038  24.266  1.00  0.00     0.277 HD
ATOM      6  H32 UNL     1      16.369 -25.501  23.574  1.00  0.00     0.277 HD
HETATM    7  C3  UNL     1      15.472 -23.959  22.590  1.00  0.00     0.253 C 
HETATM    8  C4  UNL     1      16.616 -23.405  21.809  1.00  0.00     0.166 C 
HETATM    9  N4  UNL     1      16.955 -22.093  22.267  1.00  0.00    -0.335 N 
ATOM     10  H4  UNL     1      16.340 -21.578  22.895  1.00  0.00     0.180 HD
HETATM   11  N5  UNL     1      18.109 -21.566  21.840  1.00  0.00    -0.319 N 
ATOM     12  H5  UNL     1      18.146 -20.594  21.536  1.00  0.00     0.185 HD
HETATM   13  C5  UNL     1      19.268 -22.356  21.814  1.00  0.00     0.095 C 
HETATM   14  C6  UNL     1      19.684 -22.964  23.116  1.00  0.00     0.159 C 
ENDROOT
BRANCH   1  15
HETATM   15  N1  UNL     1      19.329 -22.223  25.322  1.00  0.00    -0.363 NA
ATOM     16  H12 UNL     1      18.707 -21.573  25.803  1.00  0.00     0.171 HD
ATOM     17  H11 UNL     1      20.197 -21.773  25.033  1.00  0.00     0.171 HD
ENDBRANCH   1  15
TORSDOF 1
ENDMDL
MODEL 5
REMARK VINA RESULT: -5.464442092      1.454      2.838
REMARK  1 active torsions:
REMARK  status: ('A' for Active; 'I' for Inactive)
REMARK    1  A    between atoms: N1_1  and  N2_4 
ROOT
HETATM    1  N2  UNL     1      16.917 -24.110  22.470  1.00  0.00    -0.232 NA
HETATM    2  C1  UNL     1      16.137 -23.992  23.702  1.00  0.00     0.141 C 
HETATM    3  C2  UNL     1      16.848 -24.716  24.823  1.00  0.00     0.248 C 
HETATM    4  N3  UNL     1      17.233 -23.860  25.896  1.00  0.00    -0.072 N 
ATOM      5  H31 UNL     1      17.051 -24.308  26.793  1.00  0.00     0.277 HD
ATOM      6  H32 UNL     1      16.596 -23.066  25.965  1.00  0.00     0.277 HD
HETATM    7  C3  UNL     1      18.601 -23.403  25.829  1.00  0.00     0.253 C 
HETATM    8  C4  UNL     1      18.934 -22.676  24.569  1.00  0.00     0.166 C 
HETATM    9  N4  UNL     1      19.343 -23.590  23.548  1.00  0.00    -0.335 N 
ATOM     10  H4  UNL     1      19.559 -24.563  23.766  1.00  0.00     0.180 HD
HETATM   11  N5  UNL     1      19.435 -23.123  22.297  1.00  0.00    -0.319 N 
ATOM     12  H5  UNL     1      20.234 -23.372  21.716  1.00  0.00     0.185 HD
HETATM   13  C5  UNL     1      18.428 -22.290  21.790  1.00  0.00     0.095 C 
HETATM   14  C6  UNL     1      17.040 -22.851  21.795  1.00  0.00     0.159 C 
ENDROOT
BRANCH   1  15
HETATM   15  N1  UNL     1      16.303 -25.084  21.675  1.00  0.00    -0.363 NA
ATOM     16  H12 UNL     1      16.895 -25.902  21.535  1.00  0.00     0.171 HD
ATOM     17  H11 UNL     1      16.049 -24.643  20.791  1.00  0.00     0.171 HD
ENDBRANCH   1  15
TORSDOF 1
ENDMDL
