MODEL 1
REMARK VINA RESULT: -7.221964059      0.000      0.000
REMARK  1 active torsions:
REMARK  status: ('A' for Active; 'I' for Inactive)
REMARK    1  A    between atoms: N1_1  and  C1_4 
ROOT
HETATM    1  C1  UNL     1      18.499 -23.393  25.304  1.00  0.00     0.691 A 
HETATM    2  N2  UNL     1      18.510 -23.008  24.014  1.00  0.00    -0.181 N 
ATOM      3  H2  UNL     1      19.270 -22.424  23.665  1.00  0.00     0.184 HD
HETATM    4  C2  UNL     1      17.521 -23.391  23.180  1.00  0.00     0.162 A 
HETATM    5  C3  UNL     1      17.492 -23.018  21.845  1.00  0.00     0.277 A 
HETATM    6  O1  UNL     1      18.460 -22.290  21.455  1.00  0.00    -0.266 OA
HETATM    7  N3  UNL     1      16.506 -23.399  21.010  1.00  0.00    -0.318 N 
ATOM      8  H3  UNL     1      16.518 -23.106  20.032  1.00  0.00     0.169 HD
HETATM    9  C4  UNL     1      15.495 -24.177  21.478  1.00  0.00     0.185 A 
HETATM   10  N4  UNL     1      15.485 -24.561  22.767  1.00  0.00    -0.335 N 
ATOM     11  H4  UNL     1      14.724 -25.146  23.113  1.00  0.00     0.168 HD
HETATM   12  C5  UNL     1      16.477 -24.181  23.616  1.00  0.00     0.154 A 
HETATM   13  N5  UNL     1      16.496 -24.548  24.912  1.00  0.00    -0.269 N 
ATOM     14  H5  UNL     1      15.743 -25.132  25.276  1.00  0.00     0.189 HD
HETATM   15  N6  UNL     1      17.482 -24.164  25.731  1.00  0.00    -0.131 N 
ATOM     16  H6  UNL     1      17.462 -24.463  26.705  1.00  0.00     0.205 HD
ENDROOT
BRANCH   1  17
HETATM   17  N1  UNL     1      19.417 -23.060  26.152  1.00  0.00    -0.233 N 
ATOM     18  H12 UNL     1      19.951 -22.207  25.980  1.00  0.00     0.174 HD
ATOM     19  H11 UNL     1      19.635 -23.606  26.985  1.00  0.00     0.174 HD
ENDBRANCH   1  17
TORSDOF 1
ENDMDL
MODEL 2
REMARK VINA RESULT: -6.681345345      1.741      2.636
REMARK  1 active torsions:
REMARK  status: ('A' for Active; 'I' for Inactive)
REMARK    1  A    between atoms: N1_1  and  C1_4 
ROOT
HETATM    1  C1  UNL     1      19.447 -23.049  24.190  1.00  0.00     0.691 A 
HETATM    2  N2  UNL     1      18.252 -23.632  24.397  1.00  0.00    -0.181 N 
ATOM      3  H2  UNL     1      18.019 -24.000  25.320  1.00  0.00     0.184 HD
HETATM    4  C2  UNL     1      17.358 -23.731  23.392  1.00  0.00     0.162 A 
HETATM    5  C3  UNL     1      16.116 -24.322  23.560  1.00  0.00     0.277 A 
HETATM    6  O1  UNL     1      15.870 -24.767  24.728  1.00  0.00    -0.266 OA
HETATM    7  N3  UNL     1      15.221 -24.423  22.558  1.00  0.00    -0.318 N 
ATOM      8  H3  UNL     1      14.315 -24.864  22.720  1.00  0.00     0.169 HD
HETATM    9  C4  UNL     1      15.534 -23.932  21.330  1.00  0.00     0.185 A 
HETATM   10  N4  UNL     1      16.729 -23.350  21.124  1.00  0.00    -0.335 N 
ATOM     11  H4  UNL     1      16.957 -22.982  20.200  1.00  0.00     0.168 HD
HETATM   12  C5  UNL     1      17.636 -23.245  22.131  1.00  0.00     0.154 A 
HETATM   13  N5  UNL     1      18.841 -22.669  21.956  1.00  0.00    -0.269 N 
ATOM     14  H5  UNL     1      19.089 -22.297  21.040  1.00  0.00     0.189 HD
HETATM   15  N6  UNL     1      19.720 -22.574  22.961  1.00  0.00    -0.131 N 
ATOM     16  H6  UNL     1      20.622 -22.130  22.790  1.00  0.00     0.205 HD
ENDROOT
BRANCH   1  17
HETATM   17  N1  UNL     1      20.345 -22.923  25.112  1.00  0.00    -0.233 N 
ATOM     18  H12 UNL     1      20.048 -22.628  26.042  1.00  0.00     0.174 HD
ATOM     19  H11 UNL     1      21.337 -23.105  24.957  1.00  0.00     0.174 HD
ENDBRANCH   1  17
TORSDOF 1
ENDMDL
MODEL 3
REMARK VINA RESULT: -6.656292513      1.809      4.296
REMARK  1 active torsions:
REMARK  status: ('A' for Active; 'I' for Inactive)
REMARK    1  A    between atoms: N1_1  and  C1_4 
ROOT
HETATM    1  C1  UNL     1      15.648 -24.163  22.168  1.00  0.00     0.691 A 
HETATM    2  N2  UNL     1      16.225 -24.349  23.370  1.00  0.00    -0.181 N 
ATOM      3  H2  UNL     1      15.759 -24.922  24.073  1.00  0.00     0.184 HD
HETATM    4  C2  UNL     1      17.417 -23.783  23.649  1.00  0.00     0.162 A 
HETATM    5  C3  UNL     1      18.047 -23.948  24.872  1.00  0.00     0.277 A 
HETATM    6  O1  UNL     1      17.429 -24.671  25.718  1.00  0.00    -0.266 OA
HETATM    7  N3  UNL     1      19.238 -23.384  25.154  1.00  0.00    -0.318 N 
ATOM      8  H3  UNL     1      19.672 -23.528  26.066  1.00  0.00     0.169 HD
HETATM    9  C4  UNL     1      19.856 -22.620  24.216  1.00  0.00     0.185 A 
HETATM   10  N4  UNL     1      19.278 -22.435  23.014  1.00  0.00    -0.335 N 
ATOM     11  H4  UNL     1      19.748 -21.861  22.313  1.00  0.00     0.168 HD
HETATM   12  C5  UNL     1      18.077 -23.001  22.723  1.00  0.00     0.154 A 
HETATM   13  N5  UNL     1      17.473 -22.834  21.531  1.00  0.00    -0.269 N 
ATOM     14  H5  UNL     1      17.925 -22.263  20.817  1.00  0.00     0.189 HD
HETATM   15  N6  UNL     1      16.291 -23.401  21.263  1.00  0.00    -0.131 N 
ATOM     16  H6  UNL     1      15.865 -23.252  20.349  1.00  0.00     0.205 HD
ENDROOT
BRANCH   1  17
HETATM   17  N1  UNL     1      14.508 -24.678  21.840  1.00  0.00    -0.233 N 
ATOM     18  H12 UNL     1      14.107 -25.395  22.446  1.00  0.00     0.174 HD
ATOM     19  H11 UNL     1      13.990 -24.406  21.005  1.00  0.00     0.174 HD
ENDBRANCH   1  17
TORSDOF 1
ENDMDL
MODEL 4
REMARK VINA RESULT: -6.610755720      1.189      3.715
REMARK  1 active torsions:
REMARK  status: ('A' for Active; 'I' for Inactive)
REMARK    1  A    between atoms: N1_1  and  C1_4 
ROOT
HETATM    1  C1  UNL     1      16.239 -23.733  22.066  1.00  0.00     0.691 A 
HETATM    2  N2  UNL     1      17.471 -23.334  22.435  1.00  0.00    -0.181 N 
ATOM      3  H2  UNL     1      18.102 -22.930  21.743  1.00  0.00     0.184 HD
HETATM    4  C2  UNL     1      17.877 -23.466  23.715  1.00  0.00     0.162 A 
HETATM    5  C3  UNL     1      19.135 -23.069  24.139  1.00  0.00     0.277 A 
HETATM    6  O1  UNL     1      19.887 -22.571  23.241  1.00  0.00    -0.266 OA
HETATM    7  N3  UNL     1      19.542 -23.200  25.416  1.00  0.00    -0.318 N 
ATOM      8  H3  UNL     1      20.476 -22.896  25.692  1.00  0.00     0.169 HD
HETATM    9  C4  UNL     1      18.700 -23.740  26.336  1.00  0.00     0.185 A 
HETATM   10  N4  UNL     1      17.468 -24.138  25.966  1.00  0.00    -0.335 N 
ATOM     11  H4  UNL     1      16.840 -24.541  26.662  1.00  0.00     0.168 HD
HETATM   12  C5  UNL     1      17.051 -24.009  24.679  1.00  0.00     0.154 A 
HETATM   13  N5  UNL     1      15.825 -24.398  24.277  1.00  0.00    -0.269 N 
ATOM     14  H5  UNL     1      15.183 -24.805  24.957  1.00  0.00     0.189 HD
HETATM   15  N6  UNL     1      15.433 -24.262  23.005  1.00  0.00    -0.131 N 
ATOM     16  H6  UNL     1      14.497 -24.567  22.740  1.00  0.00     0.205 HD
ENDROOT
BRANCH   1  17
HETATM   17  N1  UNL     1      15.793 -23.632  20.857  1.00  0.00    -0.233 N 
ATOM     18  H12 UNL     1      14.905 -24.081  20.628  1.00  0.00     0.174 HD
ATOM     19  H11 UNL     1      16.283 -23.127  20.119  1.00  0.00     0.174 HD
ENDBRANCH   1  17
TORSDOF 1
ENDMDL
MODEL 5
REMARK VINA RESULT: -6.458679227      1.890      4.418
REMARK  1 active torsions:
REMARK  status: ('A' for Active; 'I' for Inactive)
REMARK    1  A    between atoms: N1_1  and  C1_4 
ROOT
HETATM    1  C1  UNL     1      16.626 -23.234  21.666  1.00  0.00     0.691 A 
HETATM    2  N2  UNL     1      16.596 -23.888  22.842  1.00  0.00    -0.181 N 
ATOM      3  H2  UNL     1      15.876 -24.590  23.014  1.00  0.00     0.184 HD
HETATM    4  C2  UNL     1      17.512 -23.621  23.795  1.00  0.00     0.162 A 
HETATM    5  C3  UNL     1      17.519 -24.270  25.019  1.00  0.00     0.277 A 
HETATM    6  O1  UNL     1      16.603 -25.137  25.188  1.00  0.00    -0.266 OA
HETATM    7  N3  UNL     1      18.433 -24.005  25.973  1.00  0.00    -0.318 N 
ATOM      8  H3  UNL     1      18.407 -24.504  26.863  1.00  0.00     0.169 HD
HETATM    9  C4  UNL     1      19.390 -23.068  25.741  1.00  0.00     0.185 A 
HETATM   10  N4  UNL     1      19.419 -22.415  24.565  1.00  0.00    -0.335 N 
ATOM     11  H4  UNL     1      20.141 -21.713  24.397  1.00  0.00     0.168 HD
HETATM   12  C5  UNL     1      18.501 -22.677  23.599  1.00  0.00     0.154 A 
HETATM   13  N5  UNL     1      18.502 -22.040  22.412  1.00  0.00    -0.269 N 
ATOM     14  H5  UNL     1      19.215 -21.335  22.225  1.00  0.00     0.189 HD
HETATM   15  N6  UNL     1      17.589 -22.314  21.473  1.00  0.00    -0.131 N 
ATOM     16  H6  UNL     1      17.624 -21.811  20.586  1.00  0.00     0.205 HD
ENDROOT
BRANCH   1  17
HETATM   17  N1  UNL     1      15.777 -23.445  20.714  1.00  0.00    -0.233 N 
ATOM     18  H12 UNL     1      16.110 -23.415  19.750  1.00  0.00     0.174 HD
ATOM     19  H11 UNL     1      14.790 -23.641  20.877  1.00  0.00     0.174 HD
ENDBRANCH   1  17
TORSDOF 1
ENDMDL
