MODEL 1
REMARK VINA RESULT: -6.675865634      0.000      0.000
REMARK  1 active torsions:
REMARK  status: ('A' for Active; 'I' for Inactive)
REMARK    1  A    between atoms: N1_1  and  C1_4 
ROOT
HETATM    1  C1  UNL     1      18.818 -22.979  24.508  1.00  0.00     0.680 A 
HETATM    2  N2  UNL     1      19.299 -22.337  23.430  1.00  0.00    -0.154 N 
ATOM      3  H2  UNL     1      20.162 -21.796  23.492  1.00  0.00     0.187 HD
HETATM    4  C2  UNL     1      18.627 -22.417  22.268  1.00  0.00     0.291 A 
HETATM    5  O1  UNL     1      19.096 -21.808  21.270  1.00  0.00    -0.265 OA
HETATM    6  C3  UNL     1      17.467 -23.129  22.130  1.00  0.00     0.164 A 
HETATM    7  N3  UNL     1      16.597 -23.390  21.136  1.00  0.00    -0.278 N 
ATOM      8  H3  UNL     1      16.678 -23.044  20.180  1.00  0.00     0.189 HD
HETATM    9  N4  UNL     1      15.620 -24.161  21.585  1.00  0.00    -0.240 N 
ATOM     10  H4  UNL     1      14.830 -24.509  21.041  1.00  0.00     0.208 HD
HETATM   11  N5  UNL     1      15.853 -24.401  22.859  1.00  0.00    -0.268 N 
ATOM     12  H5  UNL     1      15.262 -24.971  23.465  1.00  0.00     0.190 HD
HETATM   13  C4  UNL     1      16.980 -23.785  23.243  1.00  0.00     0.170 A 
HETATM   14  N6  UNL     1      17.678 -23.683  24.390  1.00  0.00    -0.173 N 
ATOM     15  H6  UNL     1      17.323 -24.166  25.216  1.00  0.00     0.186 HD
ENDROOT
BRANCH   1  16
HETATM   16  N1  UNL     1      19.404 -22.952  25.665  1.00  0.00    -0.234 N 
ATOM     17  H12 UNL     1      20.167 -23.608  25.833  1.00  0.00     0.174 HD
ATOM     18  H11 UNL     1      19.136 -22.307  26.408  1.00  0.00     0.174 HD
ENDBRANCH   1  16
TORSDOF 1
ENDMDL
MODEL 2
REMARK VINA RESULT: -6.642110695      1.880      2.518
REMARK  1 active torsions:
REMARK  status: ('A' for Active; 'I' for Inactive)
REMARK    1  A    between atoms: N1_1  and  C1_4 
ROOT
HETATM    1  C1  UNL     1      18.879 -22.993  24.909  1.00  0.00     0.680 A 
HETATM    2  N2  UNL     1      18.009 -23.944  25.294  1.00  0.00    -0.154 N 
ATOM      3  H2  UNL     1      18.056 -24.338  26.234  1.00  0.00     0.187 HD
HETATM    4  C2  UNL     1      17.076 -24.366  24.423  1.00  0.00     0.291 A 
HETATM    5  O1  UNL     1      16.271 -25.256  24.804  1.00  0.00    -0.265 OA
HETATM    6  C3  UNL     1      16.969 -23.870  23.152  1.00  0.00     0.164 A 
HETATM    7  N3  UNL     1      16.171 -24.082  22.088  1.00  0.00    -0.278 N 
ATOM      8  H3  UNL     1      15.402 -24.750  22.056  1.00  0.00     0.189 HD
HETATM    9  N4  UNL     1      16.536 -23.294  21.090  1.00  0.00    -0.240 N 
ATOM     10  H4  UNL     1      16.101 -23.251  20.168  1.00  0.00     0.208 HD
HETATM   11  N5  UNL     1      17.562 -22.576  21.500  1.00  0.00    -0.268 N 
ATOM     12  H5  UNL     1      18.051 -21.880  20.938  1.00  0.00     0.190 HD
HETATM   13  C4  UNL     1      17.867 -22.895  22.766  1.00  0.00     0.170 A 
HETATM   14  N6  UNL     1      18.788 -22.495  23.664  1.00  0.00    -0.173 N 
ATOM     15  H6  UNL     1      19.454 -21.775  23.384  1.00  0.00     0.186 HD
ENDROOT
BRANCH   1  16
HETATM   16  N1  UNL     1      19.809 -22.531  25.688  1.00  0.00    -0.234 N 
ATOM     17  H12 UNL     1      20.676 -23.061  25.769  1.00  0.00     0.174 HD
ATOM     18  H11 UNL     1      19.708 -21.666  26.219  1.00  0.00     0.174 HD
ENDBRANCH   1  16
TORSDOF 1
ENDMDL
MODEL 3
REMARK VINA RESULT: -6.525213373      1.211      3.519
REMARK  1 active torsions:
REMARK  status: ('A' for Active; 'I' for Inactive)
REMARK    1  A    between atoms: N1_1  and  C1_4 
ROOT
HETATM    1  C1  UNL     1      15.933 -23.937  22.996  1.00  0.00     0.680 A 
HETATM    2  N2  UNL     1      16.605 -22.964  22.355  1.00  0.00    -0.154 N 
ATOM      3  H2  UNL     1      16.295 -22.636  21.441  1.00  0.00     0.187 HD
HETATM    4  C2  UNL     1      17.694 -22.431  22.938  1.00  0.00     0.291 A 
HETATM    5  O1  UNL     1      18.308 -21.521  22.322  1.00  0.00    -0.265 OA
HETATM    6  C3  UNL     1      18.152 -22.834  24.163  1.00  0.00     0.164 A 
HETATM    7  N3  UNL     1      19.173 -22.505  24.977  1.00  0.00    -0.278 N 
ATOM      8  H3  UNL     1      19.875 -21.792  24.778  1.00  0.00     0.189 HD
HETATM    9  N4  UNL     1      19.130 -23.245  26.073  1.00  0.00    -0.240 N 
ATOM     10  H4  UNL     1      19.784 -23.201  26.854  1.00  0.00     0.208 HD
HETATM   11  N5  UNL     1      18.090 -24.048  25.973  1.00  0.00    -0.268 N 
ATOM     12  H5  UNL     1      17.810 -24.732  26.675  1.00  0.00     0.190 HD
HETATM   13  C4  UNL     1      17.456 -23.833  24.812  1.00  0.00     0.170 A 
HETATM   14  N6  UNL     1      16.370 -24.345  24.200  1.00  0.00    -0.173 N 
ATOM     15  H6  UNL     1      15.851 -25.084  24.675  1.00  0.00     0.186 HD
ENDROOT
BRANCH   1  16
HETATM   16  N1  UNL     1      14.875 -24.504  22.503  1.00  0.00    -0.234 N 
ATOM     17  H12 UNL     1      14.002 -24.428  23.025  1.00  0.00     0.174 HD
ATOM     18  H11 UNL     1      14.881 -25.018  21.622  1.00  0.00     0.174 HD
ENDBRANCH   1  16
TORSDOF 1
ENDMDL
MODEL 4
REMARK VINA RESULT: -6.501141655      2.036      2.822
REMARK  1 active torsions:
REMARK  status: ('A' for Active; 'I' for Inactive)
REMARK    1  A    between atoms: N1_1  and  C1_4 
ROOT
HETATM    1  C1  UNL     1      17.577 -24.031  25.280  1.00  0.00     0.680 A 
HETATM    2  N2  UNL     1      16.422 -24.411  24.706  1.00  0.00    -0.154 N 
ATOM      3  H2  UNL     1      15.744 -24.967  25.227  1.00  0.00     0.187 HD
HETATM    4  C2  UNL     1      16.174 -24.047  23.436  1.00  0.00     0.291 A 
HETATM    5  O1  UNL     1      15.086 -24.412  22.918  1.00  0.00    -0.265 OA
HETATM    6  C3  UNL     1      17.048 -23.300  22.694  1.00  0.00     0.164 A 
HETATM    7  N3  UNL     1      17.083 -22.797  21.445  1.00  0.00    -0.278 N 
ATOM      8  H3  UNL     1      16.348 -22.909  20.747  1.00  0.00     0.189 HD
HETATM    9  N4  UNL     1      18.213 -22.134  21.260  1.00  0.00    -0.240 N 
ATOM     10  H4  UNL     1      18.495 -21.654  20.405  1.00  0.00     0.208 HD
HETATM   11  N5  UNL     1      18.908 -22.206  22.377  1.00  0.00    -0.268 N 
ATOM     12  H5  UNL     1      19.824 -21.784  22.524  1.00  0.00     0.190 HD
HETATM   13  C4  UNL     1      18.232 -22.916  23.291  1.00  0.00     0.170 A 
HETATM   14  N6  UNL     1      18.448 -23.298  24.565  1.00  0.00    -0.173 N 
ATOM     15  H6  UNL     1      19.321 -23.016  25.012  1.00  0.00     0.186 HD
ENDROOT
BRANCH   1  16
HETATM   16  N1  UNL     1      17.893 -24.341  26.500  1.00  0.00    -0.234 N 
ATOM     17  H12 UNL     1      17.213 -24.153  27.236  1.00  0.00     0.174 HD
ATOM     18  H11 UNL     1      18.788 -24.762  26.751  1.00  0.00     0.174 HD
ENDBRANCH   1  16
TORSDOF 1
ENDMDL
MODEL 5
REMARK VINA RESULT: -6.374202669      1.746      2.616
REMARK  1 active torsions:
REMARK  status: ('A' for Active; 'I' for Inactive)
REMARK    1  A    between atoms: N1_1  and  C1_4 
ROOT
HETATM    1  C1  UNL     1      18.804 -22.259  22.027  1.00  0.00     0.680 A 
HETATM    2  N2  UNL     1      18.998 -22.784  23.250  1.00  0.00    -0.154 N 
ATOM      3  H2  UNL     1      19.822 -22.534  23.796  1.00  0.00     0.187 HD
HETATM    4  C2  UNL     1      18.088 -23.643  23.743  1.00  0.00     0.291 A 
HETATM    5  O1  UNL     1      18.289 -24.123  24.890  1.00  0.00    -0.265 OA
HETATM    6  C3  UNL     1      16.965 -24.011  23.053  1.00  0.00     0.164 A 
HETATM    7  N3  UNL     1      15.910 -24.819  23.271  1.00  0.00    -0.278 N 
ATOM      8  H3  UNL     1      15.758 -25.370  24.116  1.00  0.00     0.189 HD
HETATM    9  N4  UNL     1      15.100 -24.791  22.225  1.00  0.00    -0.240 N 
ATOM     10  H4  UNL     1      14.228 -25.310  22.126  1.00  0.00     0.208 HD
HETATM   11  N5  UNL     1      15.624 -23.973  21.335  1.00  0.00    -0.268 N 
ATOM     12  H5  UNL     1      15.213 -23.757  20.427  1.00  0.00     0.190 HD
HETATM   13  C4  UNL     1      16.775 -23.467  21.799  1.00  0.00     0.170 A 
HETATM   14  N6  UNL     1      17.706 -22.610  21.336  1.00  0.00    -0.173 N 
ATOM     15  H6  UNL     1      17.570 -22.205  20.410  1.00  0.00     0.186 HD
ENDROOT
BRANCH   1  16
HETATM   16  N1  UNL     1      19.632 -21.424  21.480  1.00  0.00    -0.234 N 
ATOM     17  H12 UNL     1      19.457 -20.426  21.596  1.00  0.00     0.174 HD
ATOM     18  H11 UNL     1      20.445 -21.722  20.941  1.00  0.00     0.174 HD
ENDBRANCH   1  16
TORSDOF 1
ENDMDL
