MODEL 1
REMARK VINA RESULT: -5.892217691      0.000      0.000
REMARK  7 active torsions:
REMARK  status: ('A' for Active; 'I' for Inactive)
REMARK    1  A    between atoms: N1_2  and  C3_4 
REMARK    2  A    between atoms: C3_4  and  C4_5 
REMARK    3  A    between atoms: C6_7  and  N2_8 
REMARK       I    between atoms: N2_8  and  C7_10 
REMARK    4  A    between atoms: C7_10  and  C8_12 
REMARK    5  A    between atoms: C8_12  and  S1_13 
REMARK    6  A    between atoms: S1_13  and  C9_14 
REMARK    7  A    between atoms: C10_17  and  N4_18 
ROOT
HETATM    1  N2  UNL     1      30.881  -5.833  -1.234  1.00  0.00    -0.305 N 
ATOM      2  H2  UNL     1      31.509  -5.318  -1.851  1.00  0.00     0.171 HD
HETATM    3  C7  UNL     1      31.368  -6.641  -0.188  1.00  0.00     0.233 C 
HETATM    4  O1  UNL     1      31.357  -7.900  -0.371  1.00  0.00    -0.272 OA
ENDROOT
BRANCH   3   5
HETATM    5  C8  UNL     1      31.881  -6.122   1.085  1.00  0.00     0.185 C 
BRANCH   5   6
HETATM    6  S1  UNL     1      30.645  -6.276   2.370  1.00  0.00    -0.083 SA
BRANCH   6   7
HETATM    7  C9  UNL     1      29.476  -4.932   2.259  1.00  0.00     0.174 A 
HETATM    8  N3  UNL     1      28.203  -4.960   2.674  1.00  0.00    -0.168 N 
HETATM    9  C10 UNL     1      27.617  -3.786   2.445  1.00  0.00     0.692 A 
ATOM     10  H3  UNL     1      27.747  -5.765   3.104  1.00  0.00     0.186 HD
HETATM   11  N5  UNL     1      28.555  -3.008   1.872  1.00  0.00    -0.130 N 
HETATM   12  N6  UNL     1      29.673  -3.696   1.759  1.00  0.00    -0.265 N 
ATOM     13  H5  UNL     1      28.421  -2.042   1.573  1.00  0.00     0.205 HD
ATOM     14  H6  UNL     1      30.545  -3.349   1.360  1.00  0.00     0.189 HD
BRANCH   9  15
HETATM   15  N4  UNL     1      26.407  -3.450   2.721  1.00  0.00    -0.233 N 
ATOM     16  H42 UNL     1      25.965  -3.471   3.640  1.00  0.00     0.174 HD
ATOM     17  H41 UNL     1      25.694  -3.118   2.072  1.00  0.00     0.174 HD
ENDBRANCH   9  15
ENDBRANCH   6   7
ENDBRANCH   5   6
ENDBRANCH   3   5
BRANCH   1  18
HETATM   18  C6  UNL     1      29.600  -5.776  -1.372  1.00  0.00     0.174 A 
HETATM   19  C5  UNL     1      28.783  -6.479  -2.229  1.00  0.00     0.087 A 
HETATM   20  C4  UNL     1      27.491  -6.062  -1.991  1.00  0.00     0.065 A 
HETATM   21  N7  UNL     1      27.590  -5.144  -1.017  1.00  0.00    -0.262 N 
HETATM   22  O2  UNL     1      28.823  -4.989  -0.669  1.00  0.00    -0.220 OA
ATOM     23  H7  UNL     1      26.802  -4.641  -0.610  1.00  0.00     0.194 HD
BRANCH  20  24
HETATM   24  C3  UNL     1      26.222  -6.494  -2.618  1.00  0.00     0.330 C 
BRANCH  24  25
HETATM   25  N1  UNL     1      25.406  -7.142  -1.645  1.00  0.00     0.085 N 
HETATM   26  C1  UNL     1      25.140  -8.526  -1.865  1.00  0.00     0.309 C 
HETATM   27  C2  UNL     1      24.210  -6.378  -1.328  1.00  0.00     0.309 C 
ENDBRANCH  24  25
ENDBRANCH  20  24
ENDBRANCH   1  18
TORSDOF 7
ENDMDL
MODEL 2
REMARK VINA RESULT: -5.753841934      2.867      6.529
REMARK  7 active torsions:
REMARK  status: ('A' for Active; 'I' for Inactive)
REMARK    1  A    between atoms: N1_2  and  C3_4 
REMARK    2  A    between atoms: C3_4  and  C4_5 
REMARK    3  A    between atoms: C6_7  and  N2_8 
REMARK       I    between atoms: N2_8  and  C7_10 
REMARK    4  A    between atoms: C7_10  and  C8_12 
REMARK    5  A    between atoms: C8_12  and  S1_13 
REMARK    6  A    between atoms: S1_13  and  C9_14 
REMARK    7  A    between atoms: C10_17  and  N4_18 
ROOT
HETATM    1  N2  UNL     1      27.080  -4.916  -0.446  1.00  0.00    -0.305 N 
ATOM      2  H2  UNL     1      27.332  -4.329  -1.241  1.00  0.00     0.171 HD
HETATM    3  C7  UNL     1      25.765  -4.956   0.058  1.00  0.00     0.233 C 
HETATM    4  O1  UNL     1      25.534  -4.320   1.135  1.00  0.00    -0.272 OA
ENDROOT
BRANCH   3   5
HETATM    5  C8  UNL     1      24.659  -5.680  -0.579  1.00  0.00     0.185 C 
BRANCH   5   6
HETATM    6  S1  UNL     1      24.798  -5.596  -2.362  1.00  0.00    -0.083 SA
BRANCH   6   7
HETATM    7  C9  UNL     1      25.828  -6.925  -2.960  1.00  0.00     0.174 A 
HETATM    8  N3  UNL     1      26.107  -8.060  -2.304  1.00  0.00    -0.168 N 
HETATM    9  C10 UNL     1      26.899  -8.835  -3.043  1.00  0.00     0.692 A 
ATOM     10  H3  UNL     1      25.762  -8.296  -1.374  1.00  0.00     0.186 HD
HETATM   11  N5  UNL     1      27.117  -8.162  -4.188  1.00  0.00    -0.130 N 
HETATM   12  N6  UNL     1      26.473  -7.013  -4.140  1.00  0.00    -0.265 N 
ATOM     13  H5  UNL     1      27.689  -8.488  -4.967  1.00  0.00     0.205 HD
ATOM     14  H6  UNL     1      26.464  -6.306  -4.875  1.00  0.00     0.189 HD
BRANCH   9  15
HETATM   15  N4  UNL     1      27.360  -9.996  -2.736  1.00  0.00    -0.233 N 
ATOM     16  H42 UNL     1      27.202 -10.502  -1.866  1.00  0.00     0.174 HD
ATOM     17  H41 UNL     1      27.960 -10.593  -3.305  1.00  0.00     0.174 HD
ENDBRANCH   9  15
ENDBRANCH   6   7
ENDBRANCH   5   6
ENDBRANCH   3   5
BRANCH   1  18
HETATM   18  C6  UNL     1      27.950  -5.658   0.150  1.00  0.00     0.174 A 
HETATM   19  C5  UNL     1      28.956  -5.297   1.019  1.00  0.00     0.087 A 
HETATM   20  C4  UNL     1      29.611  -6.454   1.383  1.00  0.00     0.065 A 
HETATM   21  N7  UNL     1      28.979  -7.439   0.727  1.00  0.00    -0.262 N 
HETATM   22  O2  UNL     1      28.016  -6.960   0.014  1.00  0.00    -0.220 OA
ATOM     23  H7  UNL     1      29.225  -8.427   0.785  1.00  0.00     0.194 HD
BRANCH  20  24
HETATM   24  C3  UNL     1      30.758  -6.650   2.298  1.00  0.00     0.330 C 
BRANCH  24  25
HETATM   25  N1  UNL     1      31.873  -5.896   1.831  1.00  0.00     0.085 N 
HETATM   26  C1  UNL     1      32.597  -6.451   0.735  1.00  0.00     0.309 C 
HETATM   27  C2  UNL     1      32.737  -5.455   2.916  1.00  0.00     0.309 C 
ENDBRANCH  24  25
ENDBRANCH  20  24
ENDBRANCH   1  18
TORSDOF 7
ENDMDL
MODEL 3
REMARK VINA RESULT: -5.746849911      2.474      3.973
REMARK  7 active torsions:
REMARK  status: ('A' for Active; 'I' for Inactive)
REMARK    1  A    between atoms: N1_2  and  C3_4 
REMARK    2  A    between atoms: C3_4  and  C4_5 
REMARK    3  A    between atoms: C6_7  and  N2_8 
REMARK       I    between atoms: N2_8  and  C7_10 
REMARK    4  A    between atoms: C7_10  and  C8_12 
REMARK    5  A    between atoms: C8_12  and  S1_13 
REMARK    6  A    between atoms: S1_13  and  C9_14 
REMARK    7  A    between atoms: C10_17  and  N4_18 
ROOT
HETATM    1  N2  UNL     1      27.467  -4.051   1.120  1.00  0.00    -0.305 N 
ATOM      2  H2  UNL     1      27.302  -3.100   1.449  1.00  0.00     0.171 HD
HETATM    3  C7  UNL     1      28.609  -4.781   1.507  1.00  0.00     0.233 C 
HETATM    4  O1  UNL     1      29.546  -4.893   0.655  1.00  0.00    -0.272 OA
ENDROOT
BRANCH   3   5
HETATM    5  C8  UNL     1      28.777  -5.413   2.821  1.00  0.00     0.185 C 
BRANCH   5   6
HETATM    6  S1  UNL     1      29.927  -6.781   2.717  1.00  0.00    -0.083 SA
BRANCH   6   7
HETATM    7  C9  UNL     1      31.605  -6.176   2.773  1.00  0.00     0.174 A 
HETATM    8  N3  UNL     1      32.362  -5.859   1.714  1.00  0.00    -0.168 N 
HETATM    9  C10 UNL     1      33.560  -5.434   2.114  1.00  0.00     0.692 A 
ATOM     10  H3  UNL     1      32.065  -5.932   0.741  1.00  0.00     0.186 HD
HETATM   11  N5  UNL     1      33.544  -5.490   3.459  1.00  0.00    -0.130 N 
HETATM   12  N6  UNL     1      32.369  -5.935   3.856  1.00  0.00    -0.265 N 
ATOM     13  H5  UNL     1      34.316  -5.229   4.072  1.00  0.00     0.205 HD
ATOM     14  H6  UNL     1      32.084  -6.075   4.826  1.00  0.00     0.189 HD
BRANCH   9  15
HETATM   15  N4  UNL     1      34.535  -5.041   1.375  1.00  0.00    -0.233 N 
ATOM     16  H42 UNL     1      34.692  -4.095   1.028  1.00  0.00     0.174 HD
ATOM     17  H41 UNL     1      35.303  -5.605   1.011  1.00  0.00     0.174 HD
ENDBRANCH   9  15
ENDBRANCH   6   7
ENDBRANCH   5   6
ENDBRANCH   3   5
BRANCH   1  18
HETATM   18  C6  UNL     1      26.642  -4.647   0.328  1.00  0.00     0.174 A 
HETATM   19  C5  UNL     1      26.862  -5.175  -0.924  1.00  0.00     0.087 A 
HETATM   20  C4  UNL     1      25.666  -5.705  -1.357  1.00  0.00     0.065 A 
HETATM   21  N7  UNL     1      24.797  -5.476  -0.360  1.00  0.00    -0.262 N 
HETATM   22  O2  UNL     1      25.380  -4.859   0.612  1.00  0.00    -0.220 OA
ATOM     23  H7  UNL     1      23.816  -5.751  -0.370  1.00  0.00     0.194 HD
BRANCH  20  24
HETATM   24  C3  UNL     1      25.336  -6.401  -2.621  1.00  0.00     0.330 C 
BRANCH  24  25
HETATM   25  N1  UNL     1      26.330  -7.385  -2.896  1.00  0.00     0.085 N 
HETATM   26  C1  UNL     1      27.091  -7.198  -4.088  1.00  0.00     0.309 C 
HETATM   27  C2  UNL     1      25.821  -8.740  -2.755  1.00  0.00     0.309 C 
ENDBRANCH  24  25
ENDBRANCH  20  24
ENDBRANCH   1  18
TORSDOF 7
ENDMDL
MODEL 4
REMARK VINA RESULT: -5.676918108      1.484      1.621
REMARK  7 active torsions:
REMARK  status: ('A' for Active; 'I' for Inactive)
REMARK    1  A    between atoms: N1_2  and  C3_4 
REMARK    2  A    between atoms: C3_4  and  C4_5 
REMARK    3  A    between atoms: C6_7  and  N2_8 
REMARK       I    between atoms: N2_8  and  C7_10 
REMARK    4  A    between atoms: C7_10  and  C8_12 
REMARK    5  A    between atoms: C8_12  and  S1_13 
REMARK    6  A    between atoms: S1_13  and  C9_14 
REMARK    7  A    between atoms: C10_17  and  N4_18 
ROOT
HETATM    1  N2  UNL     1      30.339  -7.839  -0.232  1.00  0.00    -0.305 N 
ATOM      2  H2  UNL     1      30.975  -8.230  -0.927  1.00  0.00     0.171 HD
HETATM    3  C7  UNL     1      30.345  -8.278   1.107  1.00  0.00     0.233 C 
HETATM    4  O1  UNL     1      29.409  -9.060   1.469  1.00  0.00    -0.272 OA
ENDROOT
BRANCH   3   5
HETATM    5  C8  UNL     1      31.356  -7.890   2.097  1.00  0.00     0.185 C 
BRANCH   5   6
HETATM    6  S1  UNL     1      30.629  -6.858   3.366  1.00  0.00    -0.083 SA
BRANCH   6   7
HETATM    7  C9  UNL     1      29.973  -5.366   2.640  1.00  0.00     0.174 A 
HETATM    8  N3  UNL     1      28.726  -4.901   2.790  1.00  0.00    -0.168 N 
HETATM    9  C10 UNL     1      28.575  -3.761   2.117  1.00  0.00     0.692 A 
ATOM     10  H3  UNL     1      27.996  -5.354   3.340  1.00  0.00     0.186 HD
HETATM   11  N5  UNL     1      29.763  -3.513   1.533  1.00  0.00    -0.130 N 
HETATM   12  N6  UNL     1      30.605  -4.477   1.848  1.00  0.00    -0.265 N 
ATOM     13  H5  UNL     1      29.977  -2.709   0.944  1.00  0.00     0.205 HD
ATOM     14  H6  UNL     1      31.575  -4.541   1.541  1.00  0.00     0.189 HD
BRANCH   9  15
HETATM   15  N4  UNL     1      27.517  -3.034   2.041  1.00  0.00    -0.233 N 
ATOM     16  H42 UNL     1      26.557  -3.365   1.953  1.00  0.00     0.174 HD
ATOM     17  H41 UNL     1      27.464  -2.015   2.049  1.00  0.00     0.174 HD
ENDBRANCH   9  15
ENDBRANCH   6   7
ENDBRANCH   5   6
ENDBRANCH   3   5
BRANCH   1  18
HETATM   18  C6  UNL     1      29.488  -6.919  -0.534  1.00  0.00     0.174 A 
HETATM   19  C5  UNL     1      28.111  -6.965  -0.518  1.00  0.00     0.087 A 
HETATM   20  C4  UNL     1      27.660  -5.727  -0.923  1.00  0.00     0.065 A 
HETATM   21  N7  UNL     1      28.767  -5.007  -1.158  1.00  0.00    -0.262 N 
HETATM   22  O2  UNL     1      29.822  -5.715  -0.929  1.00  0.00    -0.220 OA
ATOM     23  H7  UNL     1      28.774  -4.038  -1.474  1.00  0.00     0.194 HD
BRANCH  20  24
HETATM   24  C3  UNL     1      26.277  -5.223  -1.076  1.00  0.00     0.330 C 
BRANCH  24  25
HETATM   25  N1  UNL     1      25.450  -6.255  -1.607  1.00  0.00     0.085 N 
HETATM   26  C1  UNL     1      25.551  -6.485  -3.011  1.00  0.00     0.309 C 
HETATM   27  C2  UNL     1      24.074  -6.154  -1.146  1.00  0.00     0.309 C 
ENDBRANCH  24  25
ENDBRANCH  20  24
ENDBRANCH   1  18
TORSDOF 7
ENDMDL
MODEL 5
REMARK VINA RESULT: -5.675006608      2.679      4.666
REMARK  7 active torsions:
REMARK  status: ('A' for Active; 'I' for Inactive)
REMARK    1  A    between atoms: N1_2  and  C3_4 
REMARK    2  A    between atoms: C3_4  and  C4_5 
REMARK    3  A    between atoms: C6_7  and  N2_8 
REMARK       I    between atoms: N2_8  and  C7_10 
REMARK    4  A    between atoms: C7_10  and  C8_12 
REMARK    5  A    between atoms: C8_12  and  S1_13 
REMARK    6  A    between atoms: S1_13  and  C9_14 
REMARK    7  A    between atoms: C10_17  and  N4_18 
ROOT
HETATM    1  N2  UNL     1      29.066  -5.724   3.240  1.00  0.00    -0.305 N 
ATOM      2  H2  UNL     1      28.836  -6.023   4.188  1.00  0.00     0.171 HD
HETATM    3  C7  UNL     1      30.381  -5.798   2.740  1.00  0.00     0.233 C 
HETATM    4  O1  UNL     1      31.041  -4.712   2.671  1.00  0.00    -0.272 OA
ENDROOT
BRANCH   3   5
HETATM    5  C8  UNL     1      31.027  -7.039   2.297  1.00  0.00     0.185 C 
BRANCH   5   6
HETATM    6  S1  UNL     1      31.470  -6.935   0.566  1.00  0.00    -0.083 SA
BRANCH   6   7
HETATM    7  C9  UNL     1      33.040  -6.107   0.384  1.00  0.00     0.174 A 
HETATM    8  N3  UNL     1      33.688  -5.893  -0.768  1.00  0.00    -0.168 N 
HETATM    9  C10 UNL     1      34.828  -5.242  -0.542  1.00  0.00     0.692 A 
ATOM     10  H3  UNL     1      33.357  -6.187  -1.687  1.00  0.00     0.186 HD
HETATM   11  N5  UNL     1      34.887  -5.046   0.788  1.00  0.00    -0.130 N 
HETATM   12  N6  UNL     1      33.812  -5.566   1.347  1.00  0.00    -0.265 N 
ATOM     13  H5  UNL     1      35.642  -4.573   1.284  1.00  0.00     0.205 HD
ATOM     14  H6  UNL     1      33.600  -5.559   2.345  1.00  0.00     0.189 HD
BRANCH   9  15
HETATM   15  N4  UNL     1      35.696  -4.864  -1.412  1.00  0.00    -0.233 N 
ATOM     16  H42 UNL     1      36.698  -5.055  -1.393  1.00  0.00     0.174 HD
ATOM     17  H41 UNL     1      35.530  -4.311  -2.252  1.00  0.00     0.174 HD
ENDBRANCH   9  15
ENDBRANCH   6   7
ENDBRANCH   5   6
ENDBRANCH   3   5
BRANCH   1  18
HETATM   18  C6  UNL     1      28.169  -5.259   2.440  1.00  0.00     0.174 A 
HETATM   19  C5  UNL     1      28.007  -5.476   1.090  1.00  0.00     0.087 A 
HETATM   20  C4  UNL     1      26.899  -4.758   0.693  1.00  0.00     0.065 A 
HETATM   21  N7  UNL     1      26.454  -4.153   1.805  1.00  0.00    -0.262 N 
HETATM   22  O2  UNL     1      27.203  -4.454   2.812  1.00  0.00    -0.220 OA
ATOM     23  H7  UNL     1      25.639  -3.543   1.848  1.00  0.00     0.194 HD
BRANCH  20  24
HETATM   24  C3  UNL     1      26.270  -4.640  -0.642  1.00  0.00     0.330 C 
BRANCH  24  25
HETATM   25  N1  UNL     1      25.843  -5.926  -1.082  1.00  0.00     0.085 N 
HETATM   26  C1  UNL     1      26.459  -6.425  -2.268  1.00  0.00     0.309 C 
HETATM   27  C2  UNL     1      24.394  -6.052  -1.100  1.00  0.00     0.309 C 
ENDBRANCH  24  25
ENDBRANCH  20  24
ENDBRANCH   1  18
TORSDOF 7
ENDMDL
