MODEL 1
REMARK VINA RESULT: -6.830455539      0.000      0.000
REMARK  5 active torsions:
REMARK  status: ('A' for Active; 'I' for Inactive)
REMARK    1  A    between atoms: C3_3  and  C4_4 
REMARK    2  A    between atoms: N1_5  and  N2_7 
REMARK    3  A    between atoms: N6_16  and  C6_17 
REMARK    4  A    between atoms: C6_17  and  C7_18 
REMARK       I    between atoms: C7_18  and  N7_20 
REMARK    5  A    between atoms: N7_20  and  C8_22 
ROOT
HETATM    1  C1  UNL     1      27.692  -6.599  -3.220  1.00  0.00     0.072 C 
HETATM    2  C2  UNL     1      26.418  -7.180  -2.666  1.00  0.00     0.056 A 
HETATM    3  C3  UNL     1      25.971  -8.453  -2.804  1.00  0.00     0.090 A 
HETATM    4  N4  UNL     1      24.794  -8.483  -2.132  1.00  0.00    -0.283 N 
ATOM      5  H4  UNL     1      24.198  -9.305  -2.032  1.00  0.00     0.188 HD
HETATM    6  N5  UNL     1      24.537  -7.318  -1.638  1.00  0.00    -0.239 N 
ATOM      7  H5  UNL     1      23.706  -7.077  -1.098  1.00  0.00     0.208 HD
HETATM    8  N6  UNL     1      25.513  -6.491  -1.939  1.00  0.00    -0.271 N 
ENDROOT
BRANCH   8   9
HETATM    9  C6  UNL     1      25.604  -5.098  -1.637  1.00  0.00     0.253 C 
BRANCH   9  10
HETATM   10  C7  UNL     1      26.351  -4.860  -0.374  1.00  0.00     0.255 C 
HETATM   11  O1  UNL     1      25.629  -4.717   0.660  1.00  0.00    -0.271 OA
HETATM   12  N7  UNL     1      27.741  -4.825  -0.419  1.00  0.00    -0.157 N 
ATOM     13  H7  UNL     1      28.173  -4.730  -1.337  1.00  0.00     0.187 HD
BRANCH  12  14
HETATM   14  C8  UNL     1      28.539  -4.904   0.603  1.00  0.00     0.700 A 
HETATM   15  N8  UNL     1      28.329  -5.710   1.693  1.00  0.00    -0.185 N 
HETATM   16  C9  UNL     1      29.387  -5.530   2.549  1.00  0.00     0.215 A 
ATOM     17  H8  UNL     1      27.533  -6.329   1.841  1.00  0.00     0.185 HD
HETATM   18  N9  UNL     1      30.232  -4.625   1.976  1.00  0.00    -0.281 N 
HETATM   19  N10 UNL     1      29.681  -4.303   0.846  1.00  0.00    -0.131 N 
ATOM     20  H9  UNL     1      31.112  -4.276   2.356  1.00  0.00     0.188 HD
ATOM     21  H10 UNL     1      30.101  -3.635   0.200  1.00  0.00     0.205 HD
ENDBRANCH  12  14
ENDBRANCH   9  10
ENDBRANCH   8   9
BRANCH   3  22
HETATM   22  C4  UNL     1      26.559  -9.544  -3.561  1.00  0.00     0.140 C 
HETATM   23  N1  UNL     1      27.335 -10.465  -3.154  1.00  0.00    -0.308 N 
ATOM     24  H1  UNL     1      27.640 -10.525  -2.183  1.00  0.00     0.186 HD
BRANCH  23  25
HETATM   25  N2  UNL     1      27.754 -11.416  -4.142  1.00  0.00    -0.279 N 
HETATM   26  C5  UNL     1      28.016 -12.695  -3.999  1.00  0.00     0.199 C 
HETATM   27  N3  UNL     1      27.948 -13.621  -2.949  1.00  0.00    -0.068 NA
HETATM   28  S1  UNL     1      28.660 -13.478  -5.401  1.00  0.00    -0.043 SA
ATOM     29  H2  UNL     1      27.865 -11.047  -5.087  1.00  0.00     0.189 HD
ENDBRANCH  23  25
ENDBRANCH   3  22
TORSDOF 5
ENDMDL
MODEL 2
REMARK VINA RESULT: -6.818426863      4.790      7.113
REMARK  5 active torsions:
REMARK  status: ('A' for Active; 'I' for Inactive)
REMARK    1  A    between atoms: C3_3  and  C4_4 
REMARK    2  A    between atoms: N1_5  and  N2_7 
REMARK    3  A    between atoms: N6_16  and  C6_17 
REMARK    4  A    between atoms: C6_17  and  C7_18 
REMARK       I    between atoms: C7_18  and  N7_20 
REMARK    5  A    between atoms: N7_20  and  C8_22 
ROOT
HETATM    1  C1  UNL     1      29.589  -7.685   0.512  1.00  0.00     0.072 C 
HETATM    2  C2  UNL     1      29.836  -6.272   0.969  1.00  0.00     0.056 A 
HETATM    3  C3  UNL     1      28.965  -5.234   0.923  1.00  0.00     0.090 A 
HETATM    4  N4  UNL     1      29.648  -4.185   1.447  1.00  0.00    -0.283 N 
ATOM      5  H4  UNL     1      29.272  -3.244   1.566  1.00  0.00     0.188 HD
HETATM    6  N5  UNL     1      30.842  -4.552   1.771  1.00  0.00    -0.239 N 
ATOM      7  H5  UNL     1      31.556  -3.945   2.175  1.00  0.00     0.208 HD
HETATM    8  N6  UNL     1      30.996  -5.829   1.498  1.00  0.00    -0.271 N 
ENDROOT
BRANCH   8   9
HETATM    9  C6  UNL     1      32.176  -6.620   1.649  1.00  0.00     0.253 C 
BRANCH   9  10
HETATM   10  C7  UNL     1      33.395  -5.866   1.254  1.00  0.00     0.255 C 
HETATM   11  O1  UNL     1      34.026  -5.324   2.212  1.00  0.00    -0.271 OA
HETATM   12  N7  UNL     1      33.745  -5.824  -0.092  1.00  0.00    -0.157 N 
ATOM     13  H7  UNL     1      33.033  -6.108  -0.765  1.00  0.00     0.187 HD
BRANCH  12  14
HETATM   14  C8  UNL     1      34.896  -5.457  -0.569  1.00  0.00     0.700 A 
HETATM   15  N8  UNL     1      35.128  -5.149  -1.885  1.00  0.00    -0.185 N 
HETATM   16  C9  UNL     1      36.449  -4.795  -1.999  1.00  0.00     0.215 A 
ATOM     17  H8  UNL     1      34.445  -5.177  -2.642  1.00  0.00     0.185 HD
HETATM   18  N9  UNL     1      37.009  -4.884  -0.758  1.00  0.00    -0.281 N 
HETATM   19  N10 UNL     1      36.051  -5.272   0.027  1.00  0.00    -0.131 N 
ATOM     20  H9  UNL     1      37.976  -4.686  -0.502  1.00  0.00     0.188 HD
ATOM     21  H10 UNL     1      36.185  -5.422   1.027  1.00  0.00     0.205 HD
ENDBRANCH  12  14
ENDBRANCH   9  10
ENDBRANCH   8   9
BRANCH   3  22
HETATM   22  C4  UNL     1      27.622  -5.199   0.373  1.00  0.00     0.140 C 
HETATM   23  N1  UNL     1      27.245  -4.816  -0.778  1.00  0.00    -0.308 N 
ATOM     24  H1  UNL     1      27.904  -4.469  -1.475  1.00  0.00     0.186 HD
BRANCH  23  25
HETATM   25  N2  UNL     1      25.838  -4.901  -1.040  1.00  0.00    -0.279 N 
HETATM   26  C5  UNL     1      25.110  -5.962  -1.309  1.00  0.00     0.199 C 
HETATM   27  N3  UNL     1      25.340  -7.342  -1.387  1.00  0.00    -0.068 NA
HETATM   28  S1  UNL     1      23.464  -5.639  -1.733  1.00  0.00    -0.043 SA
ATOM     29  H2  UNL     1      25.332  -4.016  -1.015  1.00  0.00     0.189 HD
ENDBRANCH  23  25
ENDBRANCH   3  22
TORSDOF 5
ENDMDL
MODEL 3
REMARK VINA RESULT: -6.528993512      4.996      7.407
REMARK  5 active torsions:
REMARK  status: ('A' for Active; 'I' for Inactive)
REMARK    1  A    between atoms: C3_3  and  C4_4 
REMARK    2  A    between atoms: N1_5  and  N2_7 
REMARK    3  A    between atoms: N6_16  and  C6_17 
REMARK    4  A    between atoms: C6_17  and  C7_18 
REMARK       I    between atoms: C7_18  and  N7_20 
REMARK    5  A    between atoms: N7_20  and  C8_22 
ROOT
HETATM    1  C1  UNL     1      32.262  -7.576   0.204  1.00  0.00     0.072 C 
HETATM    2  C2  UNL     1      33.032  -6.461   0.859  1.00  0.00     0.056 A 
HETATM    3  C3  UNL     1      34.225  -5.949   0.465  1.00  0.00     0.090 A 
HETATM    4  N4  UNL     1      34.499  -4.973   1.366  1.00  0.00    -0.283 N 
ATOM      5  H4  UNL     1      35.328  -4.379   1.351  1.00  0.00     0.188 HD
HETATM    6  N5  UNL     1      33.556  -4.905   2.245  1.00  0.00    -0.239 N 
ATOM      7  H5  UNL     1      33.531  -4.259   3.034  1.00  0.00     0.208 HD
HETATM    8  N6  UNL     1      32.633  -5.799   1.966  1.00  0.00    -0.271 N 
ENDROOT
BRANCH   8   9
HETATM    9  C6  UNL     1      31.451  -6.098   2.709  1.00  0.00     0.253 C 
BRANCH   9  10
HETATM   10  C7  UNL     1      30.273  -5.358   2.185  1.00  0.00     0.255 C 
HETATM   11  O1  UNL     1      30.326  -4.098   2.318  1.00  0.00    -0.271 OA
HETATM   12  N7  UNL     1      29.240  -6.082   1.596  1.00  0.00    -0.157 N 
ATOM     13  H7  UNL     1      29.228  -7.088   1.760  1.00  0.00     0.187 HD
BRANCH  12  14
HETATM   14  C8  UNL     1      28.291  -5.592   0.857  1.00  0.00     0.700 A 
HETATM   15  N8  UNL     1      27.760  -6.218  -0.241  1.00  0.00    -0.185 N 
HETATM   16  C9  UNL     1      26.779  -5.403  -0.746  1.00  0.00     0.215 A 
ATOM     17  H8  UNL     1      28.043  -7.124  -0.615  1.00  0.00     0.185 HD
HETATM   18  N9  UNL     1      26.713  -4.295   0.046  1.00  0.00    -0.281 N 
HETATM   19  N10 UNL     1      27.619  -4.469   0.960  1.00  0.00    -0.131 N 
ATOM     20  H9  UNL     1      26.086  -3.498  -0.058  1.00  0.00     0.188 HD
ATOM     21  H10 UNL     1      27.793  -3.788   1.698  1.00  0.00     0.205 HD
ENDBRANCH  12  14
ENDBRANCH   9  10
ENDBRANCH   8   9
BRANCH   3  22
HETATM   22  C4  UNL     1      35.082  -6.380  -0.626  1.00  0.00     0.140 C 
HETATM   23  N1  UNL     1      35.005  -6.086  -1.859  1.00  0.00    -0.308 N 
ATOM     24  H1  UNL     1      34.275  -5.474  -2.224  1.00  0.00     0.186 HD
BRANCH  23  25
HETATM   25  N2  UNL     1      36.005  -6.665  -2.708  1.00  0.00    -0.279 N 
HETATM   26  C5  UNL     1      36.114  -7.904  -3.131  1.00  0.00     0.199 C 
HETATM   27  N3  UNL     1      35.351  -9.074  -3.013  1.00  0.00    -0.068 NA
HETATM   28  S1  UNL     1      37.559  -8.260  -4.011  1.00  0.00    -0.043 SA
ATOM     29  H2  UNL     1      36.734  -6.026  -3.027  1.00  0.00     0.189 HD
ENDBRANCH  23  25
ENDBRANCH   3  22
TORSDOF 5
ENDMDL
MODEL 4
REMARK VINA RESULT: -6.433327844      4.341      6.833
REMARK  5 active torsions:
REMARK  status: ('A' for Active; 'I' for Inactive)
REMARK    1  A    between atoms: C3_3  and  C4_4 
REMARK    2  A    between atoms: N1_5  and  N2_7 
REMARK    3  A    between atoms: N6_16  and  C6_17 
REMARK    4  A    between atoms: C6_17  and  C7_18 
REMARK       I    between atoms: C7_18  and  N7_20 
REMARK    5  A    between atoms: N7_20  and  C8_22 
ROOT
HETATM    1  C1  UNL     1      30.153  -7.551   0.057  1.00  0.00     0.072 C 
HETATM    2  C2  UNL     1      30.079  -6.123   0.526  1.00  0.00     0.056 A 
HETATM    3  C3  UNL     1      30.053  -5.684   1.809  1.00  0.00     0.090 A 
HETATM    4  N4  UNL     1      29.988  -4.333   1.713  1.00  0.00    -0.283 N 
ATOM      5  H4  UNL     1      29.963  -3.690   2.505  1.00  0.00     0.188 HD
HETATM    6  N5  UNL     1      29.961  -3.979   0.472  1.00  0.00    -0.239 N 
ATOM      7  H5  UNL     1      29.902  -3.018   0.134  1.00  0.00     0.208 HD
HETATM    8  N6  UNL     1      30.021  -5.049  -0.289  1.00  0.00    -0.271 N 
ENDROOT
BRANCH   8   9
HETATM    9  C6  UNL     1      29.963  -5.113  -1.715  1.00  0.00     0.253 C 
BRANCH   9  10
HETATM   10  C7  UNL     1      28.616  -5.528  -2.190  1.00  0.00     0.255 C 
HETATM   11  O1  UNL     1      28.608  -6.203  -3.263  1.00  0.00    -0.271 OA
HETATM   12  N7  UNL     1      27.505  -5.164  -1.436  1.00  0.00    -0.157 N 
ATOM     13  H7  UNL     1      27.639  -4.440  -0.731  1.00  0.00     0.187 HD
BRANCH  12  14
HETATM   14  C8  UNL     1      26.311  -5.663  -1.549  1.00  0.00     0.700 A 
HETATM   15  N8  UNL     1      25.258  -5.355  -0.725  1.00  0.00    -0.185 N 
HETATM   16  C9  UNL     1      24.169  -6.064  -1.165  1.00  0.00     0.215 A 
ATOM     17  H8  UNL     1      25.281  -4.717   0.069  1.00  0.00     0.185 HD
HETATM   18  N9  UNL     1      24.560  -6.791  -2.251  1.00  0.00    -0.281 N 
HETATM   19  N10 UNL     1      25.816  -6.511  -2.422  1.00  0.00    -0.131 N 
ATOM     20  H9  UNL     1      23.986  -7.421  -2.811  1.00  0.00     0.188 HD
ATOM     21  H10 UNL     1      26.373  -6.917  -3.173  1.00  0.00     0.205 HD
ENDBRANCH  12  14
ENDBRANCH   9  10
ENDBRANCH   8   9
BRANCH   3  22
HETATM   22  C4  UNL     1      30.023  -6.463   3.035  1.00  0.00     0.140 C 
HETATM   23  N1  UNL     1      29.016  -6.841   3.711  1.00  0.00    -0.308 N 
ATOM     24  H1  UNL     1      28.062  -6.612   3.433  1.00  0.00     0.186 HD
BRANCH  23  25
HETATM   25  N2  UNL     1      29.301  -7.609   4.887  1.00  0.00    -0.279 N 
HETATM   26  C5  UNL     1      29.123  -8.893   5.099  1.00  0.00     0.199 C 
HETATM   27  N3  UNL     1      28.685  -9.984   4.336  1.00  0.00    -0.068 NA
HETATM   28  S1  UNL     1      29.434  -9.425   6.715  1.00  0.00    -0.043 SA
ATOM     29  H2  UNL     1      29.697  -7.085   5.668  1.00  0.00     0.189 HD
ENDBRANCH  23  25
ENDBRANCH   3  22
TORSDOF 5
ENDMDL
MODEL 5
REMARK VINA RESULT: -6.398325930      4.027      6.746
REMARK  5 active torsions:
REMARK  status: ('A' for Active; 'I' for Inactive)
REMARK    1  A    between atoms: C3_3  and  C4_4 
REMARK    2  A    between atoms: N1_5  and  N2_7 
REMARK    3  A    between atoms: N6_16  and  C6_17 
REMARK    4  A    between atoms: C6_17  and  C7_18 
REMARK       I    between atoms: C7_18  and  N7_20 
REMARK    5  A    between atoms: N7_20  and  C8_22 
ROOT
HETATM    1  C1  UNL     1      28.580  -6.512  -3.159  1.00  0.00     0.072 C 
HETATM    2  C2  UNL     1      28.512  -6.404  -1.659  1.00  0.00     0.056 A 
HETATM    3  C3  UNL     1      29.491  -5.975  -0.824  1.00  0.00     0.090 A 
HETATM    4  N4  UNL     1      28.951  -6.059   0.417  1.00  0.00    -0.283 N 
ATOM      5  H4  UNL     1      29.428  -5.799   1.281  1.00  0.00     0.188 HD
HETATM    6  N5  UNL     1      27.746  -6.516   0.345  1.00  0.00    -0.239 N 
ATOM      7  H5  UNL     1      27.130  -6.682   1.141  1.00  0.00     0.208 HD
HETATM    8  N6  UNL     1      27.436  -6.736  -0.913  1.00  0.00    -0.271 N 
ENDROOT
BRANCH   8   9
HETATM    9  C6  UNL     1      26.227  -7.290  -1.434  1.00  0.00     0.253 C 
BRANCH   9  10
HETATM   10  C7  UNL     1      25.089  -6.342  -1.302  1.00  0.00     0.255 C 
HETATM   11  O1  UNL     1      25.408  -5.164  -0.956  1.00  0.00    -0.271 OA
HETATM   12  N7  UNL     1      23.804  -6.802  -1.573  1.00  0.00    -0.157 N 
ATOM     13  H7  UNL     1      23.674  -7.813  -1.618  1.00  0.00     0.187 HD
BRANCH  12  14
HETATM   14  C8  UNL     1      22.756  -6.063  -1.773  1.00  0.00     0.700 A 
HETATM   15  N8  UNL     1      22.767  -4.860  -2.432  1.00  0.00    -0.185 N 
HETATM   16  C9  UNL     1      21.479  -4.389  -2.455  1.00  0.00     0.215 A 
ATOM     17  H8  UNL     1      23.585  -4.399  -2.832  1.00  0.00     0.185 HD
HETATM   18  N9  UNL     1      20.693  -5.305  -1.818  1.00  0.00    -0.281 N 
HETATM   19  N10 UNL     1      21.498  -6.254  -1.448  1.00  0.00    -0.131 N 
ATOM     20  H9  UNL     1      19.686  -5.255  -1.666  1.00  0.00     0.188 HD
ATOM     21  H10 UNL     1      21.179  -7.081  -0.944  1.00  0.00     0.205 HD
ENDBRANCH  12  14
ENDBRANCH   9  10
ENDBRANCH   8   9
BRANCH   3  22
HETATM   22  C4  UNL     1      30.851  -5.580  -1.148  1.00  0.00     0.140 C 
HETATM   23  N1  UNL     1      31.925  -5.851  -0.526  1.00  0.00    -0.308 N 
ATOM     24  H1  UNL     1      31.931  -6.413   0.324  1.00  0.00     0.186 HD
BRANCH  23  25
HETATM   25  N2  UNL     1      33.130  -5.319  -1.093  1.00  0.00    -0.279 N 
HETATM   26  C5  UNL     1      34.292  -5.908  -1.265  1.00  0.00     0.199 C 
HETATM   27  N3  UNL     1      34.804  -7.196  -1.058  1.00  0.00    -0.068 NA
HETATM   28  S1  UNL     1      35.563  -4.881  -1.833  1.00  0.00    -0.043 SA
ATOM     29  H2  UNL     1      33.078  -4.349  -1.405  1.00  0.00     0.189 HD
ENDBRANCH  23  25
ENDBRANCH   3  22
TORSDOF 5
ENDMDL
