MODEL 1
REMARK VINA RESULT: -7.065316691      0.000      0.000
REMARK  13 active torsions:
REMARK  status: ('A' for Active; 'I' for Inactive)
REMARK    1  A    between atoms: C2_2  and  O2_4 
REMARK    2  A    between atoms: O2_4  and  C3_5 
REMARK    3  A    between atoms: C4_6  and  N1_7 
REMARK    4  A    between atoms: C6_14  and  N3_15 
REMARK    5  A    between atoms: N3_15  and  C7_17 
REMARK    6  A    between atoms: C7_17  and  O3_18 
REMARK    7  A    between atoms: N5_22  and  C8_23 
REMARK    8  A    between atoms: C9_24  and  C10_25 
REMARK    9  A    between atoms: C10_25  and  O4_26 
REMARK   10  A    between atoms: O4_26  and  N6_27 
REMARK   11  A    between atoms: N6_27  and  N7_28 
REMARK   12  A    between atoms: N7_28  and  C11_30 
REMARK   13  A    between atoms: C14_39  and  N11_40 
ROOT
HETATM    1  O4  UNL     1      24.264  17.086   3.763  1.00  0.00    -0.187 OA
ENDROOT
BRANCH   1   2
HETATM    2  C10 UNL     1      24.657  16.343   4.959  1.00  0.00     0.248 C 
BRANCH   2   3
HETATM    3  C9  UNL     1      25.994  17.151   5.132  1.00  0.00     0.016 C 
HETATM    4  C8  UNL     1      26.193  17.842   6.322  1.00  0.00     0.084 C 
BRANCH   4   5
HETATM    5  N5  UNL     1      27.551  18.370   6.281  1.00  0.00    -0.161 NA
HETATM    6  C3  UNL     1      27.826  19.066   7.500  1.00  0.00     0.262 C 
HETATM    7  C4  UNL     1      27.697  18.077   8.695  1.00  0.00     0.247 C 
HETATM    8  C5  UNL     1      29.177  17.844   9.175  1.00  0.00     0.175 C 
HETATM    9  N2  UNL     1      29.806  17.079   8.095  1.00  0.00    -0.223 N 
HETATM   10  C6  UNL     1      29.550  16.853   6.866  1.00  0.00     0.690 C 
ATOM     11  H2  UNL     1      30.659  16.612   8.403  1.00  0.00     0.177 HD
HETATM   12  N4  UNL     1      28.478  17.331   6.072  1.00  0.00    -0.146 N 
ATOM     13  H4  UNL     1      28.356  16.832   5.191  1.00  0.00     0.200 HD
BRANCH   6  14
HETATM   14  O2  UNL     1      26.764  20.025   7.712  1.00  0.00    -0.297 OA
BRANCH  14  15
HETATM   15  C2  UNL     1      27.107  21.335   7.258  1.00  0.00     0.256 C 
HETATM   16  C1  UNL     1      25.940  22.383   7.701  1.00  0.00     0.126 C 
HETATM   17  O1  UNL     1      28.015  21.703   6.671  1.00  0.00    -0.266 OA
ENDBRANCH  14  15
ENDBRANCH   6  14
BRANCH   7  18
HETATM   18  N1  UNL     1      26.814  18.561   9.671  1.00  0.00    -0.070 N 
ATOM     19  H13 UNL     1      26.711  19.574   9.612  1.00  0.00     0.275 HD
ATOM     20  H12 UNL     1      25.851  18.292   9.469  1.00  0.00     0.275 HD
ATOM     21  H11 UNL     1      27.094  18.268  10.608  1.00  0.00     0.275 HD
ENDBRANCH   7  18
BRANCH  10  22
HETATM   22  N3  UNL     1      30.507  16.040   6.281  1.00  0.00    -0.181 N 
ATOM     23  H3  UNL     1      30.862  15.247   6.816  1.00  0.00     0.185 HD
BRANCH  22  24
HETATM   24  C7  UNL     1      31.013  16.253   4.984  1.00  0.00     0.240 C 
BRANCH  24  25
HETATM   25  O3  UNL     1      29.980  15.999   4.037  1.00  0.00    -0.356 OA
ATOM     26  H3  UNL     1      30.270  15.320   3.439  1.00  0.00     0.218 HD
ENDBRANCH  24  25
ENDBRANCH  22  24
ENDBRANCH  10  22
ENDBRANCH   4   5
ENDBRANCH   2   3
ENDBRANCH   1   2
BRANCH   1  27
HETATM   27  N6  UNL     1      23.652  18.279   3.840  1.00  0.00    -0.187 NA
BRANCH  27  28
HETATM   28  N7  UNL     1      23.438  19.250   3.852  1.00  0.00    -0.205 N 
ATOM     29  H7  UNL     1      22.421  19.313   3.793  1.00  0.00     0.204 HD
BRANCH  28  30
HETATM   30  C11 UNL     1      23.911  20.595   3.913  1.00  0.00     0.114 A 
HETATM   31  C12 UNL     1      25.105  21.054   4.000  1.00  0.00     0.085 A 
HETATM   32  C13 UNL     1      25.438  22.490   3.968  1.00  0.00     0.116 A 
HETATM   33  N8  UNL     1      26.623  22.772   4.082  1.00  0.00    -0.384 N 
HETATM   34  N9  UNL     1      24.369  23.288   3.856  1.00  0.00    -0.263 N 
ATOM     35  H82 UNL     1      27.438  22.164   4.168  1.00  0.00     0.157 HD
ATOM     36  H81 UNL     1      26.853  23.766   4.060  1.00  0.00     0.157 HD
HETATM   37  N10 UNL     1      23.123  22.696   3.809  1.00  0.00    -0.065 N 
ATOM     38  H9  UNL     1      24.472  24.301   3.806  1.00  0.00     0.190 HD
HETATM   39  C14 UNL     1      22.117  23.679   4.199  1.00  0.00     0.713 A 
HETATM   40  C16 UNL     1      22.757  21.524   3.799  1.00  0.00     0.190 A 
HETATM   41  N12 UNL     1      20.898  23.049   4.453  1.00  0.00    -0.021 N 
HETATM   42  C15 UNL     1      20.549  21.848   4.439  1.00  0.00     0.692 A 
ATOM     43  H12 UNL     1      20.145  23.693   4.696  1.00  0.00     0.203 HD
HETATM   44  N13 UNL     1      19.429  21.347   5.032  1.00  0.00    -0.234 N 
HETATM   45  N14 UNL     1      21.573  20.963   4.061  1.00  0.00    -0.172 N 
ATOM     46 2H13 UNL     1      18.686  21.989   5.307  1.00  0.00     0.174 HD
ATOM     47 1H13 UNL     1      19.144  20.367   5.021  1.00  0.00     0.174 HD
ATOM     48  H14 UNL     1      21.422  19.957   3.991  1.00  0.00     0.186 HD
BRANCH  39  49
HETATM   49  N11 UNL     1      22.500  24.896   4.319  1.00  0.00    -0.232 N 
ATOM     50 2H11 UNL     1      22.869  25.568   3.647  1.00  0.00     0.174 HD
ATOM     51 1H11 UNL     1      22.372  25.339   5.229  1.00  0.00     0.174 HD
ENDBRANCH  39  49
ENDBRANCH  28  30
ENDBRANCH  27  28
ENDBRANCH   1  27
TORSDOF 13
ENDMDL
MODEL 2
REMARK VINA RESULT: -7.045344157      2.845      3.698
REMARK  13 active torsions:
REMARK  status: ('A' for Active; 'I' for Inactive)
REMARK    1  A    between atoms: C2_2  and  O2_4 
REMARK    2  A    between atoms: O2_4  and  C3_5 
REMARK    3  A    between atoms: C4_6  and  N1_7 
REMARK    4  A    between atoms: C6_14  and  N3_15 
REMARK    5  A    between atoms: N3_15  and  C7_17 
REMARK    6  A    between atoms: C7_17  and  O3_18 
REMARK    7  A    between atoms: N5_22  and  C8_23 
REMARK    8  A    between atoms: C9_24  and  C10_25 
REMARK    9  A    between atoms: C10_25  and  O4_26 
REMARK   10  A    between atoms: O4_26  and  N6_27 
REMARK   11  A    between atoms: N6_27  and  N7_28 
REMARK   12  A    between atoms: N7_28  and  C11_30 
REMARK   13  A    between atoms: C14_39  and  N11_40 
ROOT
HETATM    1  O4  UNL     1      25.916  15.323   7.162  1.00  0.00    -0.187 OA
ENDROOT
BRANCH   1   2
HETATM    2  C10 UNL     1      26.524  16.072   8.261  1.00  0.00     0.248 C 
BRANCH   2   3
HETATM    3  C9  UNL     1      27.408  16.943   7.298  1.00  0.00     0.016 C 
HETATM    4  C8  UNL     1      27.803  18.204   7.732  1.00  0.00     0.084 C 
BRANCH   4   5
HETATM    5  N5  UNL     1      28.722  18.727   6.728  1.00  0.00    -0.161 NA
HETATM    6  C3  UNL     1      29.421  19.854   7.267  1.00  0.00     0.262 C 
HETATM    7  C4  UNL     1      30.232  19.403   8.518  1.00  0.00     0.247 C 
HETATM    8  C5  UNL     1      31.732  19.433   8.046  1.00  0.00     0.175 C 
HETATM    9  N2  UNL     1      31.846  18.333   7.085  1.00  0.00    -0.223 N 
HETATM   10  C6  UNL     1      31.032  17.637   6.391  1.00  0.00     0.690 C 
ATOM     11  H2  UNL     1      32.815  18.056   6.932  1.00  0.00     0.177 HD
HETATM   12  N4  UNL     1      29.620  17.726   6.312  1.00  0.00    -0.146 N 
ATOM     13  H4  UNL     1      29.174  16.920   5.875  1.00  0.00     0.200 HD
BRANCH   6  14
HETATM   14  O2  UNL     1      28.439  20.777   7.790  1.00  0.00    -0.297 OA
BRANCH  14  15
HETATM   15  C2  UNL     1      28.416  22.016   7.081  1.00  0.00     0.256 C 
HETATM   16  C1  UNL     1      29.633  22.964   7.610  1.00  0.00     0.126 C 
HETATM   17  O1  UNL     1      27.711  22.391   6.266  1.00  0.00    -0.266 OA
ENDBRANCH  14  15
ENDBRANCH   6  14
BRANCH   7  18
HETATM   18  N1  UNL     1      29.933  20.193   9.637  1.00  0.00    -0.070 N 
ATOM     19  H13 UNL     1      29.338  20.983   9.389  1.00  0.00     0.275 HD
ATOM     20  H12 UNL     1      29.299  19.711  10.275  1.00  0.00     0.275 HD
ATOM     21  H11 UNL     1      30.781  20.500  10.115  1.00  0.00     0.275 HD
ENDBRANCH   7  18
BRANCH  10  22
HETATM   22  N3  UNL     1      31.689  16.698   5.613  1.00  0.00    -0.181 N 
ATOM     23  H3  UNL     1      32.655  16.468   5.844  1.00  0.00     0.185 HD
BRANCH  22  24
HETATM   24  C7  UNL     1      31.089  16.047   4.518  1.00  0.00     0.240 C 
BRANCH  24  25
HETATM   25  O3  UNL     1      32.085  15.305   3.820  1.00  0.00    -0.356 OA
ATOM     26  H3  UNL     1      32.897  15.797   3.825  1.00  0.00     0.218 HD
ENDBRANCH  24  25
ENDBRANCH  22  24
ENDBRANCH  10  22
ENDBRANCH   4   5
ENDBRANCH   2   3
ENDBRANCH   1   2
BRANCH   1  27
HETATM   27  N6  UNL     1      25.331  15.940   6.123  1.00  0.00    -0.187 NA
BRANCH  27  28
HETATM   28  N7  UNL     1      25.141  16.453   5.293  1.00  0.00    -0.205 N 
ATOM     29  H7  UNL     1      24.127  16.429   5.174  1.00  0.00     0.204 HD
BRANCH  28  30
HETATM   30  C11 UNL     1      25.647  17.208   4.193  1.00  0.00     0.114 A 
HETATM   31  C12 UNL     1      26.261  16.827   3.134  1.00  0.00     0.085 A 
HETATM   32  C13 UNL     1      26.650  17.734   2.039  1.00  0.00     0.116 A 
HETATM   33  N8  UNL     1      27.250  17.224   1.102  1.00  0.00    -0.384 N 
HETATM   34  N9  UNL     1      26.316  19.013   2.254  1.00  0.00    -0.263 N 
ATOM     35  H82 UNL     1      27.504  16.249   0.938  1.00  0.00     0.157 HD
ATOM     36  H81 UNL     1      27.519  17.851   0.344  1.00  0.00     0.157 HD
HETATM   37  N10 UNL     1      25.692  19.325   3.444  1.00  0.00    -0.065 N 
ATOM     38  H9  UNL     1      26.517  19.732   1.560  1.00  0.00     0.190 HD
HETATM   39  C14 UNL     1      25.874  20.748   3.715  1.00  0.00     0.713 A 
HETATM   40  C16 UNL     1      25.307  18.641   4.388  1.00  0.00     0.190 A 
HETATM   41  N12 UNL     1      25.523  21.039   5.034  1.00  0.00    -0.021 N 
HETATM   42  C15 UNL     1      25.136  20.321   5.982  1.00  0.00     0.692 A 
ATOM     43  H12 UNL     1      25.597  22.029   5.270  1.00  0.00     0.203 HD
HETATM   44  N13 UNL     1      25.156  20.677   7.298  1.00  0.00    -0.234 N 
HETATM   45  N14 UNL     1      24.991  18.964   5.646  1.00  0.00    -0.172 N 
ATOM     46 2H13 UNL     1      25.262  21.661   7.542  1.00  0.00     0.174 HD
ATOM     47 1H13 UNL     1      24.840  20.091   8.071  1.00  0.00     0.174 HD
ATOM     48  H14 UNL     1      24.665  18.270   6.319  1.00  0.00     0.186 HD
BRANCH  39  49
HETATM   49  N11 UNL     1      26.374  21.466   2.778  1.00  0.00    -0.232 N 
ATOM     50 2H11 UNL     1      27.271  21.435   2.295  1.00  0.00     0.174 HD
ATOM     51 1H11 UNL     1      25.773  22.179   2.364  1.00  0.00     0.174 HD
ENDBRANCH  39  49
ENDBRANCH  28  30
ENDBRANCH  27  28
ENDBRANCH   1  27
TORSDOF 13
ENDMDL
MODEL 3
REMARK VINA RESULT: -6.938097449      1.805      8.497
REMARK  13 active torsions:
REMARK  status: ('A' for Active; 'I' for Inactive)
REMARK    1  A    between atoms: C2_2  and  O2_4 
REMARK    2  A    between atoms: O2_4  and  C3_5 
REMARK    3  A    between atoms: C4_6  and  N1_7 
REMARK    4  A    between atoms: C6_14  and  N3_15 
REMARK    5  A    between atoms: N3_15  and  C7_17 
REMARK    6  A    between atoms: C7_17  and  O3_18 
REMARK    7  A    between atoms: N5_22  and  C8_23 
REMARK    8  A    between atoms: C9_24  and  C10_25 
REMARK    9  A    between atoms: C10_25  and  O4_26 
REMARK   10  A    between atoms: O4_26  and  N6_27 
REMARK   11  A    between atoms: N6_27  and  N7_28 
REMARK   12  A    between atoms: N7_28  and  C11_30 
REMARK   13  A    between atoms: C14_39  and  N11_40 
ROOT
HETATM    1  O4  UNL     1      26.423  17.697   4.058  1.00  0.00    -0.187 OA
ENDROOT
BRANCH   1   2
HETATM    2  C10 UNL     1      25.731  18.428   2.999  1.00  0.00     0.248 C 
BRANCH   2   3
HETATM    3  C9  UNL     1      24.789  19.179   4.008  1.00  0.00     0.016 C 
HETATM    4  C8  UNL     1      24.323  20.441   3.655  1.00  0.00     0.084 C 
BRANCH   4   5
HETATM    5  N5  UNL     1      23.366  20.840   4.682  1.00  0.00    -0.161 NA
HETATM    6  C3  UNL     1      23.691  22.154   5.146  1.00  0.00     0.262 C 
HETATM    7  C4  UNL     1      23.609  23.153   3.955  1.00  0.00     0.247 C 
HETATM    8  C5  UNL     1      22.316  24.001   4.241  1.00  0.00     0.175 C 
HETATM    9  N2  UNL     1      21.204  23.067   4.050  1.00  0.00    -0.223 N 
HETATM   10  C6  UNL     1      21.071  21.799   4.014  1.00  0.00     0.690 C 
ATOM     11  H2  UNL     1      20.316  23.551   3.913  1.00  0.00     0.177 HD
HETATM   12  N4  UNL     1      22.052  20.791   4.178  1.00  0.00    -0.146 N 
ATOM     13  H4  UNL     1      21.754  19.864   3.878  1.00  0.00     0.200 HD
BRANCH   6  14
HETATM   14  O2  UNL     1      25.087  22.159   5.523  1.00  0.00    -0.297 OA
BRANCH  14  15
HETATM   15  C2  UNL     1      25.294  21.745   6.874  1.00  0.00     0.256 C 
HETATM   16  C1  UNL     1      25.452  23.061   7.825  1.00  0.00     0.126 C 
HETATM   17  O1  UNL     1      25.360  20.700   7.328  1.00  0.00    -0.266 OA
ENDBRANCH  14  15
ENDBRANCH   6  14
BRANCH   7  18
HETATM   18  N1  UNL     1      24.796  23.886   3.815  1.00  0.00    -0.070 N 
ATOM     19  H13 UNL     1      25.506  23.577   4.479  1.00  0.00     0.275 HD
ATOM     20  H12 UNL     1      25.278  23.654   2.947  1.00  0.00     0.275 HD
ATOM     21  H11 UNL     1      24.626  24.890   3.891  1.00  0.00     0.275 HD
ENDBRANCH   7  18
BRANCH  10  22
HETATM   22  N3  UNL     1      19.754  21.424   3.805  1.00  0.00    -0.181 N 
ATOM     23  H3  UNL     1      19.464  21.178   2.858  1.00  0.00     0.185 HD
BRANCH  22  24
HETATM   24  C7  UNL     1      18.795  21.365   4.835  1.00  0.00     0.240 C 
BRANCH  24  25
HETATM   25  O3  UNL     1      19.326  20.607   5.918  1.00  0.00    -0.356 OA
ATOM     26  H3  UNL     1      19.616  21.203   6.599  1.00  0.00     0.218 HD
ENDBRANCH  24  25
ENDBRANCH  22  24
ENDBRANCH  10  22
ENDBRANCH   4   5
ENDBRANCH   2   3
ENDBRANCH   1   2
BRANCH   1  27
HETATM   27  N6  UNL     1      26.891  18.314   5.155  1.00  0.00    -0.187 NA
BRANCH  27  28
HETATM   28  N7  UNL     1      27.422  18.594   5.948  1.00  0.00    -0.205 N 
ATOM     29  H7  UNL     1      27.590  19.594   5.835  1.00  0.00     0.204 HD
BRANCH  28  30
HETATM   30  C11 UNL     1      28.056  18.226   7.173  1.00  0.00     0.114 A 
HETATM   31  C12 UNL     1      27.921  18.700   8.355  1.00  0.00     0.085 A 
HETATM   32  C13 UNL     1      28.594  18.147   9.545  1.00  0.00     0.116 A 
HETATM   33  N8  UNL     1      28.380  18.724  10.603  1.00  0.00    -0.384 N 
HETATM   34  N9  UNL     1      29.384  17.100   9.278  1.00  0.00    -0.263 N 
ATOM     35  H82 UNL     1      27.778  19.522  10.807  1.00  0.00     0.157 HD
ATOM     36  H81 UNL     1      28.847  18.341  11.426  1.00  0.00     0.157 HD
HETATM   37  N10 UNL     1      29.491  16.690   7.965  1.00  0.00    -0.065 N 
ATOM     38  H9  UNL     1      29.890  16.620  10.022  1.00  0.00     0.190 HD
HETATM   39  C14 UNL     1      30.726  15.928   7.806  1.00  0.00     0.713 A 
HETATM   40  C16 UNL     1      28.952  17.066   6.928  1.00  0.00     0.190 A 
HETATM   41  N12 UNL     1      31.019  15.755   6.453  1.00  0.00    -0.021 N 
HETATM   42  C15 UNL     1      30.454  16.153   5.410  1.00  0.00     0.692 A 
ATOM     43  H12 UNL     1      31.854  15.196   6.281  1.00  0.00     0.203 HD
HETATM   44  N13 UNL     1      31.027  16.202   4.174  1.00  0.00    -0.234 N 
HETATM   45  N14 UNL     1      29.277  16.884   5.644  1.00  0.00    -0.172 N 
ATOM     46 2H13 UNL     1      31.881  15.671   4.004  1.00  0.00     0.174 HD
ATOM     47 1H13 UNL     1      30.566  16.526   3.324  1.00  0.00     0.174 HD
ATOM     48  H14 UNL     1      28.707  17.253   4.883  1.00  0.00     0.186 HD
BRANCH  39  49
HETATM   49  N11 UNL     1      31.364  15.613   8.873  1.00  0.00    -0.232 N 
ATOM     50 2H11 UNL     1      32.105  16.083   9.392  1.00  0.00     0.174 HD
ATOM     51 1H11 UNL     1      31.067  14.769   9.364  1.00  0.00     0.174 HD
ENDBRANCH  39  49
ENDBRANCH  28  30
ENDBRANCH  27  28
ENDBRANCH   1  27
TORSDOF 13
ENDMDL
MODEL 4
REMARK VINA RESULT: -6.886119146      2.492      7.200
REMARK  13 active torsions:
REMARK  status: ('A' for Active; 'I' for Inactive)
REMARK    1  A    between atoms: C2_2  and  O2_4 
REMARK    2  A    between atoms: O2_4  and  C3_5 
REMARK    3  A    between atoms: C4_6  and  N1_7 
REMARK    4  A    between atoms: C6_14  and  N3_15 
REMARK    5  A    between atoms: N3_15  and  C7_17 
REMARK    6  A    between atoms: C7_17  and  O3_18 
REMARK    7  A    between atoms: N5_22  and  C8_23 
REMARK    8  A    between atoms: C9_24  and  C10_25 
REMARK    9  A    between atoms: C10_25  and  O4_26 
REMARK   10  A    between atoms: O4_26  and  N6_27 
REMARK   11  A    between atoms: N6_27  and  N7_28 
REMARK   12  A    between atoms: N7_28  and  C11_30 
REMARK   13  A    between atoms: C14_39  and  N11_40 
ROOT
HETATM    1  O4  UNL     1      26.573  15.232   7.785  1.00  0.00    -0.187 OA
ENDROOT
BRANCH   1   2
HETATM    2  C10 UNL     1      25.579  15.289   6.715  1.00  0.00     0.248 C 
BRANCH   2   3
HETATM    3  C9  UNL     1      26.332  16.438   5.952  1.00  0.00     0.016 C 
HETATM    4  C8  UNL     1      25.658  17.636   5.738  1.00  0.00     0.084 C 
BRANCH   4   5
HETATM    5  N5  UNL     1      26.621  18.562   5.155  1.00  0.00    -0.161 NA
HETATM    6  C3  UNL     1      26.036  19.193   4.011  1.00  0.00     0.262 C 
HETATM    7  C4  UNL     1      24.769  19.983   4.453  1.00  0.00     0.247 C 
HETATM    8  C5  UNL     1      25.190  21.494   4.347  1.00  0.00     0.175 C 
HETATM    9  N2  UNL     1      26.169  21.687   5.419  1.00  0.00    -0.223 N 
HETATM   10  C6  UNL     1      26.903  20.928   6.135  1.00  0.00     0.690 C 
ATOM     11  H2  UNL     1      26.295  22.673   5.650  1.00  0.00     0.177 HD
HETATM   12  N4  UNL     1      27.027  19.517   6.107  1.00  0.00    -0.146 N 
ATOM     13  H4  UNL     1      27.494  19.121   6.922  1.00  0.00     0.200 HD
BRANCH   6  14
HETATM   14  O2  UNL     1      25.527  18.155   3.142  1.00  0.00    -0.297 OA
BRANCH  14  15
HETATM   15  C2  UNL     1      26.536  17.602   2.296  1.00  0.00     0.256 C 
HETATM   16  C1  UNL     1      26.324  15.990   2.184  1.00  0.00     0.126 C 
HETATM   17  O1  UNL     1      27.397  18.106   1.741  1.00  0.00    -0.266 OA
ENDBRANCH  14  15
ENDBRANCH   6  14
BRANCH   7  18
HETATM   18  N1  UNL     1      23.644  19.613   3.701  1.00  0.00    -0.070 N 
ATOM     19  H13 UNL     1      23.771  19.826   2.711  1.00  0.00     0.275 HD
ATOM     20  H12 UNL     1      23.557  18.600   3.635  1.00  0.00     0.275 HD
ATOM     21  H11 UNL     1      22.793  20.039   4.068  1.00  0.00     0.275 HD
ENDBRANCH   7  18
BRANCH  10  22
HETATM   22  N3  UNL     1      27.678  21.650   7.028  1.00  0.00    -0.181 N 
ATOM     23  H3  UNL     1      27.639  21.401   8.016  1.00  0.00     0.185 HD
BRANCH  22  24
HETATM   24  C7  UNL     1      28.517  22.712   6.638  1.00  0.00     0.240 C 
BRANCH  24  25
HETATM   25  O3  UNL     1      29.833  22.464   7.124  1.00  0.00    -0.356 OA
ATOM     26  H3  UNL     1      30.376  23.222   6.944  1.00  0.00     0.218 HD
ENDBRANCH  24  25
ENDBRANCH  22  24
ENDBRANCH  10  22
ENDBRANCH   4   5
ENDBRANCH   2   3
ENDBRANCH   1   2
BRANCH   1  27
HETATM   27  N6  UNL     1      26.775  16.263   8.620  1.00  0.00    -0.187 NA
BRANCH  27  28
HETATM   28  N7  UNL     1      27.171  16.970   9.197  1.00  0.00    -0.205 N 
ATOM     29  H7  UNL     1      26.901  16.736  10.153  1.00  0.00     0.204 HD
BRANCH  28  30
HETATM   30  C11 UNL     1      27.949  18.162   9.290  1.00  0.00     0.114 A 
HETATM   31  C12 UNL     1      27.743  19.241   9.950  1.00  0.00     0.085 A 
HETATM   32  C13 UNL     1      28.696  20.365  10.008  1.00  0.00     0.116 A 
HETATM   33  N8  UNL     1      28.347  21.337  10.665  1.00  0.00    -0.384 N 
HETATM   34  N9  UNL     1      29.807  20.165   9.288  1.00  0.00    -0.263 N 
ATOM     35  H82 UNL     1      27.500  21.489  11.213  1.00  0.00     0.157 HD
ATOM     36  H81 UNL     1      29.007  22.114  10.704  1.00  0.00     0.157 HD
HETATM   37  N10 UNL     1      29.916  18.985   8.582  1.00  0.00    -0.065 N 
ATOM     38  H9  UNL     1      30.550  20.864   9.263  1.00  0.00     0.190 HD
HETATM   39  C14 UNL     1      30.885  19.165   7.506  1.00  0.00     0.713 A 
HETATM   40  C16 UNL     1      29.196  17.994   8.499  1.00  0.00     0.190 A 
HETATM   41  N12 UNL     1      30.803  18.108   6.598  1.00  0.00    -0.021 N 
HETATM   42  C15 UNL     1      30.056  17.108   6.533  1.00  0.00     0.692 A 
ATOM     43  H12 UNL     1      31.485  18.162   5.841  1.00  0.00     0.203 HD
HETATM   44  N13 UNL     1      29.856  16.345   5.421  1.00  0.00    -0.234 N 
HETATM   45  N14 UNL     1      29.146  17.007   7.599  1.00  0.00    -0.172 N 
ATOM     46 2H13 UNL     1      30.517  16.417   4.647  1.00  0.00     0.174 HD
ATOM     47 1H13 UNL     1      29.247  15.528   5.368  1.00  0.00     0.174 HD
ATOM     48  H14 UNL     1      28.489  16.231   7.681  1.00  0.00     0.186 HD
BRANCH  39  49
HETATM   49  N11 UNL     1      31.577  20.244   7.511  1.00  0.00    -0.232 N 
ATOM     50 2H11 UNL     1      31.326  21.219   7.676  1.00  0.00     0.174 HD
ATOM     51 1H11 UNL     1      32.586  20.153   7.392  1.00  0.00     0.174 HD
ENDBRANCH  39  49
ENDBRANCH  28  30
ENDBRANCH  27  28
ENDBRANCH   1  27
TORSDOF 13
ENDMDL
MODEL 5
REMARK VINA RESULT: -6.870541714      2.309      7.474
REMARK  13 active torsions:
REMARK  status: ('A' for Active; 'I' for Inactive)
REMARK    1  A    between atoms: C2_2  and  O2_4 
REMARK    2  A    between atoms: O2_4  and  C3_5 
REMARK    3  A    between atoms: C4_6  and  N1_7 
REMARK    4  A    between atoms: C6_14  and  N3_15 
REMARK    5  A    between atoms: N3_15  and  C7_17 
REMARK    6  A    between atoms: C7_17  and  O3_18 
REMARK    7  A    between atoms: N5_22  and  C8_23 
REMARK    8  A    between atoms: C9_24  and  C10_25 
REMARK    9  A    between atoms: C10_25  and  O4_26 
REMARK   10  A    between atoms: O4_26  and  N6_27 
REMARK   11  A    between atoms: N6_27  and  N7_28 
REMARK   12  A    between atoms: N7_28  and  C11_30 
REMARK   13  A    between atoms: C14_39  and  N11_40 
ROOT
HETATM    1  O4  UNL     1      26.579  21.903   8.150  1.00  0.00    -0.187 OA
ENDROOT
BRANCH   1   2
HETATM    2  C10 UNL     1      25.187  22.273   8.399  1.00  0.00     0.248 C 
BRANCH   2   3
HETATM    3  C9  UNL     1      24.635  21.289   7.305  1.00  0.00     0.016 C 
HETATM    4  C8  UNL     1      25.174  21.363   6.025  1.00  0.00     0.084 C 
BRANCH   4   5
HETATM    5  N5  UNL     1      24.601  20.259   5.263  1.00  0.00    -0.161 NA
HETATM    6  C3  UNL     1      24.371  20.684   3.916  1.00  0.00     0.262 C 
HETATM    7  C4  UNL     1      25.725  21.102   3.272  1.00  0.00     0.247 C 
HETATM    8  C5  UNL     1      26.041  19.956   2.242  1.00  0.00     0.175 C 
HETATM    9  N2  UNL     1      26.342  18.783   3.065  1.00  0.00    -0.223 N 
HETATM   10  C6  UNL     1      26.129  18.435   4.274  1.00  0.00     0.690 C 
ATOM     11  H2  UNL     1      26.846  18.066   2.543  1.00  0.00     0.177 HD
HETATM   12  N4  UNL     1      25.453  19.138   5.301  1.00  0.00    -0.146 N 
ATOM     13  H4  UNL     1      25.611  18.766   6.237  1.00  0.00     0.200 HD
BRANCH   6  14
HETATM   14  O2  UNL     1      23.602  21.907   3.961  1.00  0.00    -0.297 OA
BRANCH  14  15
HETATM   15  C2  UNL     1      22.193  21.672   3.978  1.00  0.00     0.256 C 
HETATM   16  C1  UNL     1      21.412  23.086   4.199  1.00  0.00     0.126 C 
HETATM   17  O1  UNL     1      21.602  20.702   3.871  1.00  0.00    -0.266 OA
ENDBRANCH  14  15
ENDBRANCH   6  14
BRANCH   7  18
HETATM   18  N1  UNL     1      25.662  22.396   2.737  1.00  0.00    -0.070 N 
ATOM     19  H13 UNL     1      24.722  22.786   2.810  1.00  0.00     0.275 HD
ATOM     20  H12 UNL     1      26.158  23.067   3.324  1.00  0.00     0.275 HD
ATOM     21  H11 UNL     1      26.002  22.421   1.775  1.00  0.00     0.275 HD
ENDBRANCH   7  18
BRANCH  10  22
HETATM   22  N3  UNL     1      26.634  17.174   4.546  1.00  0.00    -0.181 N 
ATOM     23  H3  UNL     1      26.555  16.815   5.497  1.00  0.00     0.185 HD
BRANCH  22  24
HETATM   24  C7  UNL     1      27.253  16.365   3.574  1.00  0.00     0.240 C 
BRANCH  24  25
HETATM   25  O3  UNL     1      28.507  15.914   4.077  1.00  0.00    -0.356 OA
ATOM     26  H3  UNL     1      29.203  16.284   3.547  1.00  0.00     0.218 HD
ENDBRANCH  24  25
ENDBRANCH  22  24
ENDBRANCH  10  22
ENDBRANCH   4   5
ENDBRANCH   2   3
ENDBRANCH   1   2
BRANCH   1  27
HETATM   27  N6  UNL     1      27.119  20.790   8.672  1.00  0.00    -0.187 NA
BRANCH  27  28
HETATM   28  N7  UNL     1      27.538  19.899   8.811  1.00  0.00    -0.205 N 
ATOM     29  H7  UNL     1      28.091  19.979   9.665  1.00  0.00     0.204 HD
BRANCH  28  30
HETATM   30  C11 UNL     1      27.713  18.559   8.354  1.00  0.00     0.114 A 
HETATM   31  C12 UNL     1      26.974  17.524   8.507  1.00  0.00     0.085 A 
HETATM   32  C13 UNL     1      27.257  16.213   7.893  1.00  0.00     0.116 A 
HETATM   33  N8  UNL     1      26.466  15.314   8.149  1.00  0.00    -0.384 N 
HETATM   34  N9  UNL     1      28.379  16.192   7.163  1.00  0.00    -0.263 N 
ATOM     35  H82 UNL     1      25.611  15.331   8.705  1.00  0.00     0.157 HD
ATOM     36  H81 UNL     1      26.662  14.408   7.724  1.00  0.00     0.157 HD
HETATM   37  N10 UNL     1      29.126  17.349   7.093  1.00  0.00    -0.065 N 
ATOM     38  H9  UNL     1      28.672  15.346   6.674  1.00  0.00     0.190 HD
HETATM   39  C14 UNL     1      30.495  17.008   6.720  1.00  0.00     0.713 A 
HETATM   40  C16 UNL     1      28.954  18.480   7.540  1.00  0.00     0.190 A 
HETATM   41  N12 UNL     1      31.341  18.098   6.929  1.00  0.00    -0.021 N 
HETATM   42  C15 UNL     1      31.143  19.243   7.391  1.00  0.00     0.692 A 
ATOM     43  H12 UNL     1      32.307  17.929   6.651  1.00  0.00     0.203 HD
HETATM   44  N13 UNL     1      32.111  20.084   7.854  1.00  0.00    -0.234 N 
HETATM   45  N14 UNL     1      29.803  19.495   7.733  1.00  0.00    -0.172 N 
ATOM     46 2H13 UNL     1      33.083  19.901   7.606  1.00  0.00     0.174 HD
ATOM     47 1H13 UNL     1      31.949  21.018   8.231  1.00  0.00     0.174 HD
ATOM     48  H14 UNL     1      29.498  20.394   8.106  1.00  0.00     0.186 HD
BRANCH  39  49
HETATM   49  N11 UNL     1      30.720  15.802   6.348  1.00  0.00    -0.232 N 
ATOM     50 2H11 UNL     1      30.141  15.114   5.867  1.00  0.00     0.174 HD
ATOM     51 1H11 UNL     1      31.663  15.438   6.486  1.00  0.00     0.174 HD
ENDBRANCH  39  49
ENDBRANCH  28  30
ENDBRANCH  27  28
ENDBRANCH   1  27
TORSDOF 13
ENDMDL
