MODEL 1
REMARK VINA RESULT: -6.716677301      0.000      0.000
REMARK  15 active torsions:
REMARK  status: ('A' for Active; 'I' for Inactive)
REMARK    1  A    between atoms: N1_1  and  C1_4 
REMARK    2  A    between atoms: C2_7  and  N3_8 
REMARK    3  A    between atoms: N3_8  and  C3_10 
REMARK    4  A    between atoms: C4_13  and  N5_14 
REMARK    5  A    between atoms: C7_17  and  O1_18 
REMARK    6  A    between atoms: C7_17  and  C8_20 
REMARK    7  A    between atoms: C8_20  and  O2_21 
REMARK    8  A    between atoms: C10_26  and  N7_27 
REMARK    9  A    between atoms: N7_27  and  O3_28 
REMARK   10  A    between atoms: N7_27  and  C11_30 
REMARK   11  A    between atoms: C11_30  and  C12_31 
REMARK   12  A    between atoms: C12_31  and  C13_32 
REMARK   13  A    between atoms: C13_32  and  N8_33 
REMARK   14  A    between atoms: N8_33  and  C14_35 
REMARK   15  A    between atoms: C17_46  and  N13_47 
ROOT
HETATM    1  C3  UNL     1      27.499  18.770   6.793  1.00  0.00     0.726 A 
HETATM    2  N4  UNL     1      28.396  19.573   7.390  1.00  0.00    -0.021 N 
ATOM      3  H4  UNL     1      29.209  19.175   7.860  1.00  0.00     0.203 HD
HETATM    4  C4  UNL     1      28.209  20.923   7.363  1.00  0.00     0.709 A 
HETATM    5  N6  UNL     1      27.124  21.372   6.732  1.00  0.00    -0.019 N 
ATOM      6  H6  UNL     1      26.983  22.382   6.711  1.00  0.00     0.203 HD
HETATM    7  C10 UNL     1      26.198  20.610   6.119  1.00  0.00     0.733 A 
HETATM    8  N11 UNL     1      26.402  19.286   6.159  1.00  0.00    -0.019 N 
ATOM      9  H11 UNL     1      25.733  18.658   5.714  1.00  0.00     0.203 HD
ENDROOT
BRANCH   1  10
HETATM   10  N3  UNL     1      27.621  17.476   6.782  1.00  0.00    -0.020 N 
ATOM     11  H3  UNL     1      26.780  16.899   6.784  1.00  0.00     0.203 HD
BRANCH  10  12
HETATM   12  C2  UNL     1      28.887  16.842   6.767  1.00  0.00     0.726 A 
HETATM   13  N2  UNL     1      29.456  16.243   7.813  1.00  0.00    -0.021 N 
HETATM   14  C1  UNL     1      30.674  15.652   7.732  1.00  0.00     0.705 A 
ATOM     15  H2  UNL     1      28.959  16.229   8.704  1.00  0.00     0.203 HD
HETATM   16  N14 UNL     1      31.321  15.676   6.559  1.00  0.00    -0.022 N 
HETATM   17  C17 UNL     1      30.783  16.272   5.465  1.00  0.00     0.705 A 
ATOM     18  H14 UNL     1      32.238  15.234   6.486  1.00  0.00     0.203 HD
HETATM   19  N12 UNL     1      29.577  16.839   5.604  1.00  0.00    -0.021 N 
ATOM     20  H12 UNL     1      29.158  17.292   4.792  1.00  0.00     0.203 HD
BRANCH  14  21
HETATM   21  N1  UNL     1      31.137  15.102   8.795  1.00  0.00    -0.234 N 
ATOM     22  H12 UNL     1      31.387  15.615   9.640  1.00  0.00     0.174 HD
ATOM     23  H11 UNL     1      31.257  14.089   8.786  1.00  0.00     0.174 HD
ENDBRANCH  14  21
BRANCH  17  24
HETATM   24  N13 UNL     1      31.436  16.268   4.374  1.00  0.00    -0.234 N 
ATOM     25 2H13 UNL     1      31.381  17.080   3.759  1.00  0.00     0.174 HD
ATOM     26 1H13 UNL     1      32.020  15.489   4.070  1.00  0.00     0.174 HD
ENDBRANCH  17  24
ENDBRANCH  10  12
ENDBRANCH   1  10
BRANCH   4  27
HETATM   27  N5  UNL     1      29.151  21.785   7.993  1.00  0.00    -0.214 N 
HETATM   28  C5  UNL     1      28.934  23.197   8.263  1.00  0.00     0.144 C 
HETATM   29  C6  UNL     1      30.314  23.753   7.995  1.00  0.00     0.062 C 
HETATM   30  C7  UNL     1      31.202  22.742   8.677  1.00  0.00     0.097 C 
HETATM   31  C9  UNL     1      30.473  21.450   8.480  1.00  0.00     0.181 C 
BRANCH  30  32
HETATM   32  O1  UNL     1      32.482  22.720   8.118  1.00  0.00    -0.386 OA
ATOM     33  H1  UNL     1      33.151  22.590   8.781  1.00  0.00     0.210 HD
ENDBRANCH  30  32
BRANCH  30  34
HETATM   34  C8  UNL     1      31.266  23.129  10.153  1.00  0.00     0.203 C 
BRANCH  34  35
HETATM   35  O2  UNL     1      31.355  21.997  10.962  1.00  0.00    -0.398 OA
ATOM     36  H2  UNL     1      32.260  21.733  11.078  1.00  0.00     0.209 HD
ENDBRANCH  34  35
ENDBRANCH  30  34
ENDBRANCH   4  27
BRANCH   7  37
HETATM   37  N7  UNL     1      25.080  21.235   5.500  1.00  0.00    -0.089 N 
BRANCH  37  38
HETATM   38  O3  UNL     1      23.863  20.592   5.578  1.00  0.00    -0.274 OA
ATOM     39  H3  UNL     1      23.362  20.497   4.777  1.00  0.00     0.245 HD
ENDBRANCH  37  38
BRANCH  37  40
HETATM   40  C11 UNL     1      25.114  22.496   4.831  1.00  0.00     0.176 C 
BRANCH  40  41
HETATM   41  C12 UNL     1      24.914  22.453   3.353  1.00  0.00     0.042 C 
BRANCH  41  42
HETATM   42  C13 UNL     1      25.978  21.641   2.642  1.00  0.00     0.124 C 
BRANCH  42  43
HETATM   43  N8  UNL     1      25.416  20.522   1.928  1.00  0.00    -0.362 N 
ATOM     44  H8  UNL     1      24.955  20.650   1.027  1.00  0.00     0.162 HD
BRANCH  43  45
HETATM   45  C14 UNL     1      25.526  19.234   2.517  1.00  0.00     0.171 C 
HETATM   46  N9  UNL     1      26.577  18.461   2.471  1.00  0.00    -0.361 N 
HETATM   47  C15 UNL     1      26.357  17.232   3.166  1.00  0.00     0.142 C 
ATOM     48  H9  UNL     1      27.447  18.704   1.997  1.00  0.00     0.162 HD
HETATM   49  C16 UNL     1      24.875  17.165   3.429  1.00  0.00     0.142 C 
HETATM   50  N10 UNL     1      24.502  18.572   3.258  1.00  0.00    -0.361 N 
ATOM     51  H10 UNL     1      23.650  19.007   3.611  1.00  0.00     0.162 HD
ENDBRANCH  43  45
ENDBRANCH  42  43
ENDBRANCH  41  42
ENDBRANCH  40  41
ENDBRANCH  37  40
ENDBRANCH   7  37
TORSDOF 15
ENDMDL
MODEL 2
REMARK VINA RESULT: -6.632404097      3.454      6.635
REMARK  15 active torsions:
REMARK  status: ('A' for Active; 'I' for Inactive)
REMARK    1  A    between atoms: N1_1  and  C1_4 
REMARK    2  A    between atoms: C2_7  and  N3_8 
REMARK    3  A    between atoms: N3_8  and  C3_10 
REMARK    4  A    between atoms: C4_13  and  N5_14 
REMARK    5  A    between atoms: C7_17  and  O1_18 
REMARK    6  A    between atoms: C7_17  and  C8_20 
REMARK    7  A    between atoms: C8_20  and  O2_21 
REMARK    8  A    between atoms: C10_26  and  N7_27 
REMARK    9  A    between atoms: N7_27  and  O3_28 
REMARK   10  A    between atoms: N7_27  and  C11_30 
REMARK   11  A    between atoms: C11_30  and  C12_31 
REMARK   12  A    between atoms: C12_31  and  C13_32 
REMARK   13  A    between atoms: C13_32  and  N8_33 
REMARK   14  A    between atoms: N8_33  and  C14_35 
REMARK   15  A    between atoms: C17_46  and  N13_47 
ROOT
HETATM    1  C3  UNL     1      27.250  16.398   6.764  1.00  0.00     0.726 A 
HETATM    2  N4  UNL     1      26.679  16.719   7.938  1.00  0.00    -0.021 N 
ATOM      3  H4  UNL     1      25.669  16.639   8.058  1.00  0.00     0.203 HD
HETATM    4  C4  UNL     1      27.461  17.154   8.967  1.00  0.00     0.709 A 
HETATM    5  N6  UNL     1      28.772  17.235   8.739  1.00  0.00    -0.019 N 
ATOM      6  H6  UNL     1      29.358  17.561   9.507  1.00  0.00     0.203 HD
HETATM    7  C10 UNL     1      29.391  16.925   7.584  1.00  0.00     0.733 A 
HETATM    8  N11 UNL     1      28.602  16.501   6.587  1.00  0.00    -0.019 N 
ATOM      9  H11 UNL     1      29.014  16.253   5.687  1.00  0.00     0.203 HD
ENDROOT
BRANCH   1  10
HETATM   10  N3  UNL     1      26.560  15.976   5.747  1.00  0.00    -0.020 N 
ATOM     11  H3  UNL     1      26.274  14.997   5.716  1.00  0.00     0.203 HD
BRANCH  10  12
HETATM   12  C2  UNL     1      26.193  16.832   4.682  1.00  0.00     0.726 A 
HETATM   13  N2  UNL     1      26.895  17.007   3.563  1.00  0.00    -0.021 N 
HETATM   14  C1  UNL     1      26.486  17.844   2.577  1.00  0.00     0.705 A 
ATOM     15  H2  UNL     1      27.769  16.494   3.444  1.00  0.00     0.203 HD
HETATM   16  N14 UNL     1      25.338  18.514   2.741  1.00  0.00    -0.022 N 
HETATM   17  C17 UNL     1      24.587  18.369   3.861  1.00  0.00     0.705 A 
ATOM     18  H14 UNL     1      25.020  19.146   2.006  1.00  0.00     0.203 HD
HETATM   19  N12 UNL     1      25.040  17.529   4.801  1.00  0.00    -0.021 N 
ATOM     20  H12 UNL     1      24.487  17.408   5.650  1.00  0.00     0.203 HD
BRANCH  14  21
HETATM   21  N1  UNL     1      27.233  17.943   1.537  1.00  0.00    -0.234 N 
ATOM     22  H12 UNL     1      27.168  17.327   0.728  1.00  0.00     0.174 HD
ATOM     23  H11 UNL     1      27.930  18.688   1.529  1.00  0.00     0.174 HD
ENDBRANCH  14  21
BRANCH  17  24
HETATM   24  N13 UNL     1      23.504  19.027   3.971  1.00  0.00    -0.234 N 
ATOM     25 2H13 UNL     1      23.291  19.491   4.853  1.00  0.00     0.174 HD
ATOM     26 1H13 UNL     1      22.823  19.120   3.217  1.00  0.00     0.174 HD
ENDBRANCH  17  24
ENDBRANCH  10  12
ENDBRANCH   1  10
BRANCH   4  27
HETATM   27  N5  UNL     1      26.869  17.499  10.214  1.00  0.00    -0.214 N 
HETATM   28  C5  UNL     1      26.688  18.857  10.701  1.00  0.00     0.144 C 
HETATM   29  C6  UNL     1      26.965  18.670  12.175  1.00  0.00     0.062 C 
HETATM   30  C7  UNL     1      26.210  17.401  12.483  1.00  0.00     0.097 C 
HETATM   31  C9  UNL     1      26.341  16.604  11.224  1.00  0.00     0.181 C 
BRANCH  30  32
HETATM   32  O1  UNL     1      26.745  16.738  13.589  1.00  0.00    -0.386 OA
ATOM     33  H1  UNL     1      26.226  15.978  13.827  1.00  0.00     0.210 HD
ENDBRANCH  30  32
BRANCH  30  34
HETATM   34  C8  UNL     1      24.759  17.800  12.745  1.00  0.00     0.203 C 
BRANCH  34  35
HETATM   35  O2  UNL     1      24.122  16.860  13.554  1.00  0.00    -0.398 OA
ATOM     36  H2  UNL     1      23.212  16.758  13.305  1.00  0.00     0.209 HD
ENDBRANCH  34  35
ENDBRANCH  30  34
ENDBRANCH   4  27
BRANCH   7  37
HETATM   37  N7  UNL     1      30.802  17.080   7.486  1.00  0.00    -0.089 N 
BRANCH  37  38
HETATM   38  O3  UNL     1      31.594  16.082   8.012  1.00  0.00    -0.274 OA
ATOM     39  H3  UNL     1      32.535  16.170   7.918  1.00  0.00     0.245 HD
ENDBRANCH  37  38
BRANCH  37  40
HETATM   40  C11 UNL     1      31.462  18.177   6.854  1.00  0.00     0.176 C 
BRANCH  40  41
HETATM   41  C12 UNL     1      31.603  19.413   7.678  1.00  0.00     0.042 C 
BRANCH  41  42
HETATM   42  C13 UNL     1      30.593  20.481   7.307  1.00  0.00     0.124 C 
BRANCH  42  43
HETATM   43  N8  UNL     1      29.567  20.627   8.309  1.00  0.00    -0.362 N 
ATOM     44  H8  UNL     1      29.799  20.635   9.302  1.00  0.00     0.162 HD
BRANCH  43  45
HETATM   45  C14 UNL     1      28.223  20.759   7.869  1.00  0.00     0.171 C 
HETATM   46  N9  UNL     1      27.336  21.578   8.364  1.00  0.00    -0.361 N 
HETATM   47  C15 UNL     1      26.079  21.461   7.694  1.00  0.00     0.142 C 
ATOM     48  H9  UNL     1      27.516  22.222   9.135  1.00  0.00     0.162 HD
HETATM   49  C16 UNL     1      26.168  20.206   6.865  1.00  0.00     0.142 C 
HETATM   50  N10 UNL     1      27.620  20.016   6.811  1.00  0.00    -0.361 N 
ATOM     51  H10 UNL     1      28.119  19.445   6.128  1.00  0.00     0.162 HD
ENDBRANCH  43  45
ENDBRANCH  42  43
ENDBRANCH  41  42
ENDBRANCH  40  41
ENDBRANCH  37  40
ENDBRANCH   7  37
TORSDOF 15
ENDMDL
MODEL 3
REMARK VINA RESULT: -6.610532919      3.454      6.578
REMARK  15 active torsions:
REMARK  status: ('A' for Active; 'I' for Inactive)
REMARK    1  A    between atoms: N1_1  and  C1_4 
REMARK    2  A    between atoms: C2_7  and  N3_8 
REMARK    3  A    between atoms: N3_8  and  C3_10 
REMARK    4  A    between atoms: C4_13  and  N5_14 
REMARK    5  A    between atoms: C7_17  and  O1_18 
REMARK    6  A    between atoms: C7_17  and  C8_20 
REMARK    7  A    between atoms: C8_20  and  O2_21 
REMARK    8  A    between atoms: C10_26  and  N7_27 
REMARK    9  A    between atoms: N7_27  and  O3_28 
REMARK   10  A    between atoms: N7_27  and  C11_30 
REMARK   11  A    between atoms: C11_30  and  C12_31 
REMARK   12  A    between atoms: C12_31  and  C13_32 
REMARK   13  A    between atoms: C13_32  and  N8_33 
REMARK   14  A    between atoms: N8_33  and  C14_35 
REMARK   15  A    between atoms: C17_46  and  N13_47 
ROOT
HETATM    1  C3  UNL     1      27.246  16.412   6.746  1.00  0.00     0.726 A 
HETATM    2  N4  UNL     1      26.671  16.737   7.917  1.00  0.00    -0.021 N 
ATOM      3  H4  UNL     1      25.659  16.674   8.028  1.00  0.00     0.203 HD
HETATM    4  C4  UNL     1      27.452  17.152   8.955  1.00  0.00     0.709 A 
HETATM    5  N6  UNL     1      28.766  17.210   8.738  1.00  0.00    -0.019 N 
ATOM      6  H6  UNL     1      29.351  17.520   9.513  1.00  0.00     0.203 HD
HETATM    7  C10 UNL     1      29.389  16.895   7.586  1.00  0.00     0.733 A 
HETATM    8  N11 UNL     1      28.601  16.491   6.580  1.00  0.00    -0.019 N 
ATOM      9  H11 UNL     1      29.015  16.242   5.683  1.00  0.00     0.203 HD
ENDROOT
BRANCH   1  10
HETATM   10  N3  UNL     1      26.556  16.008   5.721  1.00  0.00    -0.020 N 
ATOM     11  H3  UNL     1      26.342  15.015   5.629  1.00  0.00     0.203 HD
BRANCH  10  12
HETATM   12  C2  UNL     1      26.093  16.904   4.728  1.00  0.00     0.726 A 
HETATM   13  N2  UNL     1      24.978  17.629   4.810  1.00  0.00    -0.021 N 
HETATM   14  C1  UNL     1      24.589  18.471   3.820  1.00  0.00     0.705 A 
ATOM     15  H2  UNL     1      24.397  17.547   5.645  1.00  0.00     0.203 HD
HETATM   16  N14 UNL     1      25.357  18.573   2.728  1.00  0.00    -0.022 N 
HETATM   17  C17 UNL     1      26.502  17.857   2.597  1.00  0.00     0.705 A 
ATOM     18  H14 UNL     1      25.075  19.204   1.977  1.00  0.00     0.203 HD
HETATM   19  N12 UNL     1      26.836  17.041   3.606  1.00  0.00    -0.021 N 
ATOM     20  H12 UNL     1      27.694  16.495   3.525  1.00  0.00     0.203 HD
BRANCH  14  21
HETATM   21  N1  UNL     1      23.499  19.126   3.995  1.00  0.00    -0.234 N 
ATOM     22  H12 UNL     1      23.374  19.847   4.705  1.00  0.00     0.174 HD
ATOM     23  H11 UNL     1      22.715  18.906   3.380  1.00  0.00     0.174 HD
ENDBRANCH  14  21
BRANCH  17  24
HETATM   24  N13 UNL     1      27.198  17.988   1.540  1.00  0.00    -0.234 N 
ATOM     25 2H13 UNL     1      27.847  17.247   1.277  1.00  0.00     0.174 HD
ATOM     26 1H13 UNL     1      27.146  18.802   0.929  1.00  0.00     0.174 HD
ENDBRANCH  17  24
ENDBRANCH  10  12
ENDBRANCH   1  10
BRANCH   4  27
HETATM   27  N5  UNL     1      26.856  17.500  10.199  1.00  0.00    -0.214 N 
HETATM   28  C5  UNL     1      26.649  18.860  10.670  1.00  0.00     0.144 C 
HETATM   29  C6  UNL     1      26.934  18.697  12.146  1.00  0.00     0.062 C 
HETATM   30  C7  UNL     1      26.204  17.417  12.471  1.00  0.00     0.097 C 
HETATM   31  C9  UNL     1      26.348  16.607  11.221  1.00  0.00     0.181 C 
BRANCH  30  32
HETATM   32  O1  UNL     1      26.754  16.778  13.584  1.00  0.00    -0.386 OA
ATOM     33  H1  UNL     1      27.311  16.051  13.331  1.00  0.00     0.210 HD
ENDBRANCH  30  32
BRANCH  30  34
HETATM   34  C8  UNL     1      24.746  17.790  12.731  1.00  0.00     0.203 C 
BRANCH  34  35
HETATM   35  O2  UNL     1      24.137  16.861  13.574  1.00  0.00    -0.398 OA
ATOM     36  H2  UNL     1      23.918  17.254  14.411  1.00  0.00     0.209 HD
ENDBRANCH  34  35
ENDBRANCH  30  34
ENDBRANCH   4  27
BRANCH   7  37
HETATM   37  N7  UNL     1      30.803  17.025   7.501  1.00  0.00    -0.089 N 
BRANCH  37  38
HETATM   38  O3  UNL     1      31.573  16.022   8.049  1.00  0.00    -0.274 OA
ATOM     39  H3  UNL     1      31.547  15.168   7.633  1.00  0.00     0.245 HD
ENDBRANCH  37  38
BRANCH  37  40
HETATM   40  C11 UNL     1      31.488  18.101   6.860  1.00  0.00     0.176 C 
BRANCH  40  41
HETATM   41  C12 UNL     1      31.638  19.349   7.666  1.00  0.00     0.042 C 
BRANCH  41  42
HETATM   42  C13 UNL     1      30.626  20.412   7.291  1.00  0.00     0.124 C 
BRANCH  42  43
HETATM   43  N8  UNL     1      29.608  20.569   8.300  1.00  0.00    -0.362 N 
ATOM     44  H8  UNL     1      29.844  20.559   9.292  1.00  0.00     0.162 HD
BRANCH  43  45
HETATM   45  C14 UNL     1      28.266  20.740   7.868  1.00  0.00     0.171 C 
HETATM   46  N9  UNL     1      27.401  21.575   8.377  1.00  0.00    -0.361 N 
HETATM   47  C15 UNL     1      26.138  21.496   7.711  1.00  0.00     0.142 C 
ATOM     48  H9  UNL     1      27.601  22.205   9.153  1.00  0.00     0.162 HD
HETATM   49  C16 UNL     1      26.193  20.249   6.868  1.00  0.00     0.142 C 
HETATM   50  N10 UNL     1      27.639  20.023   6.805  1.00  0.00    -0.361 N 
ATOM     51  H10 UNL     1      28.120  19.448   6.113  1.00  0.00     0.162 HD
ENDBRANCH  43  45
ENDBRANCH  42  43
ENDBRANCH  41  42
ENDBRANCH  40  41
ENDBRANCH  37  40
ENDBRANCH   7  37
TORSDOF 15
ENDMDL
MODEL 4
REMARK VINA RESULT: -6.576891486      2.431      6.724
REMARK  15 active torsions:
REMARK  status: ('A' for Active; 'I' for Inactive)
REMARK    1  A    between atoms: N1_1  and  C1_4 
REMARK    2  A    between atoms: C2_7  and  N3_8 
REMARK    3  A    between atoms: N3_8  and  C3_10 
REMARK    4  A    between atoms: C4_13  and  N5_14 
REMARK    5  A    between atoms: C7_17  and  O1_18 
REMARK    6  A    between atoms: C7_17  and  C8_20 
REMARK    7  A    between atoms: C8_20  and  O2_21 
REMARK    8  A    between atoms: C10_26  and  N7_27 
REMARK    9  A    between atoms: N7_27  and  O3_28 
REMARK   10  A    between atoms: N7_27  and  C11_30 
REMARK   11  A    between atoms: C11_30  and  C12_31 
REMARK   12  A    between atoms: C12_31  and  C13_32 
REMARK   13  A    between atoms: C13_32  and  N8_33 
REMARK   14  A    between atoms: N8_33  and  C14_35 
REMARK   15  A    between atoms: C17_46  and  N13_47 
ROOT
HETATM    1  C3  UNL     1      24.666  20.895   6.355  1.00  0.00     0.726 A 
HETATM    2  N4  UNL     1      25.827  21.211   6.953  1.00  0.00    -0.021 N 
ATOM      3  H4  UNL     1      25.859  21.948   7.658  1.00  0.00     0.203 HD
HETATM    4  C4  UNL     1      26.963  20.540   6.610  1.00  0.00     0.709 A 
HETATM    5  N6  UNL     1      26.847  19.590   5.682  1.00  0.00    -0.019 N 
ATOM      6  H6  UNL     1      27.696  19.087   5.423  1.00  0.00     0.203 HD
HETATM    7  C10 UNL     1      25.709  19.235   5.055  1.00  0.00     0.733 A 
HETATM    8  N11 UNL     1      24.607  19.910   5.408  1.00  0.00    -0.019 N 
ATOM      9  H11 UNL     1      23.715  19.688   4.966  1.00  0.00     0.203 HD
ENDROOT
BRANCH   1  10
HETATM   10  N3  UNL     1      23.550  21.496   6.640  1.00  0.00    -0.020 N 
ATOM     11  H3  UNL     1      23.259  21.562   7.616  1.00  0.00     0.203 HD
BRANCH  10  12
HETATM   12  C2  UNL     1      22.725  22.063   5.639  1.00  0.00     0.726 A 
HETATM   13  N2  UNL     1      21.752  21.421   4.993  1.00  0.00    -0.021 N 
HETATM   14  C1  UNL     1      20.997  22.024   4.042  1.00  0.00     0.705 A 
ATOM     15  H2  UNL     1      21.570  20.444   5.222  1.00  0.00     0.203 HD
HETATM   16  N14 UNL     1      21.242  23.307   3.748  1.00  0.00    -0.022 N 
HETATM   17  C17 UNL     1      22.221  24.005   4.377  1.00  0.00     0.705 A 
ATOM     18  H14 UNL     1      20.679  23.771   3.034  1.00  0.00     0.203 HD
HETATM   19  N12 UNL     1      22.935  23.358   5.308  1.00  0.00    -0.021 N 
ATOM     20  H12 UNL     1      23.675  23.867   5.792  1.00  0.00     0.203 HD
BRANCH  14  21
HETATM   21  N1  UNL     1      20.083  21.320   3.478  1.00  0.00    -0.234 N 
ATOM     22  H12 UNL     1      19.508  20.635   3.967  1.00  0.00     0.174 HD
ATOM     23  H11 UNL     1      19.931  21.461   2.479  1.00  0.00     0.174 HD
ENDBRANCH  14  21
BRANCH  17  24
HETATM   24  N13 UNL     1      22.415  25.221   4.063  1.00  0.00    -0.234 N 
ATOM     25 2H13 UNL     1      23.018  25.797   4.651  1.00  0.00     0.174 HD
ATOM     26 1H13 UNL     1      21.999  25.665   3.245  1.00  0.00     0.174 HD
ENDBRANCH  17  24
ENDBRANCH  10  12
ENDBRANCH   1  10
BRANCH   4  27
HETATM   27  N5  UNL     1      28.200  20.867   7.234  1.00  0.00    -0.214 N 
HETATM   28  C5  UNL     1      28.472  22.109   7.938  1.00  0.00     0.144 C 
HETATM   29  C6  UNL     1      29.911  22.351   7.542  1.00  0.00     0.062 C 
HETATM   30  C7  UNL     1      30.517  20.977   7.691  1.00  0.00     0.097 C 
HETATM   31  C9  UNL     1      29.401  20.061   7.299  1.00  0.00     0.181 C 
BRANCH  30  32
HETATM   32  O1  UNL     1      31.643  20.820   6.881  1.00  0.00    -0.386 OA
ATOM     33  H1  UNL     1      32.066  19.981   7.026  1.00  0.00     0.210 HD
ENDBRANCH  30  32
BRANCH  30  34
HETATM   34  C8  UNL     1      30.887  20.812   9.163  1.00  0.00     0.203 C 
BRANCH  34  35
HETATM   35  O2  UNL     1      32.105  20.148   9.299  1.00  0.00    -0.398 OA
ATOM     36  H2  UNL     1      31.976  19.208   9.353  1.00  0.00     0.209 HD
ENDBRANCH  34  35
ENDBRANCH  30  34
ENDBRANCH   4  27
BRANCH   7  37
HETATM   37  N7  UNL     1      25.747  18.210   4.069  1.00  0.00    -0.089 N 
BRANCH  37  38
HETATM   38  O3  UNL     1      25.760  18.595   2.746  1.00  0.00    -0.274 OA
ATOM     39  H3  UNL     1      26.604  18.661   2.314  1.00  0.00     0.245 HD
ENDBRANCH  37  38
BRANCH  37  40
HETATM   40  C11 UNL     1      25.804  16.811   4.346  1.00  0.00     0.176 C 
BRANCH  40  41
HETATM   41  C12 UNL     1      25.200  16.378   5.641  1.00  0.00     0.042 C 
BRANCH  41  42
HETATM   42  C13 UNL     1      26.204  15.718   6.563  1.00  0.00     0.124 C 
BRANCH  42  43
HETATM   43  N8  UNL     1      27.080  16.678   7.185  1.00  0.00    -0.362 N 
ATOM     44  H8  UNL     1      26.707  17.445   7.745  1.00  0.00     0.162 HD
BRANCH  43  45
HETATM   45  C14 UNL     1      28.479  16.522   6.996  1.00  0.00     0.171 C 
HETATM   46  N9  UNL     1      29.339  16.174   7.914  1.00  0.00    -0.361 N 
HETATM   47  C15 UNL     1      30.668  16.108   7.393  1.00  0.00     0.142 C 
ATOM     48  H9  UNL     1      29.093  15.973   8.883  1.00  0.00     0.162 HD
HETATM   49  C16 UNL     1      30.615  16.772   6.041  1.00  0.00     0.142 C 
HETATM   50  N10 UNL     1      29.176  16.722   5.767  1.00  0.00    -0.361 N 
ATOM     51  H10 UNL     1      28.744  16.815   4.848  1.00  0.00     0.162 HD
ENDBRANCH  43  45
ENDBRANCH  42  43
ENDBRANCH  41  42
ENDBRANCH  40  41
ENDBRANCH  37  40
ENDBRANCH   7  37
TORSDOF 15
ENDMDL
MODEL 5
REMARK VINA RESULT: -6.573969416      3.554      6.013
REMARK  15 active torsions:
REMARK  status: ('A' for Active; 'I' for Inactive)
REMARK    1  A    between atoms: N1_1  and  C1_4 
REMARK    2  A    between atoms: C2_7  and  N3_8 
REMARK    3  A    between atoms: N3_8  and  C3_10 
REMARK    4  A    between atoms: C4_13  and  N5_14 
REMARK    5  A    between atoms: C7_17  and  O1_18 
REMARK    6  A    between atoms: C7_17  and  C8_20 
REMARK    7  A    between atoms: C8_20  and  O2_21 
REMARK    8  A    between atoms: C10_26  and  N7_27 
REMARK    9  A    between atoms: N7_27  and  O3_28 
REMARK   10  A    between atoms: N7_27  and  C11_30 
REMARK   11  A    between atoms: C11_30  and  C12_31 
REMARK   12  A    between atoms: C12_31  and  C13_32 
REMARK   13  A    between atoms: C13_32  and  N8_33 
REMARK   14  A    between atoms: N8_33  and  C14_35 
REMARK   15  A    between atoms: C17_46  and  N13_47 
ROOT
HETATM    1  C3  UNL     1      27.794  16.884   7.003  1.00  0.00     0.726 A 
HETATM    2  N4  UNL     1      27.184  16.751   8.193  1.00  0.00    -0.021 N 
ATOM      3  H4  UNL     1      26.458  16.047   8.323  1.00  0.00     0.203 HD
HETATM    4  C4  UNL     1      27.544  17.565   9.226  1.00  0.00     0.709 A 
HETATM    5  N6  UNL     1      28.501  18.461   8.984  1.00  0.00    -0.019 N 
ATOM      6  H6  UNL     1      28.771  19.072   9.756  1.00  0.00     0.203 HD
HETATM    7  C10 UNL     1      29.142  18.634   7.812  1.00  0.00     0.733 A 
HETATM    8  N11 UNL     1      28.770  17.823   6.812  1.00  0.00    -0.019 N 
ATOM      9  H11 UNL     1      29.218  17.907   5.900  1.00  0.00     0.203 HD
ENDROOT
BRANCH   1  10
HETATM   10  N3  UNL     1      27.497  16.137   5.982  1.00  0.00    -0.020 N 
ATOM     11  H3  UNL     1      27.764  15.153   5.994  1.00  0.00     0.203 HD
BRANCH  10  12
HETATM   12  C2  UNL     1      26.814  16.648   4.852  1.00  0.00     0.726 A 
HETATM   13  N2  UNL     1      27.377  16.927   3.677  1.00  0.00    -0.021 N 
HETATM   14  C1  UNL     1      26.664  17.415   2.632  1.00  0.00     0.705 A 
ATOM     15  H2  UNL     1      28.378  16.769   3.560  1.00  0.00     0.203 HD
HETATM   16  N14 UNL     1      25.350  17.621   2.793  1.00  0.00    -0.022 N 
HETATM   17  C17 UNL     1      24.730  17.352   3.970  1.00  0.00     0.705 A 
ATOM     18  H14 UNL     1      24.803  17.988   2.014  1.00  0.00     0.203 HD
HETATM   19  N12 UNL     1      25.485  16.871   4.967  1.00  0.00    -0.021 N 
ATOM     20  H12 UNL     1      25.034  16.663   5.859  1.00  0.00     0.203 HD
BRANCH  14  21
HETATM   21  N1  UNL     1      27.298  17.652   1.541  1.00  0.00    -0.234 N 
ATOM     22  H12 UNL     1      28.302  17.823   1.492  1.00  0.00     0.174 HD
ATOM     23  H11 UNL     1      26.758  17.667   0.676  1.00  0.00     0.174 HD
ENDBRANCH  14  21
BRANCH  17  24
HETATM   24  N13 UNL     1      23.480  17.564   4.074  1.00  0.00    -0.234 N 
ATOM     25 2H13 UNL     1      22.827  16.824   3.819  1.00  0.00     0.174 HD
ATOM     26 1H13 UNL     1      23.085  18.444   4.404  1.00  0.00     0.174 HD
ENDBRANCH  17  24
ENDBRANCH  10  12
ENDBRANCH   1  10
BRANCH   4  27
HETATM   27  N5  UNL     1      26.906  17.435  10.491  1.00  0.00    -0.214 N 
HETATM   28  C5  UNL     1      26.984  18.412  11.565  1.00  0.00     0.144 C 
HETATM   29  C6  UNL     1      27.039  17.504  12.773  1.00  0.00     0.062 C 
HETATM   30  C7  UNL     1      25.982  16.477  12.446  1.00  0.00     0.097 C 
HETATM   31  C9  UNL     1      26.074  16.346  10.958  1.00  0.00     0.181 C 
BRANCH  30  32
HETATM   32  O1  UNL     1      26.219  15.267  13.101  1.00  0.00    -0.386 OA
ATOM     33  H1  UNL     1      25.572  14.611  12.871  1.00  0.00     0.210 HD
ENDBRANCH  30  32
BRANCH  30  34
HETATM   34  C8  UNL     1      24.641  17.067  12.874  1.00  0.00     0.203 C 
BRANCH  34  35
HETATM   35  O2  UNL     1      24.295  16.640  14.155  1.00  0.00    -0.398 OA
ATOM     36  H2  UNL     1      24.201  17.377  14.746  1.00  0.00     0.209 HD
ENDBRANCH  34  35
ENDBRANCH  30  34
ENDBRANCH   4  27
BRANCH   7  37
HETATM   37  N7  UNL     1      30.132  19.649   7.702  1.00  0.00    -0.089 N 
BRANCH  37  38
HETATM   38  O3  UNL     1      31.444  19.292   7.935  1.00  0.00    -0.274 OA
ATOM     39  H3  UNL     1      32.114  19.947   7.776  1.00  0.00     0.245 HD
ENDBRANCH  37  38
BRANCH  37  40
HETATM   40  C11 UNL     1      29.876  21.005   7.337  1.00  0.00     0.176 C 
BRANCH  40  41
HETATM   41  C12 UNL     1      28.535  21.538   7.713  1.00  0.00     0.042 C 
BRANCH  41  42
HETATM   42  C13 UNL     1      27.634  21.755   6.515  1.00  0.00     0.124 C 
BRANCH  42  43
HETATM   43  N8  UNL     1      26.716  20.660   6.322  1.00  0.00    -0.362 N 
ATOM     44  H8  UNL     1      26.767  19.823   6.904  1.00  0.00     0.162 HD
BRANCH  43  45
HETATM   45  C14 UNL     1      25.740  20.783   5.298  1.00  0.00     0.171 C 
HETATM   46  N9  UNL     1      25.983  21.003   4.035  1.00  0.00    -0.361 N 
HETATM   47  C15 UNL     1      24.777  21.072   3.271  1.00  0.00     0.142 C 
ATOM     48  H9  UNL     1      26.917  21.113   3.642  1.00  0.00     0.162 HD
HETATM   49  C16 UNL     1      23.657  21.171   4.275  1.00  0.00     0.142 C 
HETATM   50  N10 UNL     1      24.328  20.686   5.483  1.00  0.00    -0.361 N 
ATOM     51  H10 UNL     1      23.862  20.337   6.321  1.00  0.00     0.162 HD
ENDBRANCH  43  45
ENDBRANCH  42  43
ENDBRANCH  41  42
ENDBRANCH  40  41
ENDBRANCH  37  40
ENDBRANCH   7  37
TORSDOF 15
ENDMDL
