MODEL 1
REMARK VINA RESULT: -7.432135709      0.000      0.000
REMARK  14 active torsions:
REMARK  status: ('A' for Active; 'I' for Inactive)
REMARK    1  A    between atoms: O1_2  and  C2_3 
REMARK    2  A    between atoms: C6_7  and  C7_8 
REMARK    3  A    between atoms: C7_8  and  C8_10 
REMARK    4  A    between atoms: C8_10  and  C9_11 
REMARK    5  A    between atoms: C9_11  and  C10_12 
REMARK    6  A    between atoms: C10_12  and  C11_13 
REMARK    7  A    between atoms: C11_13  and  N1_15 
REMARK    8  A    between atoms: N1_15  and  C13_17 
REMARK    9  A    between atoms: C13_17  and  C14_18 
REMARK   10  A    between atoms: C14_18  and  N2_19 
REMARK   11  A    between atoms: N2_19  and  C15_21 
REMARK   12  A    between atoms: C15_21  and  C16_22 
REMARK   13  A    between atoms: C16_22  and  C17_23 
REMARK   14  A    between atoms: C17_23  and  N3_24 
ROOT
HETATM    1  C2  UNL     1      18.020   5.039  20.454  1.00  0.00     0.183 C 
HETATM    2  C3  UNL     1      18.591   6.400  20.300  1.00  0.00     0.021 C 
HETATM    3  C4  UNL     1      18.244   7.181  19.067  1.00  0.00     0.013 C 
HETATM    4  C5  UNL     1      18.574   7.195  21.564  1.00  0.00     0.013 A 
HETATM    5  C6  UNL     1      18.724   8.600  21.714  1.00  0.00     0.069 A 
HETATM    6  C18 UNL     1      17.479   7.730  22.189  1.00  0.00    -0.023 A 
HETATM    7  C19 UNL     1      16.299   8.449  21.897  1.00  0.00     0.011 C 
HETATM    8  C20 UNL     1      14.997   7.943  21.394  1.00  0.00     0.006 C 
HETATM    9  C21 UNL     1      14.367   6.758  21.952  1.00  0.00    -0.007 C 
HETATM   10  C22 UNL     1      12.823   6.807  22.119  1.00  0.00     0.005 C 
HETATM   11  C23 UNL     1      12.471   5.558  22.862  1.00  0.00     0.004 C 
HETATM   12  C24 UNL     1      13.153   4.290  22.553  1.00  0.00     0.043 C 
HETATM   13  C25 UNL     1      14.555   4.383  22.119  1.00  0.00     0.116 C 
HETATM   14  C26 UNL     1      15.552   4.604  23.197  1.00  0.00     0.161 C 
HETATM   15  N4  UNL     1      16.680   5.287  22.539  1.00  0.00    -0.375 N 
HETATM   16  C27 UNL     1      17.578   5.696  23.469  1.00  0.00     0.121 C 
HETATM   17  C28 UNL     1      17.439   7.232  23.607  1.00  0.00     0.030 C 
HETATM   18  C29 UNL     1      16.779   4.886  21.253  1.00  0.00     0.193 C 
HETATM   19  C30 UNL     1      15.694   5.398  20.286  1.00  0.00     0.075 C 
HETATM   20  C31 UNL     1      14.497   5.555  21.110  1.00  0.00     0.034 C 
HETATM   21  O3  UNL     1      16.417   3.503  21.287  1.00  0.00    -0.204 OA
HETATM   22  O4  UNL     1      15.084   3.363  21.350  1.00  0.00    -0.225 OA
ENDROOT
BRANCH   5  23
HETATM   23  C7  UNL     1      19.398   9.291  22.830  1.00  0.00     0.132 C 
HETATM   24  O2  UNL     1      20.537   8.917  23.078  1.00  0.00    -0.298 OA
BRANCH  23  25
HETATM   25  C8  UNL     1      18.774  10.357  23.627  1.00  0.00     0.079 C 
BRANCH  25  26
HETATM   26  C9  UNL     1      19.680  11.080  24.544  1.00  0.00     0.009 C 
BRANCH  26  27
HETATM   27  C10 UNL     1      20.089  12.452  24.163  1.00  0.00     0.024 C 
BRANCH  27  28
HETATM   28  C11 UNL     1      21.525  12.485  23.648  1.00  0.00     0.072 C 
HETATM   29  C12 UNL     1      22.432  11.693  24.598  1.00  0.00     0.031 C 
BRANCH  28  30
HETATM   30  N1  UNL     1      21.663  11.958  22.323  1.00  0.00    -0.416 N 
ATOM     31  H1  UNL     1      20.927  12.052  21.623  1.00  0.00     0.153 HD
BRANCH  30  32
HETATM   32  C13 UNL     1      22.898  11.294  22.045  1.00  0.00     0.133 C 
BRANCH  32  33
HETATM   33  C14 UNL     1      22.946  10.845  20.563  1.00  0.00     0.138 C 
BRANCH  33  34
HETATM   34  N2  UNL     1      22.314   9.596  20.503  1.00  0.00    -0.401 N 
ATOM     35  H2  UNL     1      21.295   9.563  20.523  1.00  0.00     0.158 HD
BRANCH  34  36
HETATM   36  C15 UNL     1      23.020   8.400  20.417  1.00  0.00     0.057 C 
BRANCH  36  37
HETATM   37  C16 UNL     1      24.303   8.292  19.704  1.00  0.00     0.071 C 
BRANCH  37  38
HETATM   38  C17 UNL     1      24.820   6.958  19.323  1.00  0.00     0.234 C 
BRANCH  38  39
HETATM   39  N3  UNL     1      24.446   6.056  20.453  1.00  0.00    -0.079 N 
ATOM     40  H33 UNL     1      23.993   6.536  21.231  1.00  0.00     0.274 HD
ATOM     41  H32 UNL     1      23.675   5.425  20.239  1.00  0.00     0.274 HD
ATOM     42  H31 UNL     1      25.311   5.579  20.711  1.00  0.00     0.274 HD
ENDBRANCH  38  39
ENDBRANCH  37  38
ENDBRANCH  36  37
ENDBRANCH  34  36
ENDBRANCH  33  34
ENDBRANCH  32  33
ENDBRANCH  30  32
ENDBRANCH  28  30
ENDBRANCH  27  28
ENDBRANCH  26  27
ENDBRANCH  25  26
ENDBRANCH  23  25
ENDBRANCH   5  23
BRANCH   1  43
HETATM   43  O1  UNL     1      17.752   4.545  19.174  1.00  0.00    -0.385 OA
HETATM   44  C1  UNL     1      18.731   3.664  18.727  1.00  0.00     0.202 C 
ENDBRANCH   1  43
TORSDOF 14
ENDMDL
MODEL 2
REMARK VINA RESULT: -7.345972568      2.078      3.585
REMARK  14 active torsions:
REMARK  status: ('A' for Active; 'I' for Inactive)
REMARK    1  A    between atoms: O1_2  and  C2_3 
REMARK    2  A    between atoms: C6_7  and  C7_8 
REMARK    3  A    between atoms: C7_8  and  C8_10 
REMARK    4  A    between atoms: C8_10  and  C9_11 
REMARK    5  A    between atoms: C9_11  and  C10_12 
REMARK    6  A    between atoms: C10_12  and  C11_13 
REMARK    7  A    between atoms: C11_13  and  N1_15 
REMARK    8  A    between atoms: N1_15  and  C13_17 
REMARK    9  A    between atoms: C13_17  and  C14_18 
REMARK   10  A    between atoms: C14_18  and  N2_19 
REMARK   11  A    between atoms: N2_19  and  C15_21 
REMARK   12  A    between atoms: C15_21  and  C16_22 
REMARK   13  A    between atoms: C16_22  and  C17_23 
REMARK   14  A    between atoms: C17_23  and  N3_24 
ROOT
HETATM    1  C2  UNL     1      14.883   3.399  20.002  1.00  0.00     0.183 C 
HETATM    2  C3  UNL     1      15.427   4.488  19.153  1.00  0.00     0.021 C 
HETATM    3  C4  UNL     1      14.463   5.313  18.354  1.00  0.00     0.013 C 
HETATM    4  C5  UNL     1      16.514   5.269  19.815  1.00  0.00     0.013 A 
HETATM    5  C6  UNL     1      17.019   6.546  19.451  1.00  0.00     0.069 A 
HETATM    6  C18 UNL     1      16.381   6.151  20.855  1.00  0.00    -0.023 A 
HETATM    7  C19 UNL     1      15.558   7.216  21.283  1.00  0.00     0.011 C 
HETATM    8  C20 UNL     1      14.243   7.165  21.968  1.00  0.00     0.006 C 
HETATM    9  C21 UNL     1      13.996   6.269  23.088  1.00  0.00    -0.007 C 
HETATM   10  C22 UNL     1      13.134   6.834  24.250  1.00  0.00     0.005 C 
HETATM   11  C23 UNL     1      13.189   5.790  25.319  1.00  0.00     0.004 C 
HETATM   12  C24 UNL     1      13.132   4.362  24.968  1.00  0.00     0.043 C 
HETATM   13  C25 UNL     1      13.736   3.972  23.686  1.00  0.00     0.116 C 
HETATM   14  C26 UNL     1      15.217   3.870  23.672  1.00  0.00     0.161 C 
HETATM   15  N4  UNL     1      15.605   4.123  22.274  1.00  0.00    -0.375 N 
HETATM   16  C27 UNL     1      16.953   4.227  22.181  1.00  0.00     0.121 C 
HETATM   17  C28 UNL     1      17.292   5.725  21.972  1.00  0.00     0.030 C 
HETATM   18  C29 UNL     1      14.639   3.685  21.438  1.00  0.00     0.193 C 
HETATM   19  C30 UNL     1      13.338   4.511  21.396  1.00  0.00     0.075 C 
HETATM   20  C31 UNL     1      13.206   5.075  22.738  1.00  0.00     0.034 C 
HETATM   21  O3  UNL     1      14.138   2.504  22.068  1.00  0.00    -0.204 OA
HETATM   22  O4  UNL     1      13.295   2.818  23.064  1.00  0.00    -0.225 OA
ENDROOT
BRANCH   5  23
HETATM   23  C7  UNL     1      18.419   6.994  19.566  1.00  0.00     0.132 C 
HETATM   24  O2  UNL     1      19.266   6.204  19.169  1.00  0.00    -0.298 OA
BRANCH  23  25
HETATM   25  C8  UNL     1      18.818   8.295  20.123  1.00  0.00     0.079 C 
BRANCH  25  26
HETATM   26  C9  UNL     1      20.104   8.310  20.850  1.00  0.00     0.009 C 
BRANCH  26  27
HETATM   27  C10 UNL     1      20.059   8.509  22.318  1.00  0.00     0.024 C 
BRANCH  27  28
HETATM   28  C11 UNL     1      18.739   9.137  22.756  1.00  0.00     0.072 C 
HETATM   29  C12 UNL     1      18.179   8.372  23.962  1.00  0.00     0.031 C 
BRANCH  28  30
HETATM   30  N1  UNL     1      18.858  10.524  23.097  1.00  0.00    -0.416 N 
ATOM     31  H1  UNL     1      18.507  11.263  22.488  1.00  0.00     0.153 HD
BRANCH  30  32
HETATM   32  C13 UNL     1      19.498  10.804  24.343  1.00  0.00     0.133 C 
BRANCH  32  33
HETATM   33  C14 UNL     1      20.217  12.175  24.283  1.00  0.00     0.138 C 
BRANCH  33  34
HETATM   34  N2  UNL     1      20.924  12.204  23.075  1.00  0.00    -0.401 N 
ATOM     35  H2  UNL     1      20.405  12.342  22.208  1.00  0.00     0.158 HD
BRANCH  34  36
HETATM   36  C15 UNL     1      22.305  12.050  23.008  1.00  0.00     0.057 C 
BRANCH  36  37
HETATM   37  C16 UNL     1      22.938  10.871  22.396  1.00  0.00     0.071 C 
BRANCH  37  38
HETATM   38  C17 UNL     1      22.931  10.716  20.924  1.00  0.00     0.234 C 
BRANCH  38  39
HETATM   39  N3  UNL     1      22.885  12.107  20.384  1.00  0.00    -0.079 N 
ATOM     40  H33 UNL     1      22.677  12.155  19.387  1.00  0.00     0.274 HD
ATOM     41  H32 UNL     1      22.077  12.645  20.698  1.00  0.00     0.274 HD
ATOM     42  H31 UNL     1      23.782  12.522  20.639  1.00  0.00     0.274 HD
ENDBRANCH  38  39
ENDBRANCH  37  38
ENDBRANCH  36  37
ENDBRANCH  34  36
ENDBRANCH  33  34
ENDBRANCH  32  33
ENDBRANCH  30  32
ENDBRANCH  28  30
ENDBRANCH  27  28
ENDBRANCH  26  27
ENDBRANCH  25  26
ENDBRANCH  23  25
ENDBRANCH   5  23
BRANCH   1  43
HETATM   43  O1  UNL     1      13.665   2.996  19.447  1.00  0.00    -0.385 OA
HETATM   44  C1  UNL     1      13.770   1.801  18.743  1.00  0.00     0.202 C 
ENDBRANCH   1  43
TORSDOF 14
ENDMDL
MODEL 3
REMARK VINA RESULT: -7.260762284      2.357      3.914
REMARK  14 active torsions:
REMARK  status: ('A' for Active; 'I' for Inactive)
REMARK    1  A    between atoms: O1_2  and  C2_3 
REMARK    2  A    between atoms: C6_7  and  C7_8 
REMARK    3  A    between atoms: C7_8  and  C8_10 
REMARK    4  A    between atoms: C8_10  and  C9_11 
REMARK    5  A    between atoms: C9_11  and  C10_12 
REMARK    6  A    between atoms: C10_12  and  C11_13 
REMARK    7  A    between atoms: C11_13  and  N1_15 
REMARK    8  A    between atoms: N1_15  and  C13_17 
REMARK    9  A    between atoms: C13_17  and  C14_18 
REMARK   10  A    between atoms: C14_18  and  N2_19 
REMARK   11  A    between atoms: N2_19  and  C15_21 
REMARK   12  A    between atoms: C15_21  and  C16_22 
REMARK   13  A    between atoms: C16_22  and  C17_23 
REMARK   14  A    between atoms: C17_23  and  N3_24 
ROOT
HETATM    1  C2  UNL     1      14.573   2.953  19.293  1.00  0.00     0.183 C 
HETATM    2  C3  UNL     1      15.352   3.619  18.220  1.00  0.00     0.021 C 
HETATM    3  C4  UNL     1      14.640   4.584  17.320  1.00  0.00     0.013 C 
HETATM    4  C5  UNL     1      16.707   4.065  18.662  1.00  0.00     0.013 A 
HETATM    5  C6  UNL     1      17.569   5.000  18.027  1.00  0.00     0.069 A 
HETATM    6  C18 UNL     1      16.999   5.100  19.511  1.00  0.00    -0.023 A 
HETATM    7  C19 UNL     1      16.640   6.443  19.758  1.00  0.00     0.011 C 
HETATM    8  C20 UNL     1      15.472   6.976  20.501  1.00  0.00     0.006 C 
HETATM    9  C21 UNL     1      15.065   6.430  21.786  1.00  0.00    -0.007 C 
HETATM   10  C22 UNL     1      14.583   7.451  22.853  1.00  0.00     0.005 C 
HETATM   11  C23 UNL     1      14.403   6.652  24.104  1.00  0.00     0.004 C 
HETATM   12  C24 UNL     1      13.827   5.298  24.046  1.00  0.00     0.043 C 
HETATM   13  C25 UNL     1      14.114   4.509  22.840  1.00  0.00     0.116 C 
HETATM   14  C26 UNL     1      15.462   3.889  22.777  1.00  0.00     0.161 C 
HETATM   15  N4  UNL     1      15.751   3.748  21.339  1.00  0.00    -0.375 N 
HETATM   16  C27 UNL     1      17.035   3.352  21.163  1.00  0.00     0.121 C 
HETATM   17  C28 UNL     1      17.833   4.575  20.646  1.00  0.00     0.030 C 
HETATM   18  C29 UNL     1      14.605   3.546  20.653  1.00  0.00     0.193 C 
HETATM   19  C30 UNL     1      13.663   4.758  20.511  1.00  0.00     0.075 C 
HETATM   20  C31 UNL     1      13.884   5.551  21.719  1.00  0.00     0.034 C 
HETATM   21  O3  UNL     1      13.809   2.743  21.528  1.00  0.00    -0.204 OA
HETATM   22  O4  UNL     1      13.241   3.498  22.481  1.00  0.00    -0.225 OA
ENDROOT
BRANCH   5  23
HETATM   23  C7  UNL     1      19.041   4.937  17.984  1.00  0.00     0.132 C 
HETATM   24  O2  UNL     1      19.537   3.850  18.254  1.00  0.00    -0.298 OA
BRANCH  23  25
HETATM   25  C8  UNL     1      19.900   6.084  17.653  1.00  0.00     0.079 C 
BRANCH  25  26
HETATM   26  C9  UNL     1      19.642   7.318  18.424  1.00  0.00     0.009 C 
BRANCH  26  27
HETATM   27  C10 UNL     1      20.250   7.424  19.771  1.00  0.00     0.024 C 
BRANCH  27  28
HETATM   28  C11 UNL     1      19.758   8.665  20.510  1.00  0.00     0.072 C 
HETATM   29  C12 UNL     1      19.026   8.246  21.791  1.00  0.00     0.031 C 
BRANCH  28  30
HETATM   30  N1  UNL     1      20.811   9.576  20.850  1.00  0.00    -0.416 N 
ATOM     31  H1  UNL     1      20.778  10.562  20.592  1.00  0.00     0.153 HD
BRANCH  30  32
HETATM   32  C13 UNL     1      21.909   9.014  21.572  1.00  0.00     0.133 C 
BRANCH  32  33
HETATM   33  C14 UNL     1      23.226   9.738  21.199  1.00  0.00     0.138 C 
BRANCH  33  34
HETATM   34  N2  UNL     1      23.199   9.928  19.811  1.00  0.00    -0.401 N 
ATOM     35  H2  UNL     1      22.561  10.623  19.425  1.00  0.00     0.158 HD
BRANCH  34  36
HETATM   36  C15 UNL     1      24.007   9.206  18.938  1.00  0.00     0.057 C 
BRANCH  36  37
HETATM   37  C16 UNL     1      23.967   7.737  18.860  1.00  0.00     0.071 C 
BRANCH  37  38
HETATM   38  C17 UNL     1      25.057   6.939  19.464  1.00  0.00     0.234 C 
BRANCH  38  39
HETATM   39  N3  UNL     1      24.396   6.096  20.504  1.00  0.00    -0.079 N 
ATOM     40  H33 UNL     1      23.672   6.584  21.031  1.00  0.00     0.274 HD
ATOM     41  H32 UNL     1      23.792   5.368  20.122  1.00  0.00     0.274 HD
ATOM     42  H31 UNL     1      25.157   5.739  21.082  1.00  0.00     0.274 HD
ENDBRANCH  38  39
ENDBRANCH  37  38
ENDBRANCH  36  37
ENDBRANCH  34  36
ENDBRANCH  33  34
ENDBRANCH  32  33
ENDBRANCH  30  32
ENDBRANCH  28  30
ENDBRANCH  27  28
ENDBRANCH  26  27
ENDBRANCH  25  26
ENDBRANCH  23  25
ENDBRANCH   5  23
BRANCH   1  43
HETATM   43  O1  UNL     1      13.235   2.919  18.887  1.00  0.00    -0.385 OA
HETATM   44  C1  UNL     1      12.864   1.679  18.380  1.00  0.00     0.202 C 
ENDBRANCH   1  43
TORSDOF 14
ENDMDL
MODEL 4
REMARK VINA RESULT: -7.225840624      3.086      5.905
REMARK  14 active torsions:
REMARK  status: ('A' for Active; 'I' for Inactive)
REMARK    1  A    between atoms: O1_2  and  C2_3 
REMARK    2  A    between atoms: C6_7  and  C7_8 
REMARK    3  A    between atoms: C7_8  and  C8_10 
REMARK    4  A    between atoms: C8_10  and  C9_11 
REMARK    5  A    between atoms: C9_11  and  C10_12 
REMARK    6  A    between atoms: C10_12  and  C11_13 
REMARK    7  A    between atoms: C11_13  and  N1_15 
REMARK    8  A    between atoms: N1_15  and  C13_17 
REMARK    9  A    between atoms: C13_17  and  C14_18 
REMARK   10  A    between atoms: C14_18  and  N2_19 
REMARK   11  A    between atoms: N2_19  and  C15_21 
REMARK   12  A    between atoms: C15_21  and  C16_22 
REMARK   13  A    between atoms: C16_22  and  C17_23 
REMARK   14  A    between atoms: C17_23  and  N3_24 
ROOT
HETATM    1  C2  UNL     1      15.016   5.751  21.079  1.00  0.00     0.183 C 
HETATM    2  C3  UNL     1      16.331   6.426  21.213  1.00  0.00     0.021 C 
HETATM    3  C4  UNL     1      17.037   6.348  22.533  1.00  0.00     0.013 C 
HETATM    4  C5  UNL     1      17.214   6.241  20.023  1.00  0.00     0.013 A 
HETATM    5  C6  UNL     1      18.617   6.452  19.936  1.00  0.00     0.069 A 
HETATM    6  C18 UNL     1      17.849   5.091  19.636  1.00  0.00    -0.023 A 
HETATM    7  C19 UNL     1      18.605   4.027  20.176  1.00  0.00     0.011 C 
HETATM    8  C20 UNL     1      18.133   2.803  20.869  1.00  0.00     0.006 C 
HETATM    9  C21 UNL     1      17.025   2.011  20.360  1.00  0.00    -0.007 C 
HETATM   10  C22 UNL     1      17.166   0.468  20.473  1.00  0.00     0.005 C 
HETATM   11  C23 UNL     1      15.994  -0.086  19.728  1.00  0.00     0.004 C 
HETATM   12  C24 UNL     1      14.674   0.557  19.833  1.00  0.00     0.043 C 
HETATM   13  C25 UNL     1      14.662   2.015  20.016  1.00  0.00     0.116 C 
HETATM   14  C26 UNL     1      14.908   2.823  18.795  1.00  0.00     0.161 C 
HETATM   15  N4  UNL     1      15.482   4.089  19.283  1.00  0.00    -0.375 N 
HETATM   16  C27 UNL     1      15.909   4.836  18.236  1.00  0.00     0.121 C 
HETATM   17  C28 UNL     1      17.457   4.774  18.219  1.00  0.00     0.030 C 
HETATM   18  C29 UNL     1      14.985   4.384  20.504  1.00  0.00     0.193 C 
HETATM   19  C30 UNL     1      15.483   3.517  21.678  1.00  0.00     0.075 C 
HETATM   20  C31 UNL     1      15.760   2.208  21.090  1.00  0.00     0.034 C 
HETATM   21  O3  UNL     1      13.629   3.933  20.449  1.00  0.00    -0.204 OA
HETATM   22  O4  UNL     1      13.563   2.604  20.615  1.00  0.00    -0.225 OA
ENDROOT
BRANCH   5  23
HETATM   23  C7  UNL     1      19.350   6.965  18.763  1.00  0.00     0.132 C 
HETATM   24  O2  UNL     1      18.795   7.860  18.137  1.00  0.00    -0.298 OA
BRANCH  23  25
HETATM   25  C8  UNL     1      20.660   6.456  18.330  1.00  0.00     0.079 C 
BRANCH  25  26
HETATM   26  C9  UNL     1      20.912   6.501  16.875  1.00  0.00     0.009 C 
BRANCH  26  27
HETATM   27  C10 UNL     1      20.785   5.234  16.118  1.00  0.00     0.024 C 
BRANCH  27  28
HETATM   28  C11 UNL     1      21.427   4.069  16.866  1.00  0.00     0.072 C 
HETATM   29  C12 UNL     1      20.505   2.845  16.807  1.00  0.00     0.031 C 
BRANCH  28  30
HETATM   30  N1  UNL     1      22.716   3.709  16.353  1.00  0.00    -0.416 N 
ATOM     31  H1  UNL     1      22.827   3.206  15.472  1.00  0.00     0.153 HD
BRANCH  30  32
HETATM   32  C13 UNL     1      23.833   4.099  17.153  1.00  0.00     0.133 C 
BRANCH  32  33
HETATM   33  C14 UNL     1      23.634   3.638  18.619  1.00  0.00     0.138 C 
BRANCH  33  34
HETATM   34  N2  UNL     1      23.994   4.721  19.430  1.00  0.00    -0.401 N 
ATOM     35  H2  UNL     1      24.016   4.589  20.441  1.00  0.00     0.158 HD
BRANCH  34  36
HETATM   36  C15 UNL     1      24.323   5.971  18.914  1.00  0.00     0.057 C 
BRANCH  36  37
HETATM   37  C16 UNL     1      24.793   7.076  19.764  1.00  0.00     0.071 C 
BRANCH  37  38
HETATM   38  C17 UNL     1      23.999   8.322  19.854  1.00  0.00     0.234 C 
BRANCH  38  39
HETATM   39  N3  UNL     1      23.638   8.658  18.444  1.00  0.00    -0.079 N 
ATOM     40  H33 UNL     1      24.369   9.160  17.940  1.00  0.00     0.274 HD
ATOM     41  H32 UNL     1      23.602   7.849  17.824  1.00  0.00     0.274 HD
ATOM     42  H31 UNL     1      22.757   9.168  18.509  1.00  0.00     0.274 HD
ENDBRANCH  38  39
ENDBRANCH  37  38
ENDBRANCH  36  37
ENDBRANCH  34  36
ENDBRANCH  33  34
ENDBRANCH  32  33
ENDBRANCH  30  32
ENDBRANCH  28  30
ENDBRANCH  27  28
ENDBRANCH  26  27
ENDBRANCH  25  26
ENDBRANCH  23  25
ENDBRANCH   5  23
BRANCH   1  43
HETATM   43  O1  UNL     1      14.445   5.677  22.353  1.00  0.00    -0.385 OA
HETATM   44  C1  UNL     1      13.418   6.598  22.531  1.00  0.00     0.202 C 
ENDBRANCH   1  43
TORSDOF 14
ENDMDL
MODEL 5
REMARK VINA RESULT: -7.151128524      2.361      4.482
REMARK  14 active torsions:
REMARK  status: ('A' for Active; 'I' for Inactive)
REMARK    1  A    between atoms: O1_2  and  C2_3 
REMARK    2  A    between atoms: C6_7  and  C7_8 
REMARK    3  A    between atoms: C7_8  and  C8_10 
REMARK    4  A    between atoms: C8_10  and  C9_11 
REMARK    5  A    between atoms: C9_11  and  C10_12 
REMARK    6  A    between atoms: C10_12  and  C11_13 
REMARK    7  A    between atoms: C11_13  and  N1_15 
REMARK    8  A    between atoms: N1_15  and  C13_17 
REMARK    9  A    between atoms: C13_17  and  C14_18 
REMARK   10  A    between atoms: C14_18  and  N2_19 
REMARK   11  A    between atoms: N2_19  and  C15_21 
REMARK   12  A    between atoms: C15_21  and  C16_22 
REMARK   13  A    between atoms: C16_22  and  C17_23 
REMARK   14  A    between atoms: C17_23  and  N3_24 
ROOT
HETATM    1  C2  UNL     1      14.875   3.378  20.069  1.00  0.00     0.183 C 
HETATM    2  C3  UNL     1      15.342   4.468  19.177  1.00  0.00     0.021 C 
HETATM    3  C4  UNL     1      14.321   5.212  18.369  1.00  0.00     0.013 C 
HETATM    4  C5  UNL     1      16.392   5.330  19.797  1.00  0.00     0.013 A 
HETATM    5  C6  UNL     1      16.817   6.622  19.385  1.00  0.00     0.069 A 
HETATM    6  C18 UNL     1      16.224   6.237  20.811  1.00  0.00    -0.023 A 
HETATM    7  C19 UNL     1      15.348   7.266  21.220  1.00  0.00     0.011 C 
HETATM    8  C20 UNL     1      14.048   7.161  21.928  1.00  0.00     0.006 C 
HETATM    9  C21 UNL     1      13.869   6.289  23.078  1.00  0.00    -0.007 C 
HETATM   10  C22 UNL     1      12.993   6.841  24.236  1.00  0.00     0.005 C 
HETATM   11  C23 UNL     1      13.123   5.836  25.336  1.00  0.00     0.004 C 
HETATM   12  C24 UNL     1      13.143   4.396  25.030  1.00  0.00     0.043 C 
HETATM   13  C25 UNL     1      13.750   4.001  23.751  1.00  0.00     0.116 C 
HETATM   14  C26 UNL     1      15.234   3.983  23.716  1.00  0.00     0.161 C 
HETATM   15  N4  UNL     1      15.587   4.213  22.305  1.00  0.00    -0.375 N 
HETATM   16  C27 UNL     1      16.925   4.392  22.186  1.00  0.00     0.121 C 
HETATM   17  C28 UNL     1      17.174   5.898  21.926  1.00  0.00     0.030 C 
HETATM   18  C29 UNL     1      14.635   3.695  21.498  1.00  0.00     0.193 C 
HETATM   19  C30 UNL     1      13.288   4.443  21.453  1.00  0.00     0.075 C 
HETATM   20  C31 UNL     1      13.144   5.041  22.779  1.00  0.00     0.034 C 
HETATM   21  O3  UNL     1      14.212   2.508  22.173  1.00  0.00    -0.204 OA
HETATM   22  O4  UNL     1      13.367   2.805  23.172  1.00  0.00    -0.225 OA
ENDROOT
BRANCH   5  23
HETATM   23  C7  UNL     1      18.191   7.153  19.463  1.00  0.00     0.132 C 
HETATM   24  O2  UNL     1      18.289   8.334  19.773  1.00  0.00    -0.298 OA
BRANCH  23  25
HETATM   25  C8  UNL     1      19.394   6.354  19.185  1.00  0.00     0.079 C 
BRANCH  25  26
HETATM   26  C9  UNL     1      20.013   6.574  17.862  1.00  0.00     0.009 C 
BRANCH  26  27
HETATM   27  C10 UNL     1      21.485   6.742  17.813  1.00  0.00     0.024 C 
BRANCH  27  28
HETATM   28  C11 UNL     1      22.199   5.395  17.746  1.00  0.00     0.072 C 
HETATM   29  C12 UNL     1      22.726   5.160  16.326  1.00  0.00     0.031 C 
BRANCH  28  30
HETATM   30  N1  UNL     1      23.286   5.284  18.673  1.00  0.00    -0.416 N 
ATOM     31  H1  UNL     1      23.286   4.600  19.430  1.00  0.00     0.153 HD
BRANCH  30  32
HETATM   32  C13 UNL     1      24.370   6.193  18.469  1.00  0.00     0.133 C 
BRANCH  32  33
HETATM   33  C14 UNL     1      24.801   6.829  19.814  1.00  0.00     0.138 C 
BRANCH  33  34
HETATM   34  N2  UNL     1      24.559   8.204  19.702  1.00  0.00    -0.401 N 
ATOM     35  H2  UNL     1      25.244   8.782  19.215  1.00  0.00     0.158 HD
BRANCH  34  36
HETATM   36  C15 UNL     1      23.424   8.813  20.228  1.00  0.00     0.057 C 
BRANCH  36  37
HETATM   37  C16 UNL     1      22.702   8.266  21.388  1.00  0.00     0.071 C 
BRANCH  37  38
HETATM   38  C17 UNL     1      21.302   8.675  21.641  1.00  0.00     0.234 C 
BRANCH  38  39
HETATM   39  N3  UNL     1      20.928   9.529  20.475  1.00  0.00    -0.079 N 
ATOM     40  H33 UNL     1      20.784   9.007  19.611  1.00  0.00     0.274 HD
ATOM     41  H32 UNL     1      19.987   9.919  20.535  1.00  0.00     0.274 HD
ATOM     42  H31 UNL     1      21.663  10.234  20.413  1.00  0.00     0.274 HD
ENDBRANCH  38  39
ENDBRANCH  37  38
ENDBRANCH  36  37
ENDBRANCH  34  36
ENDBRANCH  33  34
ENDBRANCH  32  33
ENDBRANCH  30  32
ENDBRANCH  28  30
ENDBRANCH  27  28
ENDBRANCH  26  27
ENDBRANCH  25  26
ENDBRANCH  23  25
ENDBRANCH   5  23
BRANCH   1  43
HETATM   43  O1  UNL     1      13.673   2.888  19.546  1.00  0.00    -0.385 OA
HETATM   44  C1  UNL     1      13.826   1.651  18.931  1.00  0.00     0.202 C 
ENDBRANCH   1  43
TORSDOF 14
ENDMDL
