MODEL 1
REMARK VINA RESULT: -7.320147174      0.000      0.000
REMARK  13 active torsions:
REMARK  status: ('A' for Active; 'I' for Inactive)
REMARK    1  A    between atoms: O1_2  and  C2_3 
REMARK    2  A    between atoms: C2_3  and  C3_4 
REMARK    3  A    between atoms: C3_4  and  N1_5 
REMARK    4  A    between atoms: N1_5  and  C4_7 
REMARK    5  A    between atoms: C4_7  and  C5_8 
REMARK    6  A    between atoms: C5_8  and  N2_9 
REMARK    7  A    between atoms: N2_9  and  O2_11 
REMARK    8  A    between atoms: O2_11  and  C6_12 
REMARK    9  A    between atoms: C6_12  and  C7_13 
REMARK   10  A    between atoms: C8_14  and  C9_15 
REMARK   11  A    between atoms: C30_39  and  C31_40 
REMARK   12  A    between atoms: C31_40  and  N4_41 
REMARK   13  A    between atoms: C31_40  and  O4_45 
ROOT
HETATM    1  C9  UNL     1      16.443   6.663  21.947  1.00  0.00     0.053 C 
HETATM    2  C10 UNL     1      16.903   5.419  22.539  1.00  0.00     0.141 C 
HETATM    3  O3  UNL     1      17.871   4.819  22.347  1.00  0.00    -0.297 OA
HETATM    4  C11 UNL     1      15.973   4.829  23.590  1.00  0.00     0.085 C 
HETATM    5  C12 UNL     1      14.521   4.894  23.267  1.00  0.00     0.006 C 
HETATM    6  C13 UNL     1      13.594   4.362  24.251  1.00  0.00    -0.001 C 
HETATM    7  C14 UNL     1      14.271   3.319  25.149  1.00  0.00     0.034 C 
HETATM    8  C15 UNL     1      13.168   2.605  25.893  1.00  0.00    -0.001 C 
HETATM    9  C16 UNL     1      12.290   3.411  26.520  1.00  0.00     0.010 C 
HETATM   10  N3  UNL     1      11.104   3.156  27.312  1.00  0.00    -0.393 N 
ATOM     11  H3  UNL     1      10.891   2.318  27.853  1.00  0.00     0.159 HD
HETATM   12  C17 UNL     1      10.267   4.369  27.171  1.00  0.00     0.120 C 
HETATM   13  C18 UNL     1      11.356   5.452  27.155  1.00  0.00     0.035 C 
HETATM   14  C19 UNL     1      12.537   4.869  26.450  1.00  0.00     0.003 C 
HETATM   15  C20 UNL     1      13.790   5.228  27.263  1.00  0.00     0.022 C 
HETATM   16  C21 UNL     1      12.667   5.288  24.990  1.00  0.00     0.004 C 
HETATM   17  C22 UNL     1      12.927   6.757  24.937  1.00  0.00     0.007 C 
HETATM   18  C23 UNL     1      14.060   7.135  24.006  1.00  0.00     0.011 C 
HETATM   19  C24 UNL     1      14.113   6.283  22.788  1.00  0.00    -0.031 C 
HETATM   20  C25 UNL     1      12.696   6.208  22.275  1.00  0.00     0.016 C 
HETATM   21  C26 UNL     1      14.997   6.621  21.677  1.00  0.00    -0.018 C 
HETATM   22  C27 UNL     1      14.708   5.580  20.587  1.00  0.00     0.018 C 
HETATM   23  C28 UNL     1      14.786   7.939  20.991  1.00  0.00     0.012 C 
HETATM   24  C29 UNL     1      15.988   7.934  20.044  1.00  0.00     0.011 C 
HETATM   25  C30 UNL     1      17.026   7.014  20.619  1.00  0.00     0.062 C 
ENDROOT
BRANCH   1  26
HETATM   26  C8  UNL     1      16.934   7.767  22.862  1.00  0.00    -0.010 C 
HETATM   27  C7  UNL     1      18.104   8.555  22.650  1.00  0.00    -0.001 C 
BRANCH  27  28
HETATM   28  C6  UNL     1      19.475   8.224  22.247  1.00  0.00     0.228 C 
BRANCH  28  29
HETATM   29  O2  UNL     1      19.510   9.017  20.982  1.00  0.00    -0.281 OA
BRANCH  29  30
HETATM   30  N2  UNL     1      20.656   9.336  20.722  1.00  0.00    -0.301 N 
ATOM     31  H2  UNL     1      20.509  10.174  20.158  1.00  0.00     0.187 HD
BRANCH  30  32
HETATM   32  C5  UNL     1      22.007   9.254  20.729  1.00  0.00     0.165 C 
BRANCH  32  33
HETATM   33  C4  UNL     1      22.410   7.998  19.859  1.00  0.00     0.135 C 
BRANCH  33  34
HETATM   34  N1  UNL     1      21.299   7.448  19.207  1.00  0.00    -0.418 N 
ATOM     35  H1  UNL     1      20.369   7.559  19.610  1.00  0.00     0.153 HD
BRANCH  34  36
HETATM   36  C3  UNL     1      21.457   6.739  17.992  1.00  0.00     0.140 C 
BRANCH  36  37
HETATM   37  C2  UNL     1      20.282   7.048  17.079  1.00  0.00     0.186 C 
BRANCH  37  38
HETATM   38  O1  UNL     1      19.483   5.918  16.806  1.00  0.00    -0.394 OA
HETATM   39  C1  UNL     1      20.208   5.104  15.897  1.00  0.00     0.201 C 
ENDBRANCH  37  38
ENDBRANCH  36  37
ENDBRANCH  34  36
ENDBRANCH  33  34
ENDBRANCH  32  33
ENDBRANCH  30  32
ENDBRANCH  29  30
ENDBRANCH  28  29
ENDBRANCH  27  28
ENDBRANCH   1  26
BRANCH  25  40
HETATM   40  C31 UNL     1      17.508   6.069  19.664  1.00  0.00     0.321 C 
BRANCH  40  41
HETATM   41  N4  UNL     1      16.961   5.462  18.517  1.00  0.00    -0.053 N 
ATOM     42  H43 UNL     1      17.360   6.000  17.747  1.00  0.00     0.277 HD
ATOM     43  H42 UNL     1      17.429   4.556  18.477  1.00  0.00     0.277 HD
ATOM     44  H41 UNL     1      16.013   5.256  18.202  1.00  0.00     0.277 HD
ENDBRANCH  40  41
BRANCH  40  45
HETATM   45  O4  UNL     1      18.731   5.626  19.826  1.00  0.00    -0.369 OA
ATOM     46  H4  UNL     1      19.063   5.580  20.715  1.00  0.00     0.212 HD
ENDBRANCH  40  45
ENDBRANCH  25  40
TORSDOF 13
ENDMDL
MODEL 2
REMARK VINA RESULT: -7.183483330      1.348      2.967
REMARK  13 active torsions:
REMARK  status: ('A' for Active; 'I' for Inactive)
REMARK    1  A    between atoms: O1_2  and  C2_3 
REMARK    2  A    between atoms: C2_3  and  C3_4 
REMARK    3  A    between atoms: C3_4  and  N1_5 
REMARK    4  A    between atoms: N1_5  and  C4_7 
REMARK    5  A    between atoms: C4_7  and  C5_8 
REMARK    6  A    between atoms: C5_8  and  N2_9 
REMARK    7  A    between atoms: N2_9  and  O2_11 
REMARK    8  A    between atoms: O2_11  and  C6_12 
REMARK    9  A    between atoms: C6_12  and  C7_13 
REMARK   10  A    between atoms: C8_14  and  C9_15 
REMARK   11  A    between atoms: C30_39  and  C31_40 
REMARK   12  A    between atoms: C31_40  and  N4_41 
REMARK   13  A    between atoms: C31_40  and  O4_45 
ROOT
HETATM    1  C9  UNL     1      16.457   6.656  21.960  1.00  0.00     0.053 C 
HETATM    2  C10 UNL     1      16.899   5.394  22.527  1.00  0.00     0.141 C 
HETATM    3  O3  UNL     1      17.855   4.781  22.318  1.00  0.00    -0.297 OA
HETATM    4  C11 UNL     1      15.965   4.801  23.573  1.00  0.00     0.085 C 
HETATM    5  C12 UNL     1      14.512   4.896  23.260  1.00  0.00     0.006 C 
HETATM    6  C13 UNL     1      13.581   4.362  24.239  1.00  0.00    -0.001 C 
HETATM    7  C14 UNL     1      14.246   3.292  25.115  1.00  0.00     0.034 C 
HETATM    8  C15 UNL     1      13.135   2.583  25.853  1.00  0.00    -0.001 C 
HETATM    9  C16 UNL     1      12.274   3.392  26.499  1.00  0.00     0.010 C 
HETATM   10  N3  UNL     1      11.089   3.143  27.294  1.00  0.00    -0.393 N 
ATOM     11  H3  UNL     1      10.866   2.299  27.821  1.00  0.00     0.159 HD
HETATM   12  C17 UNL     1      10.272   4.372  27.179  1.00  0.00     0.120 C 
HETATM   13  C18 UNL     1      11.379   5.438  27.176  1.00  0.00     0.035 C 
HETATM   14  C19 UNL     1      12.546   4.847  26.454  1.00  0.00     0.003 C 
HETATM   15  C20 UNL     1      13.809   5.171  27.265  1.00  0.00     0.022 C 
HETATM   16  C21 UNL     1      12.674   5.290  25.000  1.00  0.00     0.004 C 
HETATM   17  C22 UNL     1      12.960   6.756  24.973  1.00  0.00     0.007 C 
HETATM   18  C23 UNL     1      14.093   7.130  24.041  1.00  0.00     0.011 C 
HETATM   19  C24 UNL     1      14.125   6.300  22.808  1.00  0.00    -0.031 C 
HETATM   20  C25 UNL     1      12.704   6.257  22.302  1.00  0.00     0.016 C 
HETATM   21  C26 UNL     1      15.009   6.643  21.698  1.00  0.00    -0.018 C 
HETATM   22  C27 UNL     1      14.695   5.627  20.591  1.00  0.00     0.018 C 
HETATM   23  C28 UNL     1      14.816   7.976  21.037  1.00  0.00     0.012 C 
HETATM   24  C29 UNL     1      16.012   7.968  20.082  1.00  0.00     0.011 C 
HETATM   25  C30 UNL     1      17.038   7.020  20.635  1.00  0.00     0.062 C 
ENDROOT
BRANCH   1  26
HETATM   26  C8  UNL     1      16.971   7.735  22.892  1.00  0.00    -0.010 C 
HETATM   27  C7  UNL     1      18.134   8.529  22.670  1.00  0.00    -0.001 C 
BRANCH  27  28
HETATM   28  C6  UNL     1      19.494   8.211  22.222  1.00  0.00     0.228 C 
BRANCH  28  29
HETATM   29  O2  UNL     1      19.658   9.339  21.257  1.00  0.00    -0.281 OA
BRANCH  29  30
HETATM   30  N2  UNL     1      20.772   9.309  20.766  1.00  0.00    -0.301 N 
ATOM     31  H2  UNL     1      20.551   9.280  19.770  1.00  0.00     0.187 HD
BRANCH  30  32
HETATM   32  C5  UNL     1      22.125   9.291  20.740  1.00  0.00     0.165 C 
BRANCH  32  33
HETATM   33  C4  UNL     1      22.619  10.791  20.712  1.00  0.00     0.135 C 
BRANCH  33  34
HETATM   34  N1  UNL     1      21.890  11.588  21.605  1.00  0.00    -0.418 N 
ATOM     35  H1  UNL     1      21.060  12.083  21.279  1.00  0.00     0.153 HD
BRANCH  34  36
HETATM   36  C3  UNL     1      22.297  11.712  22.955  1.00  0.00     0.140 C 
BRANCH  36  37
HETATM   37  C2  UNL     1      21.134  11.346  23.861  1.00  0.00     0.186 C 
BRANCH  37  38
HETATM   38  O1  UNL     1      19.896  11.836  23.395  1.00  0.00    -0.394 OA
HETATM   39  C1  UNL     1      18.952  11.646  24.440  1.00  0.00     0.201 C 
ENDBRANCH  37  38
ENDBRANCH  36  37
ENDBRANCH  34  36
ENDBRANCH  33  34
ENDBRANCH  32  33
ENDBRANCH  30  32
ENDBRANCH  29  30
ENDBRANCH  28  29
ENDBRANCH  27  28
ENDBRANCH   1  26
BRANCH  25  40
HETATM   40  C31 UNL     1      17.498   6.085  19.661  1.00  0.00     0.321 C 
BRANCH  40  41
HETATM   41  N4  UNL     1      16.927   5.492  18.518  1.00  0.00    -0.053 N 
ATOM     42  H43 UNL     1      16.136   4.966  18.889  1.00  0.00     0.277 HD
ATOM     43  H42 UNL     1      16.512   6.279  18.020  1.00  0.00     0.277 HD
ATOM     44  H41 UNL     1      17.283   4.896  17.770  1.00  0.00     0.277 HD
ENDBRANCH  40  41
BRANCH  40  45
HETATM   45  O4  UNL     1      18.723   5.636  19.794  1.00  0.00    -0.369 OA
ATOM     46  H4  UNL     1      18.845   4.694  19.773  1.00  0.00     0.212 HD
ENDBRANCH  40  45
ENDBRANCH  25  40
TORSDOF 13
ENDMDL
MODEL 3
REMARK VINA RESULT: -7.041260159      1.692      3.271
REMARK  13 active torsions:
REMARK  status: ('A' for Active; 'I' for Inactive)
REMARK    1  A    between atoms: O1_2  and  C2_3 
REMARK    2  A    between atoms: C2_3  and  C3_4 
REMARK    3  A    between atoms: C3_4  and  N1_5 
REMARK    4  A    between atoms: N1_5  and  C4_7 
REMARK    5  A    between atoms: C4_7  and  C5_8 
REMARK    6  A    between atoms: C5_8  and  N2_9 
REMARK    7  A    between atoms: N2_9  and  O2_11 
REMARK    8  A    between atoms: O2_11  and  C6_12 
REMARK    9  A    between atoms: C6_12  and  C7_13 
REMARK   10  A    between atoms: C8_14  and  C9_15 
REMARK   11  A    between atoms: C30_39  and  C31_40 
REMARK   12  A    between atoms: C31_40  and  N4_41 
REMARK   13  A    between atoms: C31_40  and  O4_45 
ROOT
HETATM    1  C9  UNL     1      16.445   6.652  21.974  1.00  0.00     0.053 C 
HETATM    2  C10 UNL     1      16.882   5.392  22.549  1.00  0.00     0.141 C 
HETATM    3  O3  UNL     1      17.836   4.774  22.344  1.00  0.00    -0.297 OA
HETATM    4  C11 UNL     1      15.947   4.810  23.599  1.00  0.00     0.085 C 
HETATM    5  C12 UNL     1      14.494   4.909  23.286  1.00  0.00     0.006 C 
HETATM    6  C13 UNL     1      13.562   4.385  24.270  1.00  0.00    -0.001 C 
HETATM    7  C14 UNL     1      14.223   3.318  25.152  1.00  0.00     0.034 C 
HETATM    8  C15 UNL     1      13.109   2.619  25.895  1.00  0.00    -0.001 C 
HETATM    9  C16 UNL     1      12.252   3.436  26.537  1.00  0.00     0.010 C 
HETATM   10  N3  UNL     1      11.066   3.196  27.334  1.00  0.00    -0.393 N 
ATOM     11  H3  UNL     1      10.839   2.357  27.867  1.00  0.00     0.159 HD
HETATM   12  C17 UNL     1      10.255   4.428  27.211  1.00  0.00     0.120 C 
HETATM   13  C18 UNL     1      11.365   5.489  27.201  1.00  0.00     0.035 C 
HETATM   14  C19 UNL     1      12.530   4.889  26.482  1.00  0.00     0.003 C 
HETATM   15  C20 UNL     1      13.795   5.212  27.290  1.00  0.00     0.022 C 
HETATM   16  C21 UNL     1      12.659   5.322  25.026  1.00  0.00     0.004 C 
HETATM   17  C22 UNL     1      12.950   6.786  24.988  1.00  0.00     0.007 C 
HETATM   18  C23 UNL     1      14.085   7.150  24.054  1.00  0.00     0.011 C 
HETATM   19  C24 UNL     1      14.112   6.312  22.826  1.00  0.00    -0.031 C 
HETATM   20  C25 UNL     1      12.691   6.272  22.321  1.00  0.00     0.016 C 
HETATM   21  C26 UNL     1      14.997   6.644  21.713  1.00  0.00    -0.018 C 
HETATM   22  C27 UNL     1      14.678   5.622  20.613  1.00  0.00     0.018 C 
HETATM   23  C28 UNL     1      14.809   7.973  21.044  1.00  0.00     0.012 C 
HETATM   24  C29 UNL     1      16.004   7.954  20.089  1.00  0.00     0.011 C 
HETATM   25  C30 UNL     1      17.027   7.006  20.647  1.00  0.00     0.062 C 
ENDROOT
BRANCH   1  26
HETATM   26  C8  UNL     1      16.964   7.735  22.899  1.00  0.00    -0.010 C 
HETATM   27  C7  UNL     1      18.124   8.532  22.665  1.00  0.00    -0.001 C 
BRANCH  27  28
HETATM   28  C6  UNL     1      19.480   8.217  22.206  1.00  0.00     0.228 C 
BRANCH  28  29
HETATM   29  O2  UNL     1      19.656   9.376  21.282  1.00  0.00    -0.281 OA
BRANCH  29  30
HETATM   30  N2  UNL     1      20.770   9.354  20.791  1.00  0.00    -0.301 N 
ATOM     31  H2  UNL     1      20.551   9.333  19.795  1.00  0.00     0.187 HD
BRANCH  30  32
HETATM   32  C5  UNL     1      22.124   9.339  20.766  1.00  0.00     0.165 C 
BRANCH  32  33
HETATM   33  C4  UNL     1      22.616  10.837  20.872  1.00  0.00     0.135 C 
BRANCH  33  34
HETATM   34  N1  UNL     1      21.886  11.550  21.833  1.00  0.00    -0.418 N 
ATOM     35  H1  UNL     1      21.088  12.116  21.544  1.00  0.00     0.153 HD
BRANCH  34  36
HETATM   36  C3  UNL     1      22.247  11.492  23.200  1.00  0.00     0.140 C 
BRANCH  36  37
HETATM   37  C2  UNL     1      23.761  11.430  23.313  1.00  0.00     0.186 C 
BRANCH  37  38
HETATM   38  O1  UNL     1      24.207  11.194  24.630  1.00  0.00    -0.394 OA
HETATM   39  C1  UNL     1      25.460  11.847  24.770  1.00  0.00     0.201 C 
ENDBRANCH  37  38
ENDBRANCH  36  37
ENDBRANCH  34  36
ENDBRANCH  33  34
ENDBRANCH  32  33
ENDBRANCH  30  32
ENDBRANCH  29  30
ENDBRANCH  28  29
ENDBRANCH  27  28
ENDBRANCH   1  26
BRANCH  25  40
HETATM   40  C31 UNL     1      17.482   6.062  19.679  1.00  0.00     0.321 C 
BRANCH  40  41
HETATM   41  N4  UNL     1      16.908   5.463  18.540  1.00  0.00    -0.053 N 
ATOM     42  H43 UNL     1      16.417   6.233  18.085  1.00  0.00     0.277 HD
ATOM     43  H42 UNL     1      17.709   5.269  17.940  1.00  0.00     0.277 HD
ATOM     44  H41 UNL     1      16.294   4.663  18.389  1.00  0.00     0.277 HD
ENDBRANCH  40  41
BRANCH  40  45
HETATM   45  O4  UNL     1      18.707   5.611  19.812  1.00  0.00    -0.369 OA
ATOM     46  H4  UNL     1      18.812   4.747  20.192  1.00  0.00     0.212 HD
ENDBRANCH  40  45
ENDBRANCH  25  40
TORSDOF 13
ENDMDL
MODEL 4
REMARK VINA RESULT: -6.978118717      1.506      2.400
REMARK  13 active torsions:
REMARK  status: ('A' for Active; 'I' for Inactive)
REMARK    1  A    between atoms: O1_2  and  C2_3 
REMARK    2  A    between atoms: C2_3  and  C3_4 
REMARK    3  A    between atoms: C3_4  and  N1_5 
REMARK    4  A    between atoms: N1_5  and  C4_7 
REMARK    5  A    between atoms: C4_7  and  C5_8 
REMARK    6  A    between atoms: C5_8  and  N2_9 
REMARK    7  A    between atoms: N2_9  and  O2_11 
REMARK    8  A    between atoms: O2_11  and  C6_12 
REMARK    9  A    between atoms: C6_12  and  C7_13 
REMARK   10  A    between atoms: C8_14  and  C9_15 
REMARK   11  A    between atoms: C30_39  and  C31_40 
REMARK   12  A    between atoms: C31_40  and  N4_41 
REMARK   13  A    between atoms: C31_40  and  O4_45 
ROOT
HETATM    1  C9  UNL     1      16.383   6.573  21.858  1.00  0.00     0.053 C 
HETATM    2  C10 UNL     1      16.839   5.293  22.370  1.00  0.00     0.141 C 
HETATM    3  O3  UNL     1      17.775   4.675  22.096  1.00  0.00    -0.297 OA
HETATM    4  C11 UNL     1      15.957   4.685  23.451  1.00  0.00     0.085 C 
HETATM    5  C12 UNL     1      14.490   4.805  23.221  1.00  0.00     0.006 C 
HETATM    6  C13 UNL     1      13.607   4.258  24.237  1.00  0.00    -0.001 C 
HETATM    7  C14 UNL     1      14.305   3.160  25.049  1.00  0.00     0.034 C 
HETATM    8  C15 UNL     1      13.227   2.446  25.830  1.00  0.00    -0.001 C 
HETATM    9  C16 UNL     1      12.413   3.249  26.542  1.00  0.00     0.010 C 
HETATM   10  N3  UNL     1      11.270   2.994  27.394  1.00  0.00    -0.393 N 
ATOM     11  H3  UNL     1      11.064   2.141  27.913  1.00  0.00     0.159 HD
HETATM   12  C17 UNL     1      10.463   4.235  27.352  1.00  0.00     0.120 C 
HETATM   13  C18 UNL     1      11.581   5.288  27.314  1.00  0.00     0.035 C 
HETATM   14  C19 UNL     1      12.700   4.702  26.515  1.00  0.00     0.003 C 
HETATM   15  C20 UNL     1      14.009   4.991  27.264  1.00  0.00     0.022 C 
HETATM   16  C21 UNL     1      12.755   5.178  25.068  1.00  0.00     0.004 C 
HETATM   17  C22 UNL     1      13.057   6.640  25.059  1.00  0.00     0.007 C 
HETATM   18  C23 UNL     1      14.142   7.024  24.076  1.00  0.00     0.011 C 
HETATM   19  C24 UNL     1      14.096   6.223  22.824  1.00  0.00    -0.031 C 
HETATM   20  C25 UNL     1      12.650   6.209  22.395  1.00  0.00     0.016 C 
HETATM   21  C26 UNL     1      14.923   6.583  21.675  1.00  0.00    -0.018 C 
HETATM   22  C27 UNL     1      14.537   5.597  20.564  1.00  0.00     0.018 C 
HETATM   23  C28 UNL     1      14.712   7.933  21.057  1.00  0.00     0.012 C 
HETATM   24  C29 UNL     1      15.854   7.934  20.039  1.00  0.00     0.011 C 
HETATM   25  C30 UNL     1      16.896   6.962  20.512  1.00  0.00     0.062 C 
ENDROOT
BRANCH   1  26
HETATM   26  C8  UNL     1      16.961   7.623  22.785  1.00  0.00    -0.010 C 
HETATM   27  C7  UNL     1      18.131   8.397  22.527  1.00  0.00    -0.001 C 
BRANCH  27  28
HETATM   28  C6  UNL     1      19.462   8.059  22.014  1.00  0.00     0.228 C 
BRANCH  28  29
HETATM   29  O2  UNL     1      19.891   9.439  21.637  1.00  0.00    -0.281 OA
BRANCH  29  30
HETATM   30  N2  UNL     1      20.084  10.103  22.639  1.00  0.00    -0.301 N 
ATOM     31  H2  UNL     1      19.187  10.578  22.742  1.00  0.00     0.187 HD
BRANCH  30  32
HETATM   32  C5  UNL     1      20.768  10.594  23.699  1.00  0.00     0.165 C 
BRANCH  32  33
HETATM   33  C4  UNL     1      21.647  11.799  23.179  1.00  0.00     0.135 C 
BRANCH  33  34
HETATM   34  N1  UNL     1      21.840  11.734  21.793  1.00  0.00    -0.418 N 
ATOM     35  H1  UNL     1      21.033  11.741  21.169  1.00  0.00     0.153 HD
BRANCH  34  36
HETATM   36  C3  UNL     1      23.145  11.660  21.251  1.00  0.00     0.140 C 
BRANCH  36  37
HETATM   37  C2  UNL     1      23.321  10.318  20.559  1.00  0.00     0.186 C 
BRANCH  37  38
HETATM   38  O1  UNL     1      23.092   9.221  21.415  1.00  0.00    -0.394 OA
HETATM   39  C1  UNL     1      23.124   8.051  20.611  1.00  0.00     0.201 C 
ENDBRANCH  37  38
ENDBRANCH  36  37
ENDBRANCH  34  36
ENDBRANCH  33  34
ENDBRANCH  32  33
ENDBRANCH  30  32
ENDBRANCH  29  30
ENDBRANCH  28  29
ENDBRANCH  27  28
ENDBRANCH   1  26
BRANCH  25  40
HETATM   40  C31 UNL     1      17.291   6.045  19.493  1.00  0.00     0.321 C 
BRANCH  40  41
HETATM   41  N4  UNL     1      16.624   5.411  18.426  1.00  0.00    -0.053 N 
ATOM     42  H43 UNL     1      15.784   5.028  18.861  1.00  0.00     0.277 HD
ATOM     43  H42 UNL     1      16.294   6.187  17.852  1.00  0.00     0.277 HD
ATOM     44  H41 UNL     1      16.886   4.701  17.742  1.00  0.00     0.277 HD
ENDBRANCH  40  41
BRANCH  40  45
HETATM   45  O4  UNL     1      18.547   5.667  19.481  1.00  0.00    -0.369 OA
ATOM     46  H4  UNL     1      19.066   5.911  18.724  1.00  0.00     0.212 HD
ENDBRANCH  40  45
ENDBRANCH  25  40
TORSDOF 13
ENDMDL
MODEL 5
REMARK VINA RESULT: -6.702190180      1.659      2.900
REMARK  13 active torsions:
REMARK  status: ('A' for Active; 'I' for Inactive)
REMARK    1  A    between atoms: O1_2  and  C2_3 
REMARK    2  A    between atoms: C2_3  and  C3_4 
REMARK    3  A    between atoms: C3_4  and  N1_5 
REMARK    4  A    between atoms: N1_5  and  C4_7 
REMARK    5  A    between atoms: C4_7  and  C5_8 
REMARK    6  A    between atoms: C5_8  and  N2_9 
REMARK    7  A    between atoms: N2_9  and  O2_11 
REMARK    8  A    between atoms: O2_11  and  C6_12 
REMARK    9  A    between atoms: C6_12  and  C7_13 
REMARK   10  A    between atoms: C8_14  and  C9_15 
REMARK   11  A    between atoms: C30_39  and  C31_40 
REMARK   12  A    between atoms: C31_40  and  N4_41 
REMARK   13  A    between atoms: C31_40  and  O4_45 
ROOT
HETATM    1  C9  UNL     1      16.169   5.310  20.344  1.00  0.00     0.053 C 
HETATM    2  C10 UNL     1      16.965   4.953  21.505  1.00  0.00     0.141 C 
HETATM    3  O3  UNL     1      18.090   4.706  21.586  1.00  0.00    -0.297 OA
HETATM    4  C11 UNL     1      16.199   4.920  22.820  1.00  0.00     0.085 C 
HETATM    5  C12 UNL     1      14.841   4.312  22.753  1.00  0.00     0.006 C 
HETATM    6  C13 UNL     1      14.063   4.278  23.980  1.00  0.00    -0.001 C 
HETATM    7  C14 UNL     1      14.970   4.325  25.216  1.00  0.00     0.034 C 
HETATM    8  C15 UNL     1      14.108   3.955  26.400  1.00  0.00    -0.001 C 
HETATM    9  C16 UNL     1      12.961   4.652  26.509  1.00  0.00     0.010 C 
HETATM   10  N3  UNL     1      11.865   4.612  27.456  1.00  0.00    -0.393 N 
ATOM     11  H3  UNL     1      11.898   4.301  28.426  1.00  0.00     0.159 HD
HETATM   12  C17 UNL     1      10.687   5.119  26.716  1.00  0.00     0.120 C 
HETATM   13  C18 UNL     1      11.349   6.209  25.860  1.00  0.00     0.035 C 
HETATM   14  C19 UNL     1      12.713   5.713  25.506  1.00  0.00     0.003 C 
HETATM   15  C20 UNL     1      13.700   6.871  25.713  1.00  0.00     0.022 C 
HETATM   16  C21 UNL     1      12.820   5.116  24.107  1.00  0.00     0.004 C 
HETATM   17  C22 UNL     1      12.580   6.200  23.108  1.00  0.00     0.007 C 
HETATM   18  C23 UNL     1      13.598   6.221  21.987  1.00  0.00     0.011 C 
HETATM   19  C24 UNL     1      14.036   4.860  21.580  1.00  0.00    -0.031 C 
HETATM   20  C25 UNL     1      12.775   4.041  21.449  1.00  0.00     0.016 C 
HETATM   21  C26 UNL     1      14.849   4.662  20.383  1.00  0.00    -0.018 C 
HETATM   22  C27 UNL     1      15.017   3.143  20.244  1.00  0.00     0.018 C 
HETATM   23  C28 UNL     1      14.270   5.089  19.067  1.00  0.00     0.012 C 
HETATM   24  C29 UNL     1      15.481   4.852  18.162  1.00  0.00     0.011 C 
HETATM   25  C30 UNL     1      16.714   4.890  19.019  1.00  0.00     0.062 C 
ENDROOT
BRANCH   1  26
HETATM   26  C8  UNL     1      16.183   6.824  20.279  1.00  0.00    -0.010 C 
HETATM   27  C7  UNL     1      17.210   7.615  19.681  1.00  0.00    -0.001 C 
BRANCH  27  28
HETATM   28  C6  UNL     1      18.675   7.563  19.738  1.00  0.00     0.228 C 
BRANCH  28  29
HETATM   29  O2  UNL     1      18.943   7.868  18.301  1.00  0.00    -0.281 OA
BRANCH  29  30
HETATM   30  N2  UNL     1      19.617   6.983  17.806  1.00  0.00    -0.301 N 
ATOM     31  H2  UNL     1      19.231   6.156  18.262  1.00  0.00     0.187 HD
BRANCH  30  32
HETATM   32  C5  UNL     1      20.569   6.431  17.017  1.00  0.00     0.165 C 
BRANCH  32  33
HETATM   33  C4  UNL     1      21.931   6.476  17.814  1.00  0.00     0.135 C 
BRANCH  33  34
HETATM   34  N1  UNL     1      22.036   7.641  18.587  1.00  0.00    -0.418 N 
ATOM     35  H1  UNL     1      21.390   8.414  18.426  1.00  0.00     0.153 HD
BRANCH  34  36
HETATM   36  C3  UNL     1      23.030   7.753  19.588  1.00  0.00     0.140 C 
BRANCH  36  37
HETATM   37  C2  UNL     1      22.734   8.969  20.449  1.00  0.00     0.186 C 
BRANCH  37  38
HETATM   38  O1  UNL     1      23.415  10.128  20.020  1.00  0.00    -0.394 OA
HETATM   39  C1  UNL     1      22.763  11.240  20.617  1.00  0.00     0.201 C 
ENDBRANCH  37  38
ENDBRANCH  36  37
ENDBRANCH  34  36
ENDBRANCH  33  34
ENDBRANCH  32  33
ENDBRANCH  30  32
ENDBRANCH  29  30
ENDBRANCH  28  29
ENDBRANCH  27  28
ENDBRANCH   1  26
BRANCH  25  40
HETATM   40  C31 UNL     1      17.563   3.764  18.807  1.00  0.00     0.321 C 
BRANCH  40  41
HETATM   41  N4  UNL     1      17.340   2.393  18.572  1.00  0.00    -0.053 N 
ATOM     42  H43 UNL     1      16.430   2.221  18.999  1.00  0.00     0.277 HD
ATOM     43  H42 UNL     1      17.174   2.344  17.567  1.00  0.00     0.277 HD
ATOM     44  H41 UNL     1      17.865   1.541  18.770  1.00  0.00     0.277 HD
ENDBRANCH  40  41
BRANCH  40  45
HETATM   45  O4  UNL     1      18.856   3.979  18.812  1.00  0.00    -0.369 OA
ATOM     46  H4  UNL     1      19.396   3.367  19.298  1.00  0.00     0.212 HD
ENDBRANCH  40  45
ENDBRANCH  25  40
TORSDOF 13
ENDMDL
