MODEL 1
REMARK VINA RESULT: -6.964437412      0.000      0.000
REMARK  16 active torsions:
REMARK  status: ('A' for Active; 'I' for Inactive)
REMARK    1  A    between atoms: C2_2  and  C3_3 
REMARK    2  A    between atoms: C3_3  and  C4_4 
REMARK    3  A    between atoms: C4_4  and  N1_5 
REMARK    4  A    between atoms: N1_5  and  C5_6 
REMARK       I    between atoms: N1_5  and  C9_10 
REMARK    5  A    between atoms: C5_6  and  C6_7 
REMARK    6  A    between atoms: C6_7  and  C7_8 
REMARK    7  A    between atoms: C9_10  and  C10_12 
REMARK    8  A    between atoms: C13_15  and  O2_16 
REMARK    9  A    between atoms: C14_18  and  C15_19 
REMARK   10  A    between atoms: C16_20  and  C17_21 
REMARK   11  A    between atoms: C18_22  and  O3_23 
REMARK   12  A    between atoms: C20_26  and  O4_27 
REMARK   13  A    between atoms: C23_31  and  C24_32 
REMARK   14  A    between atoms: C24_32  and  C25_33 
REMARK   15  A    between atoms: C25_33  and  C26_34 
REMARK   16  A    between atoms: C26_34  and  O5_35 
ROOT
HETATM    1  C10 UNL     1      22.937   8.762  19.794  1.00  0.00     0.115 C 
HETATM    2  C11 UNL     1      24.035   9.742  20.256  1.00  0.00     0.020 C 
HETATM    3  C12 UNL     1      23.431  10.557  21.378  1.00  0.00     0.042 C 
HETATM    4  C13 UNL     1      22.004  10.146  21.348  1.00  0.00     0.097 C 
HETATM    5  C14 UNL     1      21.159  10.496  22.476  1.00  0.00     0.052 C 
HETATM    6  C23 UNL     1      20.074   9.430  22.800  1.00  0.00     0.035 C 
HETATM    7  C27 UNL     1      19.837   8.531  21.697  1.00  0.00     0.109 C 
HETATM    8  C28 UNL     1      19.066   7.249  21.952  1.00  0.00     0.208 C 
HETATM    9  O6  UNL     1      18.630   7.329  20.631  1.00  0.00    -0.385 OA
HETATM   10  C29 UNL     1      18.660   8.717  20.764  1.00  0.00     0.208 C 
HETATM   11  O7  UNL     1      20.915   8.173  20.908  1.00  0.00    -0.361 OA
HETATM   12  C30 UNL     1      22.134   8.648  21.102  1.00  0.00     0.102 C 
HETATM   13  C31 UNL     1      22.998   7.939  22.081  1.00  0.00     0.050 C 
ENDROOT
BRANCH   5  14
HETATM   14  C15 UNL     1      21.847  10.899  23.732  1.00  0.00    -0.022 C 
HETATM   15  C16 UNL     1      22.116  12.168  24.024  1.00  0.00    -0.023 C 
BRANCH  15  16
HETATM   16  C17 UNL     1      22.786  12.648  25.231  1.00  0.00     0.043 C 
HETATM   17  C18 UNL     1      24.298  12.566  25.172  1.00  0.00     0.128 C 
HETATM   18  C19 UNL     1      24.636  13.032  26.596  1.00  0.00     0.064 C 
HETATM   19  C20 UNL     1      23.571  12.368  27.440  1.00  0.00     0.125 C 
HETATM   20  C21 UNL     1      22.493  11.887  26.481  1.00  0.00     0.020 C 
HETATM   21  C22 UNL     1      21.161  12.380  27.032  1.00  0.00     0.013 C 
BRANCH  17  22
HETATM   22  O3  UNL     1      24.768  11.279  25.073  1.00  0.00    -0.395 OA
ATOM     23  H3  UNL     1      24.621  10.892  24.217  1.00  0.00     0.210 HD
ENDBRANCH  17  22
BRANCH  19  24
HETATM   24  O4  UNL     1      24.077  11.319  28.205  1.00  0.00    -0.395 OA
ATOM     25  H4  UNL     1      24.551  10.685  27.679  1.00  0.00     0.210 HD
ENDBRANCH  19  24
ENDBRANCH  15  16
ENDBRANCH   5  14
BRANCH   4  26
HETATM   26  O2  UNL     1      21.474  10.651  20.133  1.00  0.00    -0.386 OA
ATOM     27  H2  UNL     1      20.603  10.969  20.337  1.00  0.00     0.210 HD
ENDBRANCH   4  26
BRANCH   6  28
HETATM   28  C24 UNL     1      18.986  10.178  23.488  1.00  0.00     0.010 C 
BRANCH  28  29
HETATM   29  C25 UNL     1      18.744  10.007  24.930  1.00  0.00     0.027 C 
BRANCH  29  30
HETATM   30  C26 UNL     1      18.055   8.613  25.141  1.00  0.00     0.164 C 
BRANCH  30  31
HETATM   31  O5  UNL     1      18.086   8.415  26.519  1.00  0.00    -0.401 OA
ATOM     32  H5  UNL     1      17.851   7.501  26.633  1.00  0.00     0.209 HD
ENDBRANCH  30  31
ENDBRANCH  29  30
ENDBRANCH  28  29
ENDBRANCH   6  28
BRANCH   1  33
HETATM   33  C9  UNL     1      23.558   7.478  19.444  1.00  0.00     0.227 C 
HETATM   34  N1  UNL     1      23.004   6.540  18.530  1.00  0.00    -0.352 N 
HETATM   35  O1  UNL     1      24.673   7.154  19.984  1.00  0.00    -0.273 OA
BRANCH  34  36
HETATM   36  C4  UNL     1      21.793   6.824  17.819  1.00  0.00     0.125 C 
BRANCH  36  37
HETATM   37  C3  UNL     1      20.782   5.676  17.891  1.00  0.00     0.020 C 
BRANCH  37  38
HETATM   38  C2  UNL     1      20.486   5.201  16.464  1.00  0.00    -0.003 C 
HETATM   39  C1  UNL     1      20.588   3.710  16.367  1.00  0.00     0.005 C 
ENDBRANCH  37  38
ENDBRANCH  36  37
ENDBRANCH  34  36
BRANCH  34  40
HETATM   40  C5  UNL     1      23.689   5.263  18.398  1.00  0.00     0.125 C 
BRANCH  40  41
HETATM   41  C6  UNL     1      24.316   5.078  17.049  1.00  0.00     0.020 C 
BRANCH  41  42
HETATM   42  C7  UNL     1      24.396   3.590  16.695  1.00  0.00    -0.003 C 
HETATM   43  C8  UNL     1      23.936   2.787  17.889  1.00  0.00     0.005 C 
ENDBRANCH  41  42
ENDBRANCH  40  41
ENDBRANCH  34  40
ENDBRANCH   1  33
TORSDOF 16
ENDMDL
MODEL 2
REMARK VINA RESULT: -6.733601956      2.437      8.691
REMARK  16 active torsions:
REMARK  status: ('A' for Active; 'I' for Inactive)
REMARK    1  A    between atoms: C2_2  and  C3_3 
REMARK    2  A    between atoms: C3_3  and  C4_4 
REMARK    3  A    between atoms: C4_4  and  N1_5 
REMARK    4  A    between atoms: N1_5  and  C5_6 
REMARK       I    between atoms: N1_5  and  C9_10 
REMARK    5  A    between atoms: C5_6  and  C6_7 
REMARK    6  A    between atoms: C6_7  and  C7_8 
REMARK    7  A    between atoms: C9_10  and  C10_12 
REMARK    8  A    between atoms: C13_15  and  O2_16 
REMARK    9  A    between atoms: C14_18  and  C15_19 
REMARK   10  A    between atoms: C16_20  and  C17_21 
REMARK   11  A    between atoms: C18_22  and  O3_23 
REMARK   12  A    between atoms: C20_26  and  O4_27 
REMARK   13  A    between atoms: C23_31  and  C24_32 
REMARK   14  A    between atoms: C24_32  and  C25_33 
REMARK   15  A    between atoms: C25_33  and  C26_34 
REMARK   16  A    between atoms: C26_34  and  O5_35 
ROOT
HETATM    1  C10 UNL     1      23.033  10.645  22.919  1.00  0.00     0.115 C 
HETATM    2  C11 UNL     1      23.945  10.129  21.786  1.00  0.00     0.020 C 
HETATM    3  C12 UNL     1      23.135   9.105  21.023  1.00  0.00     0.042 C 
HETATM    4  C13 UNL     1      21.922   8.954  21.867  1.00  0.00     0.097 C 
HETATM    5  C14 UNL     1      20.770   8.271  21.305  1.00  0.00     0.052 C 
HETATM    6  C23 UNL     1      19.406   8.842  21.790  1.00  0.00     0.035 C 
HETATM    7  C27 UNL     1      19.534   9.629  22.992  1.00  0.00     0.109 C 
HETATM    8  C28 UNL     1      18.378  10.520  23.409  1.00  0.00     0.208 C 
HETATM    9  O6  UNL     1      18.797  10.333  24.724  1.00  0.00    -0.385 OA
HETATM   10  C29 UNL     1      19.207   9.053  24.353  1.00  0.00     0.208 C 
HETATM   11  O7  UNL     1      20.675  10.393  23.150  1.00  0.00    -0.361 OA
HETATM   12  C30 UNL     1      21.660  10.401  22.267  1.00  0.00     0.102 C 
HETATM   13  C31 UNL     1      21.549  11.343  21.124  1.00  0.00     0.050 C 
ENDROOT
BRANCH   5  14
HETATM   14  C15 UNL     1      20.740   8.106  19.827  1.00  0.00    -0.022 C 
HETATM   15  C16 UNL     1      21.325   7.085  19.209  1.00  0.00    -0.023 C 
BRANCH  15  16
HETATM   16  C17 UNL     1      21.343   6.849  17.768  1.00  0.00     0.043 C 
HETATM   17  C18 UNL     1      19.994   7.019  17.097  1.00  0.00     0.128 C 
HETATM   18  C19 UNL     1      20.363   6.598  15.667  1.00  0.00     0.064 C 
HETATM   19  C20 UNL     1      21.301   5.431  15.880  1.00  0.00     0.125 C 
HETATM   20  C21 UNL     1      21.716   5.468  17.343  1.00  0.00     0.020 C 
HETATM   21  C22 UNL     1      23.236   5.360  17.371  1.00  0.00     0.013 C 
BRANCH  17  22
HETATM   22  O3  UNL     1      19.056   6.112  17.529  1.00  0.00    -0.395 OA
ATOM     23  H3  UNL     1      18.871   6.179  18.458  1.00  0.00     0.210 HD
ENDBRANCH  17  22
BRANCH  19  24
HETATM   24  O4  UNL     1      20.715   4.212  15.547  1.00  0.00    -0.395 OA
ATOM     25  H4  UNL     1      21.236   3.718  14.926  1.00  0.00     0.210 HD
ENDBRANCH  19  24
ENDBRANCH  15  16
ENDBRANCH   5  14
BRANCH   4  26
HETATM   26  O2  UNL     1      22.352   8.335  23.068  1.00  0.00    -0.386 OA
ATOM     27  H2  UNL     1      22.620   9.040  23.646  1.00  0.00     0.210 HD
ENDBRANCH   4  26
BRANCH   6  28
HETATM   28  C24 UNL     1      18.442   7.716  21.653  1.00  0.00     0.010 C 
BRANCH  28  29
HETATM   29  C25 UNL     1      16.997   7.967  21.526  1.00  0.00     0.027 C 
BRANCH  29  30
HETATM   30  C26 UNL     1      16.500   7.263  20.214  1.00  0.00     0.164 C 
BRANCH  30  31
HETATM   31  O5  UNL     1      17.349   7.743  19.220  1.00  0.00    -0.401 OA
ATOM     32  H5  UNL     1      16.771   7.958  18.497  1.00  0.00     0.209 HD
ENDBRANCH  30  31
ENDBRANCH  29  30
ENDBRANCH  28  29
ENDBRANCH   6  28
BRANCH   1  33
HETATM   33  C9  UNL     1      23.276  12.080  23.111  1.00  0.00     0.227 C 
HETATM   34  N1  UNL     1      23.182  12.750  24.363  1.00  0.00    -0.352 N 
HETATM   35  O1  UNL     1      23.595  12.803  22.103  1.00  0.00    -0.273 OA
BRANCH  34  36
HETATM   36  C4  UNL     1      22.895  12.032  25.568  1.00  0.00     0.125 C 
BRANCH  36  37
HETATM   37  C3  UNL     1      24.038  12.104  26.585  1.00  0.00     0.020 C 
BRANCH  37  38
HETATM   38  C2  UNL     1      23.540  11.530  27.916  1.00  0.00    -0.003 C 
HETATM   39  C1  UNL     1      22.042  11.530  27.968  1.00  0.00     0.005 C 
ENDBRANCH  37  38
ENDBRANCH  36  37
ENDBRANCH  34  36
BRANCH  34  40
HETATM   40  C5  UNL     1      23.331  14.198  24.350  1.00  0.00     0.125 C 
BRANCH  40  41
HETATM   41  C6  UNL     1      22.019  14.916  24.446  1.00  0.00     0.020 C 
BRANCH  41  42
HETATM   42  C7  UNL     1      21.604  15.078  25.911  1.00  0.00    -0.003 C 
HETATM   43  C8  UNL     1      20.302  14.343  26.126  1.00  0.00     0.005 C 
ENDBRANCH  41  42
ENDBRANCH  40  41
ENDBRANCH  34  40
ENDBRANCH   1  33
TORSDOF 16
ENDMDL
MODEL 3
REMARK VINA RESULT: -6.723359331      4.680      7.063
REMARK  16 active torsions:
REMARK  status: ('A' for Active; 'I' for Inactive)
REMARK    1  A    between atoms: C2_2  and  C3_3 
REMARK    2  A    between atoms: C3_3  and  C4_4 
REMARK    3  A    between atoms: C4_4  and  N1_5 
REMARK    4  A    between atoms: N1_5  and  C5_6 
REMARK       I    between atoms: N1_5  and  C9_10 
REMARK    5  A    between atoms: C5_6  and  C6_7 
REMARK    6  A    between atoms: C6_7  and  C7_8 
REMARK    7  A    between atoms: C9_10  and  C10_12 
REMARK    8  A    between atoms: C13_15  and  O2_16 
REMARK    9  A    between atoms: C14_18  and  C15_19 
REMARK   10  A    between atoms: C16_20  and  C17_21 
REMARK   11  A    between atoms: C18_22  and  O3_23 
REMARK   12  A    between atoms: C20_26  and  O4_27 
REMARK   13  A    between atoms: C23_31  and  C24_32 
REMARK   14  A    between atoms: C24_32  and  C25_33 
REMARK   15  A    between atoms: C25_33  and  C26_34 
REMARK   16  A    between atoms: C26_34  and  O5_35 
ROOT
HETATM    1  C10 UNL     1      15.265   6.339  20.245  1.00  0.00     0.115 C 
HETATM    2  C11 UNL     1      16.125   7.505  19.717  1.00  0.00     0.020 C 
HETATM    3  C12 UNL     1      16.823   8.097  20.921  1.00  0.00     0.042 C 
HETATM    4  C13 UNL     1      16.176   7.386  22.054  1.00  0.00     0.097 C 
HETATM    5  C14 UNL     1      16.793   7.472  23.366  1.00  0.00     0.052 C 
HETATM    6  C23 UNL     1      16.645   6.175  24.213  1.00  0.00     0.035 C 
HETATM    7  C27 UNL     1      15.592   5.317  23.728  1.00  0.00     0.109 C 
HETATM    8  C28 UNL     1      15.532   3.883  24.223  1.00  0.00     0.208 C 
HETATM    9  O6  UNL     1      14.153   3.947  24.033  1.00  0.00    -0.385 OA
HETATM   10  C29 UNL     1      14.225   5.297  24.376  1.00  0.00     0.208 C 
HETATM   11  O7  UNL     1      15.384   5.253  22.362  1.00  0.00    -0.361 OA
HETATM   12  C30 UNL     1      16.080   5.971  21.497  1.00  0.00     0.102 C 
HETATM   13  C31 UNL     1      17.372   5.410  21.023  1.00  0.00     0.050 C 
ENDROOT
BRANCH   5  14
HETATM   14  C15 UNL     1      18.205   7.937  23.417  1.00  0.00    -0.022 C 
HETATM   15  C16 UNL     1      18.531   9.211  23.616  1.00  0.00    -0.023 C 
BRANCH  15  16
HETATM   16  C17 UNL     1      19.887   9.750  23.680  1.00  0.00     0.043 C 
HETATM   17  C18 UNL     1      19.965  11.163  24.223  1.00  0.00     0.128 C 
HETATM   18  C19 UNL     1      21.467  11.425  24.045  1.00  0.00     0.064 C 
HETATM   19  C20 UNL     1      21.775  10.785  22.710  1.00  0.00     0.125 C 
HETATM   20  C21 UNL     1      20.590   9.894  22.371  1.00  0.00     0.020 C 
HETATM   21  C22 UNL     1      21.158   8.533  21.988  1.00  0.00     0.013 C 
BRANCH  17  22
HETATM   22  O3  UNL     1      19.322  12.084  23.431  1.00  0.00    -0.395 OA
ATOM     23  H3  UNL     1      19.399  12.974  23.755  1.00  0.00     0.210 HD
ENDBRANCH  17  22
BRANCH  19  24
HETATM   24  O4  UNL     1      22.006  11.728  21.710  1.00  0.00    -0.395 OA
ATOM     25  H4  UNL     1      21.318  12.381  21.665  1.00  0.00     0.210 HD
ENDBRANCH  19  24
ENDBRANCH  15  16
ENDBRANCH   5  14
BRANCH   4  26
HETATM   26  O2  UNL     1      14.832   7.837  22.086  1.00  0.00    -0.386 OA
ATOM     27  H2  UNL     1      14.298   7.063  22.221  1.00  0.00     0.210 HD
ENDBRANCH   4  26
BRANCH   6  28
HETATM   28  C24 UNL     1      16.741   6.623  25.629  1.00  0.00     0.010 C 
BRANCH  28  29
HETATM   29  C25 UNL     1      16.016   7.815  26.099  1.00  0.00     0.027 C 
BRANCH  29  30
HETATM   30  C26 UNL     1      17.000   8.660  26.982  1.00  0.00     0.164 C 
BRANCH  30  31
HETATM   31  O5  UNL     1      16.189   9.615  27.590  1.00  0.00    -0.401 OA
ATOM     32  H5  UNL     1      16.196   9.381  28.511  1.00  0.00     0.209 HD
ENDBRANCH  30  31
ENDBRANCH  29  30
ENDBRANCH  28  29
ENDBRANCH   6  28
BRANCH   1  33
HETATM   33  C9  UNL     1      15.286   5.247  19.263  1.00  0.00     0.227 C 
HETATM   34  N1  UNL     1      14.350   4.176  19.233  1.00  0.00    -0.352 N 
HETATM   35  O1  UNL     1      16.197   5.230  18.363  1.00  0.00    -0.273 OA
BRANCH  34  36
HETATM   36  C4  UNL     1      13.251   4.125  20.150  1.00  0.00     0.125 C 
BRANCH  36  37
HETATM   37  C3  UNL     1      12.673   2.716  20.302  1.00  0.00     0.020 C 
BRANCH  37  38
HETATM   38  C2  UNL     1      13.496   1.965  21.356  1.00  0.00    -0.003 C 
HETATM   39  C1  UNL     1      13.843   0.588  20.878  1.00  0.00     0.005 C 
ENDBRANCH  37  38
ENDBRANCH  36  37
ENDBRANCH  34  36
BRANCH  34  40
HETATM   40  C5  UNL     1      14.595   3.112  18.270  1.00  0.00     0.125 C 
BRANCH  40  41
HETATM   41  C6  UNL     1      13.781   3.262  17.021  1.00  0.00     0.020 C 
BRANCH  41  42
HETATM   42  C7  UNL     1      13.609   1.907  16.329  1.00  0.00    -0.003 C 
HETATM   43  C8  UNL     1      12.388   1.227  16.901  1.00  0.00     0.005 C 
ENDBRANCH  41  42
ENDBRANCH  40  41
ENDBRANCH  34  40
ENDBRANCH   1  33
TORSDOF 16
ENDMDL
MODEL 4
REMARK VINA RESULT: -6.690183907      4.199      6.566
REMARK  16 active torsions:
REMARK  status: ('A' for Active; 'I' for Inactive)
REMARK    1  A    between atoms: C2_2  and  C3_3 
REMARK    2  A    between atoms: C3_3  and  C4_4 
REMARK    3  A    between atoms: C4_4  and  N1_5 
REMARK    4  A    between atoms: N1_5  and  C5_6 
REMARK       I    between atoms: N1_5  and  C9_10 
REMARK    5  A    between atoms: C5_6  and  C6_7 
REMARK    6  A    between atoms: C6_7  and  C7_8 
REMARK    7  A    between atoms: C9_10  and  C10_12 
REMARK    8  A    between atoms: C13_15  and  O2_16 
REMARK    9  A    between atoms: C14_18  and  C15_19 
REMARK   10  A    between atoms: C16_20  and  C17_21 
REMARK   11  A    between atoms: C18_22  and  O3_23 
REMARK   12  A    between atoms: C20_26  and  O4_27 
REMARK   13  A    between atoms: C23_31  and  C24_32 
REMARK   14  A    between atoms: C24_32  and  C25_33 
REMARK   15  A    between atoms: C25_33  and  C26_34 
REMARK   16  A    between atoms: C26_34  and  O5_35 
ROOT
HETATM    1  C10 UNL     1      16.187   6.696  20.021  1.00  0.00     0.115 C 
HETATM    2  C11 UNL     1      17.208   7.645  19.359  1.00  0.00     0.020 C 
HETATM    3  C12 UNL     1      17.978   8.295  20.487  1.00  0.00     0.042 C 
HETATM    4  C13 UNL     1      17.232   7.846  21.691  1.00  0.00     0.097 C 
HETATM    5  C14 UNL     1      17.848   8.026  22.993  1.00  0.00     0.052 C 
HETATM    6  C23 UNL     1      17.513   6.893  24.006  1.00  0.00     0.035 C 
HETATM    7  C27 UNL     1      16.351   6.132  23.618  1.00  0.00     0.109 C 
HETATM    8  C28 UNL     1      16.084   4.805  24.303  1.00  0.00     0.208 C 
HETATM    9  O6  UNL     1      14.729   5.035  24.073  1.00  0.00    -0.385 OA
HETATM   10  C29 UNL     1      14.992   6.396  24.230  1.00  0.00     0.208 C 
HETATM   11  O7  UNL     1      16.141   5.910  22.269  1.00  0.00    -0.361 OA
HETATM   12  C30 UNL     1      16.937   6.395  21.330  1.00  0.00     0.102 C 
HETATM   13  C31 UNL     1      18.137   5.597  20.970  1.00  0.00     0.050 C 
ENDROOT
BRANCH   5  14
HETATM   14  C15 UNL     1      19.312   8.290  23.013  1.00  0.00    -0.022 C 
HETATM   15  C16 UNL     1      19.818   9.518  22.952  1.00  0.00    -0.023 C 
BRANCH  15  16
HETATM   16  C17 UNL     1      21.237   9.864  22.966  1.00  0.00     0.043 C 
HETATM   17  C18 UNL     1      21.532  11.238  23.536  1.00  0.00     0.128 C 
HETATM   18  C19 UNL     1      23.047  11.296  23.296  1.00  0.00     0.064 C 
HETATM   19  C20 UNL     1      23.208  10.657  21.935  1.00  0.00     0.125 C 
HETATM   20  C21 UNL     1      21.897   9.947  21.630  1.00  0.00     0.020 C 
HETATM   21  C22 UNL     1      22.256   8.532  21.193  1.00  0.00     0.013 C 
BRANCH  17  22
HETATM   22  O3  UNL     1      20.990  12.260  22.795  1.00  0.00    -0.395 OA
ATOM     23  H3  UNL     1      20.631  12.959  23.328  1.00  0.00     0.210 HD
ENDBRANCH  17  22
BRANCH  19  24
HETATM   24  O4  UNL     1      23.524  11.587  20.947  1.00  0.00    -0.395 OA
ATOM     25  H4  UNL     1      22.755  11.906  20.491  1.00  0.00     0.210 HD
ENDBRANCH  19  24
ENDBRANCH  15  16
ENDBRANCH   5  14
BRANCH   4  26
HETATM   26  O2  UNL     1      15.965   8.481  21.629  1.00  0.00    -0.386 OA
ATOM     27  H2  UNL     1      16.108   9.379  21.904  1.00  0.00     0.210 HD
ENDBRANCH   4  26
BRANCH   6  28
HETATM   28  C24 UNL     1      17.667   7.515  25.350  1.00  0.00     0.010 C 
BRANCH  28  29
HETATM   29  C25 UNL     1      17.227   8.898  25.600  1.00  0.00     0.027 C 
BRANCH  29  30
HETATM   30  C26 UNL     1      16.583   8.947  27.030  1.00  0.00     0.164 C 
BRANCH  30  31
HETATM   31  O5  UNL     1      15.211   8.978  26.793  1.00  0.00    -0.401 OA
ATOM     32  H5  UNL     1      14.911   8.105  27.017  1.00  0.00     0.209 HD
ENDBRANCH  30  31
ENDBRANCH  29  30
ENDBRANCH  28  29
ENDBRANCH   6  28
BRANCH   1  33
HETATM   33  C9  UNL     1      16.056   5.487  19.199  1.00  0.00     0.227 C 
HETATM   34  N1  UNL     1      15.006   4.537  19.329  1.00  0.00    -0.352 N 
HETATM   35  O1  UNL     1      16.932   5.243  18.297  1.00  0.00    -0.273 OA
BRANCH  34  36
HETATM   36  C4  UNL     1      13.936   4.738  20.260  1.00  0.00     0.125 C 
BRANCH  36  37
HETATM   37  C3  UNL     1      13.634   3.489  21.093  1.00  0.00     0.020 C 
BRANCH  37  38
HETATM   38  C2  UNL     1      12.214   3.016  20.761  1.00  0.00    -0.003 C 
HETATM   39  C1  UNL     1      11.247   4.158  20.813  1.00  0.00     0.005 C 
ENDBRANCH  37  38
ENDBRANCH  36  37
ENDBRANCH  34  36
BRANCH  34  40
HETATM   40  C5  UNL     1      15.100   3.331  18.519  1.00  0.00     0.125 C 
BRANCH  40  41
HETATM   41  C6  UNL     1      14.121   3.316  17.385  1.00  0.00     0.020 C 
BRANCH  41  42
HETATM   42  C7  UNL     1      13.879   1.882  16.906  1.00  0.00    -0.003 C 
HETATM   43  C8  UNL     1      12.526   1.431  17.402  1.00  0.00     0.005 C 
ENDBRANCH  41  42
ENDBRANCH  40  41
ENDBRANCH  34  40
ENDBRANCH   1  33
TORSDOF 16
ENDMDL
MODEL 5
REMARK VINA RESULT: -6.529135027      4.283      9.061
REMARK  16 active torsions:
REMARK  status: ('A' for Active; 'I' for Inactive)
REMARK    1  A    between atoms: C2_2  and  C3_3 
REMARK    2  A    between atoms: C3_3  and  C4_4 
REMARK    3  A    between atoms: C4_4  and  N1_5 
REMARK    4  A    between atoms: N1_5  and  C5_6 
REMARK       I    between atoms: N1_5  and  C9_10 
REMARK    5  A    between atoms: C5_6  and  C6_7 
REMARK    6  A    between atoms: C6_7  and  C7_8 
REMARK    7  A    between atoms: C9_10  and  C10_12 
REMARK    8  A    between atoms: C13_15  and  O2_16 
REMARK    9  A    between atoms: C14_18  and  C15_19 
REMARK   10  A    between atoms: C16_20  and  C17_21 
REMARK   11  A    between atoms: C18_22  and  O3_23 
REMARK   12  A    between atoms: C20_26  and  O4_27 
REMARK   13  A    between atoms: C23_31  and  C24_32 
REMARK   14  A    between atoms: C24_32  and  C25_33 
REMARK   15  A    between atoms: C25_33  and  C26_34 
REMARK   16  A    between atoms: C26_34  and  O5_35 
ROOT
HETATM    1  C10 UNL     1      15.424   4.241  20.017  1.00  0.00     0.115 C 
HETATM    2  C11 UNL     1      16.107   3.458  18.876  1.00  0.00     0.020 C 
HETATM    3  C12 UNL     1      17.368   4.220  18.533  1.00  0.00     0.042 C 
HETATM    4  C13 UNL     1      17.224   5.463  19.333  1.00  0.00     0.097 C 
HETATM    5  C14 UNL     1      18.386   6.318  19.496  1.00  0.00     0.052 C 
HETATM    6  C23 UNL     1      18.453   7.026  20.880  1.00  0.00     0.035 C 
HETATM    7  C27 UNL     1      17.178   7.042  21.554  1.00  0.00     0.109 C 
HETATM    8  C28 UNL     1      17.136   7.390  23.030  1.00  0.00     0.208 C 
HETATM    9  O6  UNL     1      15.857   7.893  22.806  1.00  0.00    -0.385 OA
HETATM   10  C29 UNL     1      16.287   8.265  21.532  1.00  0.00     0.208 C 
HETATM   11  O7  UNL     1      16.349   5.946  21.400  1.00  0.00    -0.361 OA
HETATM   12  C30 UNL     1      16.662   4.911  20.637  1.00  0.00     0.102 C 
HETATM   13  C31 UNL     1      17.480   3.831  21.248  1.00  0.00     0.050 C 
ENDROOT
BRANCH   5  14
HETATM   14  C15 UNL     1      19.711   5.719  19.182  1.00  0.00    -0.022 C 
HETATM   15  C16 UNL     1      20.543   6.249  18.291  1.00  0.00    -0.023 C 
BRANCH  15  16
HETATM   16  C17 UNL     1      21.858   5.727  17.925  1.00  0.00     0.043 C 
HETATM   17  C18 UNL     1      22.966   6.760  17.965  1.00  0.00     0.128 C 
HETATM   18  C19 UNL     1      24.129   5.910  17.435  1.00  0.00     0.064 C 
HETATM   19  C20 UNL     1      23.487   5.087  16.341  1.00  0.00     0.125 C 
HETATM   20  C21 UNL     1      21.983   5.208  16.531  1.00  0.00     0.020 C 
HETATM   21  C22 UNL     1      21.421   3.792  16.503  1.00  0.00     0.013 C 
BRANCH  17  22
HETATM   22  O3  UNL     1      22.793   7.776  17.056  1.00  0.00    -0.395 OA
ATOM     23  H3  UNL     1      22.752   7.471  16.158  1.00  0.00     0.210 HD
ENDBRANCH  17  22
BRANCH  19  24
HETATM   24  O4  UNL     1      23.874   5.503  15.069  1.00  0.00    -0.395 OA
ATOM     25  H4  UNL     1      24.068   4.772  14.494  1.00  0.00     0.210 HD
ENDBRANCH  19  24
ENDBRANCH  15  16
ENDBRANCH   5  14
BRANCH   4  26
HETATM   26  O2  UNL     1      16.138   6.175  18.763  1.00  0.00    -0.386 OA
ATOM     27  H2  UNL     1      16.317   7.095  18.915  1.00  0.00     0.210 HD
ENDBRANCH   4  26
BRANCH   6  28
HETATM   28  C24 UNL     1      19.268   8.251  20.651  1.00  0.00     0.010 C 
BRANCH  28  29
HETATM   29  C25 UNL     1      20.308   8.659  21.611  1.00  0.00     0.027 C 
BRANCH  29  30
HETATM   30  C26 UNL     1      21.646   8.857  20.815  1.00  0.00     0.164 C 
BRANCH  30  31
HETATM   31  O5  UNL     1      21.667  10.215  20.503  1.00  0.00    -0.401 OA
ATOM     32  H5  UNL     1      21.293  10.264  19.631  1.00  0.00     0.209 HD
ENDBRANCH  30  31
ENDBRANCH  29  30
ENDBRANCH  28  29
ENDBRANCH   6  28
BRANCH   1  33
HETATM   33  C9  UNL     1      14.816   3.288  20.953  1.00  0.00     0.227 C 
HETATM   34  N1  UNL     1      14.059   3.659  22.099  1.00  0.00    -0.352 N 
HETATM   35  O1  UNL     1      14.962   2.032  20.753  1.00  0.00    -0.273 OA
BRANCH  34  36
HETATM   36  C4  UNL     1      13.777   5.034  22.387  1.00  0.00     0.125 C 
BRANCH  36  37
HETATM   37  C3  UNL     1      12.282   5.303  22.582  1.00  0.00     0.020 C 
BRANCH  37  38
HETATM   38  C2  UNL     1      12.078   5.923  23.969  1.00  0.00    -0.003 C 
HETATM   39  C1  UNL     1      13.385   6.370  24.550  1.00  0.00     0.005 C 
ENDBRANCH  37  38
ENDBRANCH  36  37
ENDBRANCH  34  36
BRANCH  34  40
HETATM   40  C5  UNL     1      13.637   2.588  22.988  1.00  0.00     0.125 C 
BRANCH  40  41
HETATM   41  C6  UNL     1      14.180   2.740  24.377  1.00  0.00     0.020 C 
BRANCH  41  42
HETATM   42  C7  UNL     1      15.700   2.553  24.380  1.00  0.00    -0.003 C 
HETATM   43  C8  UNL     1      16.341   3.829  24.872  1.00  0.00     0.005 C 
ENDBRANCH  41  42
ENDBRANCH  40  41
ENDBRANCH  34  40
ENDBRANCH   1  33
TORSDOF 16
ENDMDL
