MODEL 1
REMARK VINA RESULT: -9.072553716      0.000      0.000
REMARK  10 active torsions:
REMARK  status: ('A' for Active; 'I' for Inactive)
REMARK    1  A    between atoms: C2_2  and  C3_3 
REMARK    2  A    between atoms: C7_8  and  O2_9 
REMARK    3  A    between atoms: C16_19  and  O3_20 
REMARK    4  A    between atoms: O3_20  and  C17_21 
REMARK    5  A    between atoms: C17_21  and  C18_23 
REMARK    6  A    between atoms: C18_23  and  N1_24 
REMARK       I    between atoms: N1_24  and  C19_26 
REMARK    7  A    between atoms: C19_26  and  C20_28 
REMARK    8  A    between atoms: C20_28  and  C21_29 
REMARK    9  A    between atoms: C21_29  and  C22_30 
REMARK   10  A    between atoms: C29_39  and  O7_41 
ROOT
HETATM    1  C3  UNL     1      20.794   5.135  16.643  1.00  0.00     0.041 C 
HETATM    2  C4  UNL     1      20.480   6.448  16.041  1.00  0.00     0.028 C 
HETATM    3  C5  UNL     1      21.248   4.126  15.613  1.00  0.00     0.142 C 
HETATM    4  O1  UNL     1      20.506   3.719  14.740  1.00  0.00    -0.297 OA
HETATM    5  C6  UNL     1      22.678   3.760  15.867  1.00  0.00     0.120 C 
HETATM    6  C7  UNL     1      23.113   4.934  16.722  1.00  0.00     0.100 C 
HETATM    7  C8  UNL     1      21.915   5.098  17.612  1.00  0.00     0.047 C 
HETATM    8  C9  UNL     1      21.998   6.232  18.573  1.00  0.00    -0.001 C 
HETATM    9  C10 UNL     1      21.297   5.822  19.839  1.00  0.00     0.006 C 
HETATM   10  C11 UNL     1      21.513   6.724  20.999  1.00  0.00     0.007 C 
HETATM   11  C12 UNL     1      22.309   7.920  20.540  1.00  0.00     0.004 C 
HETATM   12  C13 UNL     1      22.283   9.018  21.563  1.00  0.00    -0.017 C 
HETATM   13  C14 UNL     1      20.819   9.503  21.587  1.00  0.00     0.018 C 
HETATM   14  C15 UNL     1      22.587   8.588  22.959  1.00  0.00     0.018 C 
HETATM   15  C16 UNL     1      23.087  10.196  21.095  1.00  0.00     0.140 C 
HETATM   16  C23 UNL     1      23.590   9.988  19.660  1.00  0.00     0.034 C 
HETATM   17  C24 UNL     1      24.455   8.765  19.692  1.00  0.00     0.012 C 
HETATM   18  C25 UNL     1      23.629   7.510  20.016  1.00  0.00    -0.035 C 
HETATM   19  C26 UNL     1      24.457   6.751  21.043  1.00  0.00     0.016 C 
HETATM   20  C27 UNL     1      23.400   6.685  18.758  1.00  0.00     0.002 C 
HETATM   21  C28 UNL     1      24.432   5.603  18.708  1.00  0.00     0.046 C 
HETATM   22  C29 UNL     1      24.314   4.665  17.556  1.00  0.00     0.086 C 
HETATM   23  C30 UNL     1      24.345   3.213  18.057  1.00  0.00     0.049 C 
ENDROOT
BRANCH  15  24
HETATM   24  O3  UNL     1      24.239  10.437  21.884  1.00  0.00    -0.314 OA
BRANCH  24  25
HETATM   25  C17 UNL     1      24.462  11.628  22.544  1.00  0.00     0.277 C 
HETATM   26  O4  UNL     1      24.233  12.683  21.934  1.00  0.00    -0.263 OA
BRANCH  25  27
HETATM   27  C18 UNL     1      24.957  11.679  23.934  1.00  0.00     0.233 C 
BRANCH  27  28
HETATM   28  N1  UNL     1      25.730  12.861  24.229  1.00  0.00    -0.352 N 
HETATM   29  C19 UNL     1      26.400  13.035  25.452  1.00  0.00     0.218 C 
HETATM   30  O5  UNL     1      26.387  12.190  26.378  1.00  0.00    -0.274 OA
ATOM     31  H1  UNL     1      25.792  13.596  23.525  1.00  0.00     0.162 HD
BRANCH  29  32
HETATM   32  C20 UNL     1      27.181  14.291  25.690  1.00  0.00     0.111 C 
BRANCH  32  33
HETATM   33  C21 UNL     1      28.518  14.249  24.992  1.00  0.00     0.109 C 
BRANCH  33  34
HETATM   34  C22 UNL     1      29.583  14.170  26.008  1.00  0.00     0.231 C 
HETATM   35  N2  UNL     1      30.538  13.113  25.930  1.00  0.00    -0.062 NA
HETATM   36  O6  UNL     1      29.658  15.016  26.928  1.00  0.00    -0.277 OA
ENDBRANCH  33  34
ENDBRANCH  32  33
ENDBRANCH  29  32
ENDBRANCH  27  28
ENDBRANCH  25  27
ENDBRANCH  24  25
ENDBRANCH  15  24
BRANCH  22  37
HETATM   37  O7  UNL     1      25.427   4.746  16.679  1.00  0.00    -0.387 OA
ATOM     38  H7  UNL     1      26.049   5.330  17.097  1.00  0.00     0.210 HD
ENDBRANCH  22  37
BRANCH   1  39
HETATM   39  C2  UNL     1      19.516   4.572  17.207  1.00  0.00    -0.020 C 
HETATM   40  C1  UNL     1      19.546   3.496  17.966  1.00  0.00     0.008 C 
ENDBRANCH   1  39
BRANCH   6  41
HETATM   41  O2  UNL     1      23.358   5.986  15.885  1.00  0.00    -0.386 OA
ATOM     42  H2  UNL     1      22.524   6.395  15.689  1.00  0.00     0.210 HD
ENDBRANCH   6  41
TORSDOF 10
ENDMDL
MODEL 2
REMARK VINA RESULT: -8.900061096      1.789      2.005
REMARK  10 active torsions:
REMARK  status: ('A' for Active; 'I' for Inactive)
REMARK    1  A    between atoms: C2_2  and  C3_3 
REMARK    2  A    between atoms: C7_8  and  O2_9 
REMARK    3  A    between atoms: C16_19  and  O3_20 
REMARK    4  A    between atoms: O3_20  and  C17_21 
REMARK    5  A    between atoms: C17_21  and  C18_23 
REMARK    6  A    between atoms: C18_23  and  N1_24 
REMARK       I    between atoms: N1_24  and  C19_26 
REMARK    7  A    between atoms: C19_26  and  C20_28 
REMARK    8  A    between atoms: C20_28  and  C21_29 
REMARK    9  A    between atoms: C21_29  and  C22_30 
REMARK   10  A    between atoms: C29_39  and  O7_41 
ROOT
HETATM    1  C3  UNL     1      20.825   5.068  16.654  1.00  0.00     0.041 C 
HETATM    2  C4  UNL     1      20.475   6.371  16.049  1.00  0.00     0.028 C 
HETATM    3  C5  UNL     1      21.295   4.066  15.625  1.00  0.00     0.142 C 
HETATM    4  O1  UNL     1      20.556   3.637  14.760  1.00  0.00    -0.297 OA
HETATM    5  C6  UNL     1      22.736   3.735  15.869  1.00  0.00     0.120 C 
HETATM    6  C7  UNL     1      23.150   4.923  16.715  1.00  0.00     0.100 C 
HETATM    7  C8  UNL     1      21.955   5.063  17.614  1.00  0.00     0.047 C 
HETATM    8  C9  UNL     1      22.019   6.203  18.569  1.00  0.00    -0.001 C 
HETATM    9  C10 UNL     1      21.338   5.783  19.842  1.00  0.00     0.006 C 
HETATM   10  C11 UNL     1      21.541   6.696  20.997  1.00  0.00     0.007 C 
HETATM   11  C12 UNL     1      22.305   7.907  20.526  1.00  0.00     0.004 C 
HETATM   12  C13 UNL     1      22.262   9.010  21.543  1.00  0.00    -0.017 C 
HETATM   13  C14 UNL     1      20.787   9.460  21.577  1.00  0.00     0.018 C 
HETATM   14  C15 UNL     1      22.587   8.594  22.939  1.00  0.00     0.018 C 
HETATM   15  C16 UNL     1      23.033  10.205  21.063  1.00  0.00     0.140 C 
HETATM   16  C23 UNL     1      23.529  10.002  19.625  1.00  0.00     0.034 C 
HETATM   17  C24 UNL     1      24.424   8.799  19.656  1.00  0.00     0.012 C 
HETATM   18  C25 UNL     1      23.630   7.527  19.993  1.00  0.00    -0.035 C 
HETATM   19  C26 UNL     1      24.484   6.793  21.016  1.00  0.00     0.016 C 
HETATM   20  C27 UNL     1      23.411   6.691  18.740  1.00  0.00     0.002 C 
HETATM   21  C28 UNL     1      24.468   5.633  18.686  1.00  0.00     0.046 C 
HETATM   22  C29 UNL     1      24.364   4.687  17.540  1.00  0.00     0.086 C 
HETATM   23  C30 UNL     1      24.433   3.238  18.048  1.00  0.00     0.049 C 
ENDROOT
BRANCH  15  24
HETATM   24  O3  UNL     1      24.186  10.476  21.842  1.00  0.00    -0.314 OA
BRANCH  24  25
HETATM   25  C17 UNL     1      24.498  11.738  22.304  1.00  0.00     0.277 C 
HETATM   26  O4  UNL     1      25.696  12.049  22.384  1.00  0.00    -0.263 OA
BRANCH  25  27
HETATM   27  C18 UNL     1      23.461  12.712  22.702  1.00  0.00     0.233 C 
BRANCH  27  28
HETATM   28  N1  UNL     1      23.583  13.160  24.068  1.00  0.00    -0.352 N 
HETATM   29  C19 UNL     1      23.106  12.405  25.152  1.00  0.00     0.218 C 
HETATM   30  O5  UNL     1      22.545  11.290  25.030  1.00  0.00    -0.274 OA
ATOM     31  H1  UNL     1      24.030  14.059  24.252  1.00  0.00     0.162 HD
BRANCH  29  32
HETATM   32  C20 UNL     1      23.264  12.936  26.544  1.00  0.00     0.111 C 
BRANCH  32  33
HETATM   33  C21 UNL     1      24.714  13.181  26.879  1.00  0.00     0.109 C 
BRANCH  33  34
HETATM   34  C22 UNL     1      25.440  11.900  26.821  1.00  0.00     0.231 C 
HETATM   35  N2  UNL     1      26.564  11.779  25.950  1.00  0.00    -0.062 NA
HETATM   36  O6  UNL     1      25.083  10.926  27.522  1.00  0.00    -0.277 OA
ENDBRANCH  33  34
ENDBRANCH  32  33
ENDBRANCH  29  32
ENDBRANCH  27  28
ENDBRANCH  25  27
ENDBRANCH  24  25
ENDBRANCH  15  24
BRANCH  22  37
HETATM   37  O7  UNL     1      25.467   4.790  16.654  1.00  0.00    -0.387 OA
ATOM     38  H7  UNL     1      26.177   5.164  17.161  1.00  0.00     0.210 HD
ENDBRANCH  22  37
BRANCH   1  39
HETATM   39  C2  UNL     1      19.566   4.478  17.231  1.00  0.00    -0.020 C 
HETATM   40  C1  UNL     1      19.630   3.418  18.011  1.00  0.00     0.008 C 
ENDBRANCH   1  39
BRANCH   6  41
HETATM   41  O2  UNL     1      23.362   5.976  15.871  1.00  0.00    -0.386 OA
ATOM     42  H2  UNL     1      24.057   6.506  16.244  1.00  0.00     0.210 HD
ENDBRANCH   6  41
TORSDOF 10
ENDMDL
MODEL 3
REMARK VINA RESULT: -8.824914037      2.611      3.314
REMARK  10 active torsions:
REMARK  status: ('A' for Active; 'I' for Inactive)
REMARK    1  A    between atoms: C2_2  and  C3_3 
REMARK    2  A    between atoms: C7_8  and  O2_9 
REMARK    3  A    between atoms: C16_19  and  O3_20 
REMARK    4  A    between atoms: O3_20  and  C17_21 
REMARK    5  A    between atoms: C17_21  and  C18_23 
REMARK    6  A    between atoms: C18_23  and  N1_24 
REMARK       I    between atoms: N1_24  and  C19_26 
REMARK    7  A    between atoms: C19_26  and  C20_28 
REMARK    8  A    between atoms: C20_28  and  C21_29 
REMARK    9  A    between atoms: C21_29  and  C22_30 
REMARK   10  A    between atoms: C29_39  and  O7_41 
ROOT
HETATM    1  C3  UNL     1      20.737   5.151  16.556  1.00  0.00     0.041 C 
HETATM    2  C4  UNL     1      20.443   6.490  16.000  1.00  0.00     0.028 C 
HETATM    3  C5  UNL     1      21.214   4.184  15.497  1.00  0.00     0.142 C 
HETATM    4  O1  UNL     1      20.495   3.816  14.589  1.00  0.00    -0.297 OA
HETATM    5  C6  UNL     1      22.636   3.801  15.773  1.00  0.00     0.120 C 
HETATM    6  C7  UNL     1      23.053   4.937  16.687  1.00  0.00     0.100 C 
HETATM    7  C8  UNL     1      21.832   5.070  17.551  1.00  0.00     0.047 C 
HETATM    8  C9  UNL     1      21.894   6.163  18.560  1.00  0.00    -0.001 C 
HETATM    9  C10 UNL     1      21.158   5.705  19.789  1.00  0.00     0.006 C 
HETATM   10  C11 UNL     1      21.346   6.558  20.991  1.00  0.00     0.007 C 
HETATM   11  C12 UNL     1      22.159   7.767  20.602  1.00  0.00     0.004 C 
HETATM   12  C13 UNL     1      22.110   8.823  21.668  1.00  0.00    -0.017 C 
HETATM   13  C14 UNL     1      20.647   9.313  21.674  1.00  0.00     0.018 C 
HETATM   14  C15 UNL     1      22.375   8.334  23.053  1.00  0.00     0.018 C 
HETATM   15  C16 UNL     1      22.930  10.015  21.270  1.00  0.00     0.140 C 
HETATM   16  C23 UNL     1      23.470   9.864  19.842  1.00  0.00     0.034 C 
HETATM   17  C24 UNL     1      24.329   8.636  19.846  1.00  0.00     0.012 C 
HETATM   18  C25 UNL     1      23.491   7.374  20.097  1.00  0.00    -0.035 C 
HETATM   19  C26 UNL     1      24.288   6.569  21.112  1.00  0.00     0.016 C 
HETATM   20  C27 UNL     1      23.292   6.602  18.800  1.00  0.00     0.002 C 
HETATM   21  C28 UNL     1      24.321   5.517  18.732  1.00  0.00     0.046 C 
HETATM   22  C29 UNL     1      24.230   4.628  17.540  1.00  0.00     0.086 C 
HETATM   23  C30 UNL     1      24.243   3.157  17.981  1.00  0.00     0.049 C 
ENDROOT
BRANCH  15  24
HETATM   24  O3  UNL     1      24.062  10.218  22.098  1.00  0.00    -0.314 OA
BRANCH  24  25
HETATM   25  C17 UNL     1      24.129  11.218  23.046  1.00  0.00     0.277 C 
HETATM   26  O4  UNL     1      24.597  10.936  24.159  1.00  0.00    -0.263 OA
BRANCH  25  27
HETATM   27  C18 UNL     1      23.665  12.594  22.775  1.00  0.00     0.233 C 
BRANCH  27  28
HETATM   28  N1  UNL     1      22.383  12.899  23.363  1.00  0.00    -0.352 N 
HETATM   29  C19 UNL     1      22.255  13.691  24.516  1.00  0.00     0.218 C 
HETATM   30  O5  UNL     1      23.228  14.197  25.124  1.00  0.00    -0.274 OA
ATOM     31  H1  UNL     1      21.541  12.526  22.925  1.00  0.00     0.162 HD
BRANCH  29  32
HETATM   32  C20 UNL     1      20.891  13.963  25.073  1.00  0.00     0.111 C 
BRANCH  32  33
HETATM   33  C21 UNL     1      20.920  14.058  26.578  1.00  0.00     0.109 C 
BRANCH  33  34
HETATM   34  C22 UNL     1      20.771  12.705  27.144  1.00  0.00     0.231 C 
HETATM   35  N2  UNL     1      21.894  12.091  27.777  1.00  0.00    -0.062 NA
HETATM   36  O6  UNL     1      19.680  12.096  27.075  1.00  0.00    -0.277 OA
ENDBRANCH  33  34
ENDBRANCH  32  33
ENDBRANCH  29  32
ENDBRANCH  27  28
ENDBRANCH  25  27
ENDBRANCH  24  25
ENDBRANCH  15  24
BRANCH  22  37
HETATM   37  O7  UNL     1      25.366   4.740  16.696  1.00  0.00    -0.387 OA
ATOM     38  H7  UNL     1      26.122   4.742  17.272  1.00  0.00     0.210 HD
ENDBRANCH  22  37
BRANCH   1  39
HETATM   39  C2  UNL     1      19.442   4.572  17.062  1.00  0.00    -0.020 C 
HETATM   40  C1  UNL     1      19.454   3.508  17.839  1.00  0.00     0.008 C 
ENDBRANCH   1  39
BRANCH   6  41
HETATM   41  O2  UNL     1      23.323   6.021  15.900  1.00  0.00    -0.386 OA
ATOM     42  H2  UNL     1      23.197   6.799  16.431  1.00  0.00     0.210 HD
ENDBRANCH   6  41
TORSDOF 10
ENDMDL
MODEL 4
REMARK VINA RESULT: -8.591048458      5.220      7.804
REMARK  10 active torsions:
REMARK  status: ('A' for Active; 'I' for Inactive)
REMARK    1  A    between atoms: C2_2  and  C3_3 
REMARK    2  A    between atoms: C7_8  and  O2_9 
REMARK    3  A    between atoms: C16_19  and  O3_20 
REMARK    4  A    between atoms: O3_20  and  C17_21 
REMARK    5  A    between atoms: C17_21  and  C18_23 
REMARK    6  A    between atoms: C18_23  and  N1_24 
REMARK       I    between atoms: N1_24  and  C19_26 
REMARK    7  A    between atoms: C19_26  and  C20_28 
REMARK    8  A    between atoms: C20_28  and  C21_29 
REMARK    9  A    between atoms: C21_29  and  C22_30 
REMARK   10  A    between atoms: C29_39  and  O7_41 
ROOT
HETATM    1  C3  UNL     1      23.152   4.791  16.961  1.00  0.00     0.041 C 
HETATM    2  C4  UNL     1      22.090   5.030  15.960  1.00  0.00     0.028 C 
HETATM    3  C5  UNL     1      24.492   5.326  16.513  1.00  0.00     0.142 C 
HETATM    4  O1  UNL     1      25.082   4.865  15.554  1.00  0.00    -0.297 OA
HETATM    5  C6  UNL     1      24.913   6.445  17.415  1.00  0.00     0.120 C 
HETATM    6  C7  UNL     1      23.578   6.817  18.030  1.00  0.00     0.100 C 
HETATM    7  C8  UNL     1      22.989   5.457  18.275  1.00  0.00     0.047 C 
HETATM    8  C9  UNL     1      21.615   5.462  18.850  1.00  0.00    -0.001 C 
HETATM    9  C10 UNL     1      21.493   4.285  19.777  1.00  0.00     0.006 C 
HETATM   10  C11 UNL     1      20.285   4.286  20.641  1.00  0.00     0.007 C 
HETATM   11  C12 UNL     1      19.413   5.452  20.250  1.00  0.00     0.004 C 
HETATM   12  C13 UNL     1      18.039   5.329  20.843  1.00  0.00    -0.017 C 
HETATM   13  C14 UNL     1      17.411   4.109  20.139  1.00  0.00     0.018 C 
HETATM   14  C15 UNL     1      18.007   5.011  22.301  1.00  0.00     0.018 C 
HETATM   15  C16 UNL     1      17.187   6.501  20.452  1.00  0.00     0.140 C 
HETATM   16  C23 UNL     1      17.920   7.412  19.459  1.00  0.00     0.034 C 
HETATM   17  C24 UNL     1      19.152   7.894  20.163  1.00  0.00     0.012 C 
HETATM   18  C25 UNL     1      20.122   6.735  20.440  1.00  0.00    -0.035 C 
HETATM   19  C26 UNL     1      20.581   6.943  21.875  1.00  0.00     0.016 C 
HETATM   20  C27 UNL     1      21.290   6.774  19.464  1.00  0.00     0.002 C 
HETATM   21  C28 UNL     1      22.437   7.470  20.128  1.00  0.00     0.046 C 
HETATM   22  C29 UNL     1      23.687   7.547  19.321  1.00  0.00     0.086 C 
HETATM   23  C30 UNL     1      24.880   7.055  20.154  1.00  0.00     0.049 C 
ENDROOT
BRANCH  15  24
HETATM   24  O3  UNL     1      16.828   7.324  21.549  1.00  0.00    -0.314 OA
BRANCH  24  25
HETATM   25  C17 UNL     1      15.542   7.776  21.759  1.00  0.00     0.277 C 
HETATM   26  O4  UNL     1      15.135   8.718  21.062  1.00  0.00    -0.263 OA
BRANCH  25  27
HETATM   27  C18 UNL     1      14.652   7.180  22.775  1.00  0.00     0.233 C 
BRANCH  27  28
HETATM   28  N1  UNL     1      15.172   7.260  24.118  1.00  0.00    -0.352 N 
HETATM   29  C19 UNL     1      14.357   7.096  25.251  1.00  0.00     0.218 C 
HETATM   30  O5  UNL     1      13.125   6.866  25.194  1.00  0.00    -0.274 OA
ATOM     31  H1  UNL     1      16.167   7.442  24.250  1.00  0.00     0.162 HD
BRANCH  29  32
HETATM   32  C20 UNL     1      14.966   7.195  26.615  1.00  0.00     0.111 C 
BRANCH  32  33
HETATM   33  C21 UNL     1      15.116   8.633  27.048  1.00  0.00     0.109 C 
BRANCH  33  34
HETATM   34  C22 UNL     1      16.550   8.936  27.202  1.00  0.00     0.231 C 
HETATM   35  N2  UNL     1      17.445   8.615  26.138  1.00  0.00    -0.062 NA
HETATM   36  O6  UNL     1      16.986   9.470  28.247  1.00  0.00    -0.277 OA
ENDBRANCH  33  34
ENDBRANCH  32  33
ENDBRANCH  29  32
ENDBRANCH  27  28
ENDBRANCH  25  27
ENDBRANCH  24  25
ENDBRANCH  15  24
BRANCH  22  37
HETATM   37  O7  UNL     1      24.033   8.883  18.988  1.00  0.00    -0.387 OA
ATOM     38  H7  UNL     1      24.901   8.842  18.607  1.00  0.00     0.210 HD
ENDBRANCH  22  37
BRANCH   1  39
HETATM   39  C2  UNL     1      23.343   3.302  17.080  1.00  0.00    -0.020 C 
HETATM   40  C1  UNL     1      24.153   2.811  17.995  1.00  0.00     0.008 C 
ENDBRANCH   1  39
BRANCH   6  41
HETATM   41  O2  UNL     1      22.904   7.582  17.122  1.00  0.00    -0.386 OA
ATOM     42  H2  UNL     1      23.439   7.636  16.339  1.00  0.00     0.210 HD
ENDBRANCH   6  41
TORSDOF 10
ENDMDL
MODEL 5
REMARK VINA RESULT: -8.578707257      5.784      9.580
REMARK  10 active torsions:
REMARK  status: ('A' for Active; 'I' for Inactive)
REMARK    1  A    between atoms: C2_2  and  C3_3 
REMARK    2  A    between atoms: C7_8  and  O2_9 
REMARK    3  A    between atoms: C16_19  and  O3_20 
REMARK    4  A    between atoms: O3_20  and  C17_21 
REMARK    5  A    between atoms: C17_21  and  C18_23 
REMARK    6  A    between atoms: C18_23  and  N1_24 
REMARK       I    between atoms: N1_24  and  C19_26 
REMARK    7  A    between atoms: C19_26  and  C20_28 
REMARK    8  A    between atoms: C20_28  and  C21_29 
REMARK    9  A    between atoms: C21_29  and  C22_30 
REMARK   10  A    between atoms: C29_39  and  O7_41 
ROOT
HETATM    1  C3  UNL     1      23.148   4.807  16.956  1.00  0.00     0.041 C 
HETATM    2  C4  UNL     1      22.090   5.053  15.953  1.00  0.00     0.028 C 
HETATM    3  C5  UNL     1      24.491   5.341  16.515  1.00  0.00     0.142 C 
HETATM    4  O1  UNL     1      25.083   4.885  15.556  1.00  0.00    -0.297 OA
HETATM    5  C6  UNL     1      24.911   6.455  17.425  1.00  0.00     0.120 C 
HETATM    6  C7  UNL     1      23.574   6.826  18.037  1.00  0.00     0.100 C 
HETATM    7  C8  UNL     1      22.982   5.466  18.273  1.00  0.00     0.047 C 
HETATM    8  C9  UNL     1      21.606   5.471  18.843  1.00  0.00    -0.001 C 
HETATM    9  C10 UNL     1      21.479   4.290  19.764  1.00  0.00     0.006 C 
HETATM   10  C11 UNL     1      20.268   4.288  20.624  1.00  0.00     0.007 C 
HETATM   11  C12 UNL     1      19.399   5.458  20.236  1.00  0.00     0.004 C 
HETATM   12  C13 UNL     1      18.023   5.335  20.824  1.00  0.00    -0.017 C 
HETATM   13  C14 UNL     1      17.395   4.120  20.111  1.00  0.00     0.018 C 
HETATM   14  C15 UNL     1      17.986   5.009  22.280  1.00  0.00     0.018 C 
HETATM   15  C16 UNL     1      17.174   6.510  20.436  1.00  0.00     0.140 C 
HETATM   16  C23 UNL     1      17.913   7.425  19.450  1.00  0.00     0.034 C 
HETATM   17  C24 UNL     1      19.143   7.901  20.161  1.00  0.00     0.012 C 
HETATM   18  C25 UNL     1      20.110   6.738  20.435  1.00  0.00    -0.035 C 
HETATM   19  C26 UNL     1      20.565   6.939  21.873  1.00  0.00     0.016 C 
HETATM   20  C27 UNL     1      21.281   6.781  19.464  1.00  0.00     0.002 C 
HETATM   21  C28 UNL     1      22.427   7.471  20.134  1.00  0.00     0.046 C 
HETATM   22  C29 UNL     1      23.680   7.549  19.332  1.00  0.00     0.086 C 
HETATM   23  C30 UNL     1      24.869   7.051  20.167  1.00  0.00     0.049 C 
ENDROOT
BRANCH  15  24
HETATM   24  O3  UNL     1      16.814   7.328  21.536  1.00  0.00    -0.314 OA
BRANCH  24  25
HETATM   25  C17 UNL     1      15.521   7.749  21.766  1.00  0.00     0.277 C 
HETATM   26  O4  UNL     1      15.099   8.716  21.114  1.00  0.00    -0.263 OA
BRANCH  25  27
HETATM   27  C18 UNL     1      14.639   7.090  22.751  1.00  0.00     0.233 C 
BRANCH  27  28
HETATM   28  N1  UNL     1      14.329   5.720  22.423  1.00  0.00    -0.352 N 
HETATM   29  C19 UNL     1      13.108   5.120  22.776  1.00  0.00     0.218 C 
HETATM   30  O5  UNL     1      12.194   5.716  23.395  1.00  0.00    -0.274 OA
ATOM     31  H1  UNL     1      15.020   5.166  21.916  1.00  0.00     0.162 HD
BRANCH  29  32
HETATM   32  C20 UNL     1      12.856   3.691  22.405  1.00  0.00     0.111 C 
BRANCH  32  33
HETATM   33  C21 UNL     1      12.068   3.586  21.123  1.00  0.00     0.109 C 
BRANCH  33  34
HETATM   34  C22 UNL     1      12.995   3.274  20.019  1.00  0.00     0.231 C 
HETATM   35  N2  UNL     1      12.917   1.996  19.389  1.00  0.00    -0.062 NA
HETATM   36  O6  UNL     1      13.840   4.113  19.633  1.00  0.00    -0.277 OA
ENDBRANCH  33  34
ENDBRANCH  32  33
ENDBRANCH  29  32
ENDBRANCH  27  28
ENDBRANCH  25  27
ENDBRANCH  24  25
ENDBRANCH  15  24
BRANCH  22  37
HETATM   37  O7  UNL     1      24.029   8.886  19.007  1.00  0.00    -0.387 OA
ATOM     38  H7  UNL     1      24.475   8.845  18.169  1.00  0.00     0.210 HD
ENDBRANCH  22  37
BRANCH   1  39
HETATM   39  C2  UNL     1      23.336   3.317  17.068  1.00  0.00    -0.020 C 
HETATM   40  C1  UNL     1      22.384   2.499  16.670  1.00  0.00     0.008 C 
ENDBRANCH   1  39
BRANCH   6  41
HETATM   41  O2  UNL     1      22.904   7.597  17.130  1.00  0.00    -0.386 OA
ATOM     42  H2  UNL     1      22.120   7.125  16.877  1.00  0.00     0.210 HD
ENDBRANCH   6  41
TORSDOF 10
ENDMDL
