MODEL 1
REMARK VINA RESULT: -9.098424963      0.000      0.000
REMARK  9 active torsions:
REMARK  status: ('A' for Active; 'I' for Inactive)
REMARK    1  A    between atoms: C2_2  and  C4_4 
REMARK    2  A    between atoms: C4_4  and  C5_5 
REMARK    3  A    between atoms: C5_5  and  C7_7 
REMARK    4  A    between atoms: C7_7  and  N1_8 
REMARK    5  A    between atoms: N1_8  and  C8_10 
REMARK    6  A    between atoms: C13_17  and  O3_18 
REMARK    7  A    between atoms: C16_22  and  C17_23 
REMARK    8  A    between atoms: C19_26  and  C20_27 
REMARK    9  A    between atoms: C32_41  and  O7_42 
ROOT
HETATM    1  C8  UNL     1      22.097   7.135  21.086  1.00  0.00     0.078 C 
HETATM    2  C9  UNL     1      20.782   7.601  20.636  1.00  0.00     0.042 C 
HETATM    3  C10 UNL     1      19.987   7.093  19.552  1.00  0.00     0.125 C 
HETATM    4  C11 UNL     1      18.516   7.155  19.999  1.00  0.00     0.266 C 
HETATM    5  O1  UNL     1      17.865   8.220  20.143  1.00  0.00    -0.265 OA
HETATM    6  O2  UNL     1      18.049   5.854  20.212  1.00  0.00    -0.318 OA
HETATM    7  C12 UNL     1      19.265   5.061  20.170  1.00  0.00     0.218 C 
HETATM    8  C13 UNL     1      19.924   5.783  18.987  1.00  0.00     0.103 C 
HETATM    9  C14 UNL     1      21.075   5.053  18.388  1.00  0.00     0.035 C 
HETATM   10  C15 UNL     1      21.893   4.690  19.586  1.00  0.00     0.034 C 
HETATM   11  C16 UNL     1      23.229   5.459  19.483  1.00  0.00     0.037 C 
HETATM   12  C18 UNL     1      23.141   6.820  20.054  1.00  0.00     0.042 C 
HETATM   13  C19 UNL     1      23.416   5.374  18.033  1.00  0.00     0.102 C 
HETATM   14  C21 UNL     1      23.874   4.202  17.357  1.00  0.00     0.038 C 
HETATM   15  C22 UNL     1      23.393   4.541  15.921  1.00  0.00     0.019 C 
HETATM   16  C23 UNL     1      22.074   5.187  16.132  1.00  0.00     0.031 C 
HETATM   17  C24 UNL     1      20.909   4.249  16.055  1.00  0.00    -0.033 C 
HETATM   18  C25 UNL     1      21.067   3.081  15.141  1.00  0.00     0.016 C 
HETATM   19  C26 UNL     1      19.818   5.067  15.342  1.00  0.00     0.016 C 
HETATM   20  C27 UNL     1      20.688   3.920  17.472  1.00  0.00     0.031 C 
HETATM   21  C28 UNL     1      21.141   2.563  17.895  1.00  0.00    -0.020 C 
HETATM   22  C29 UNL     1      22.489   2.070  17.905  1.00  0.00    -0.001 C 
HETATM   23  C30 UNL     1      23.696   2.787  17.550  1.00  0.00    -0.079 C 
HETATM   24  C31 UNL     1      24.882   2.161  18.320  1.00  0.00     0.044 C 
HETATM   25  C32 UNL     1      22.015   5.771  17.527  1.00  0.00     0.093 C 
ENDROOT
BRANCH   1  26
HETATM   26  N1  UNL     1      22.680   8.294  21.791  1.00  0.00    -0.417 N 
ATOM     27  H1  UNL     1      23.565   8.238  22.295  1.00  0.00     0.153 HD
BRANCH  26  28
HETATM   28  C7  UNL     1      21.922   9.487  21.716  1.00  0.00     0.118 C 
BRANCH  28  29
HETATM   29  C5  UNL     1      22.937  10.647  21.656  1.00  0.00    -0.001 C 
HETATM   30  C6  UNL     1      23.674  10.524  20.379  1.00  0.00     0.011 C 
BRANCH  29  31
HETATM   31  C4  UNL     1      23.677  10.592  22.925  1.00  0.00     0.010 C 
BRANCH  31  32
HETATM   32  C2  UNL     1      23.971  11.823  23.670  1.00  0.00    -0.022 C 
HETATM   33  C1  UNL     1      25.438  12.063  23.866  1.00  0.00     0.009 C 
HETATM   34  C3  UNL     1      23.259  13.050  23.145  1.00  0.00     0.009 C 
ENDBRANCH  31  32
ENDBRANCH  29  31
ENDBRANCH  28  29
ENDBRANCH  26  28
ENDBRANCH   1  26
BRANCH  11  35
HETATM   35  C17 UNL     1      24.149   4.667  20.338  1.00  0.00     0.242 C 
HETATM   36  O4  UNL     1      25.207   5.136  20.713  1.00  0.00    -0.306 OA
ENDBRANCH  11  35
BRANCH   8  37
HETATM   37  O3  UNL     1      18.816   5.752  18.102  1.00  0.00    -0.386 OA
ATOM     38  H3  UNL     1      18.916   4.988  17.546  1.00  0.00     0.210 HD
ENDBRANCH   8  37
BRANCH  13  39
HETATM   39  C20 UNL     1      24.279   6.526  17.627  1.00  0.00     0.186 C 
HETATM   40  O5  UNL     1      25.521   6.368  17.540  1.00  0.00    -0.647 OA
HETATM   41  O6  UNL     1      23.821   7.793  17.322  1.00  0.00    -0.647 OA
ENDBRANCH  13  39
BRANCH  25  42
HETATM   42  O7  UNL     1      21.839   7.109  17.366  1.00  0.00    -0.387 OA
ATOM     43  H7  UNL     1      22.606   7.643  17.192  1.00  0.00     0.210 HD
ENDBRANCH  25  42
TORSDOF 9
ENDMDL
MODEL 2
REMARK VINA RESULT: -9.078133542      3.090      6.977
REMARK  9 active torsions:
REMARK  status: ('A' for Active; 'I' for Inactive)
REMARK    1  A    between atoms: C2_2  and  C4_4 
REMARK    2  A    between atoms: C4_4  and  C5_5 
REMARK    3  A    between atoms: C5_5  and  C7_7 
REMARK    4  A    between atoms: C7_7  and  N1_8 
REMARK    5  A    between atoms: N1_8  and  C8_10 
REMARK    6  A    between atoms: C13_17  and  O3_18 
REMARK    7  A    between atoms: C16_22  and  C17_23 
REMARK    8  A    between atoms: C19_26  and  C20_27 
REMARK    9  A    between atoms: C32_41  and  O7_42 
ROOT
HETATM    1  C8  UNL     1      19.404   2.723  18.542  1.00  0.00     0.078 C 
HETATM    2  C9  UNL     1      20.134   1.988  17.505  1.00  0.00     0.042 C 
HETATM    3  C10 UNL     1      21.476   2.211  17.042  1.00  0.00     0.125 C 
HETATM    4  C11 UNL     1      22.094   0.831  16.756  1.00  0.00     0.266 C 
HETATM    5  O1  UNL     1      21.754   0.089  15.800  1.00  0.00    -0.265 OA
HETATM    6  O2  UNL     1      23.070   0.559  17.721  1.00  0.00    -0.318 OA
HETATM    7  C12 UNL     1      22.850   1.602  18.708  1.00  0.00     0.218 C 
HETATM    8  C13 UNL     1      22.610   2.753  17.721  1.00  0.00     0.103 C 
HETATM    9  C14 UNL     1      22.674   4.108  18.334  1.00  0.00     0.035 C 
HETATM   10  C15 UNL     1      21.798   3.966  19.537  1.00  0.00     0.034 C 
HETATM   11  C16 UNL     1      20.573   4.884  19.328  1.00  0.00     0.037 C 
HETATM   12  C18 UNL     1      19.496   4.221  18.563  1.00  0.00     0.042 C 
HETATM   13  C19 UNL     1      21.250   5.999  18.662  1.00  0.00     0.102 C 
HETATM   14  C21 UNL     1      22.043   6.972  19.345  1.00  0.00     0.038 C 
HETATM   15  C22 UNL     1      22.852   7.522  18.141  1.00  0.00     0.019 C 
HETATM   16  C23 UNL     1      23.138   6.315  17.325  1.00  0.00     0.031 C 
HETATM   17  C24 UNL     1      24.456   5.668  17.622  1.00  0.00    -0.033 C 
HETATM   18  C25 UNL     1      25.546   6.580  18.074  1.00  0.00     0.016 C 
HETATM   19  C26 UNL     1      24.969   5.215  16.245  1.00  0.00     0.016 C 
HETATM   20  C27 UNL     1      24.071   4.618  18.578  1.00  0.00     0.031 C 
HETATM   21  C28 UNL     1      24.422   4.886  20.003  1.00  0.00    -0.020 C 
HETATM   22  C29 UNL     1      23.912   5.942  20.832  1.00  0.00    -0.001 C 
HETATM   23  C30 UNL     1      22.925   6.942  20.482  1.00  0.00    -0.079 C 
HETATM   24  C31 UNL     1      22.208   7.395  21.775  1.00  0.00     0.044 C 
HETATM   25  C32 UNL     1      22.104   5.250  17.619  1.00  0.00     0.093 C 
ENDROOT
BRANCH   1  26
HETATM   26  N1  UNL     1      17.980   2.492  18.227  1.00  0.00    -0.417 N 
ATOM     27  H1  UNL     1      17.646   2.357  17.273  1.00  0.00     0.153 HD
BRANCH  26  28
HETATM   28  C7  UNL     1      17.112   2.471  19.346  1.00  0.00     0.118 C 
BRANCH  28  29
HETATM   29  C5  UNL     1      15.677   2.549  18.787  1.00  0.00    -0.001 C 
HETATM   30  C6  UNL     1      15.258   1.171  18.448  1.00  0.00     0.011 C 
BRANCH  29  31
HETATM   31  C4  UNL     1      15.718   3.572  17.732  1.00  0.00     0.010 C 
BRANCH  31  32
HETATM   32  C2  UNL     1      14.935   4.808  17.862  1.00  0.00    -0.022 C 
HETATM   33  C1  UNL     1      13.461   4.598  17.690  1.00  0.00     0.009 C 
HETATM   34  C3  UNL     1      15.253   5.615  19.101  1.00  0.00     0.009 C 
ENDBRANCH  31  32
ENDBRANCH  29  31
ENDBRANCH  28  29
ENDBRANCH  26  28
ENDBRANCH   1  26
BRANCH  11  35
HETATM   35  C17 UNL     1      20.075   5.114  20.708  1.00  0.00     0.242 C 
HETATM   36  O4  UNL     1      18.900   5.354  20.912  1.00  0.00    -0.306 OA
ENDBRANCH  11  35
BRANCH   8  37
HETATM   37  O3  UNL     1      23.744   2.539  16.898  1.00  0.00    -0.386 OA
ATOM     38  H3  UNL     1      24.502   2.877  17.360  1.00  0.00     0.210 HD
ENDBRANCH   8  37
BRANCH  13  39
HETATM   39  C20 UNL     1      20.228   6.712  17.836  1.00  0.00     0.186 C 
HETATM   40  O5  UNL     1      19.432   7.510  18.390  1.00  0.00    -0.647 OA
HETATM   41  O6  UNL     1      20.072   6.575  16.470  1.00  0.00    -0.647 OA
ENDBRANCH  13  39
BRANCH  25  42
HETATM   42  O7  UNL     1      21.465   5.013  16.443  1.00  0.00    -0.387 OA
ATOM     43  H7  UNL     1      20.679   4.480  16.461  1.00  0.00     0.210 HD
ENDBRANCH  25  42
TORSDOF 9
ENDMDL
MODEL 3
REMARK VINA RESULT: -9.073247397      3.201      6.107
REMARK  9 active torsions:
REMARK  status: ('A' for Active; 'I' for Inactive)
REMARK    1  A    between atoms: C2_2  and  C4_4 
REMARK    2  A    between atoms: C4_4  and  C5_5 
REMARK    3  A    between atoms: C5_5  and  C7_7 
REMARK    4  A    between atoms: C7_7  and  N1_8 
REMARK    5  A    between atoms: N1_8  and  C8_10 
REMARK    6  A    between atoms: C13_17  and  O3_18 
REMARK    7  A    between atoms: C16_22  and  C17_23 
REMARK    8  A    between atoms: C19_26  and  C20_27 
REMARK    9  A    between atoms: C32_41  and  O7_42 
ROOT
HETATM    1  C8  UNL     1      18.601   5.168  19.285  1.00  0.00     0.078 C 
HETATM    2  C9  UNL     1      18.148   3.783  19.121  1.00  0.00     0.042 C 
HETATM    3  C10 UNL     1      18.945   2.619  18.850  1.00  0.00     0.125 C 
HETATM    4  C11 UNL     1      18.332   1.453  19.645  1.00  0.00     0.266 C 
HETATM    5  O1  UNL     1      17.229   0.915  19.373  1.00  0.00    -0.265 OA
HETATM    6  O2  UNL     1      19.195   1.111  20.692  1.00  0.00    -0.318 OA
HETATM    7  C12 UNL     1      20.147   2.207  20.699  1.00  0.00     0.218 C 
HETATM    8  C13 UNL     1      20.306   2.334  19.177  1.00  0.00     0.103 C 
HETATM    9  C14 UNL     1      21.478   3.146  18.749  1.00  0.00     0.035 C 
HETATM   10  C15 UNL     1      21.348   4.376  19.588  1.00  0.00     0.034 C 
HETATM   11  C16 UNL     1      21.066   5.558  18.633  1.00  0.00     0.037 C 
HETATM   12  C18 UNL     1      19.627   5.708  18.332  1.00  0.00     0.042 C 
HETATM   13  C19 UNL     1      21.923   5.145  17.520  1.00  0.00     0.102 C 
HETATM   14  C21 UNL     1      23.344   5.291  17.512  1.00  0.00     0.038 C 
HETATM   15  C22 UNL     1      23.692   4.273  16.394  1.00  0.00     0.019 C 
HETATM   16  C23 UNL     1      22.750   3.151  16.632  1.00  0.00     0.031 C 
HETATM   17  C24 UNL     1      23.303   2.053  17.488  1.00  0.00    -0.033 C 
HETATM   18  C25 UNL     1      24.775   1.830  17.397  1.00  0.00     0.016 C 
HETATM   19  C26 UNL     1      22.746   0.768  16.853  1.00  0.00     0.016 C 
HETATM   20  C27 UNL     1      22.799   2.422  18.820  1.00  0.00     0.031 C 
HETATM   21  C28 UNL     1      23.807   3.007  19.750  1.00  0.00    -0.020 C 
HETATM   22  C29 UNL     1      24.516   4.244  19.585  1.00  0.00    -0.001 C 
HETATM   23  C30 UNL     1      24.377   5.207  18.511  1.00  0.00    -0.079 C 
HETATM   24  C31 UNL     1      24.768   6.602  19.051  1.00  0.00     0.044 C 
HETATM   25  C32 UNL     1      21.538   3.659  17.381  1.00  0.00     0.093 C 
ENDROOT
BRANCH   1  26
HETATM   26  N1  UNL     1      17.411   5.986  18.975  1.00  0.00    -0.417 N 
ATOM     27  H1  UNL     1      17.141   6.217  18.019  1.00  0.00     0.153 HD
BRANCH  26  28
HETATM   28  C7  UNL     1      16.674   6.426  20.100  1.00  0.00     0.118 C 
BRANCH  28  29
HETATM   29  C5  UNL     1      15.252   5.850  19.945  1.00  0.00    -0.001 C 
HETATM   30  C6  UNL     1      15.106   4.760  20.935  1.00  0.00     0.011 C 
BRANCH  29  31
HETATM   31  C4  UNL     1      15.101   5.549  18.514  1.00  0.00     0.010 C 
BRANCH  31  32
HETATM   32  C2  UNL     1      14.367   4.354  18.077  1.00  0.00    -0.022 C 
HETATM   33  C1  UNL     1      12.967   4.648  17.627  1.00  0.00     0.009 C 
HETATM   34  C3  UNL     1      15.116   3.496  17.082  1.00  0.00     0.009 C 
ENDBRANCH  31  32
ENDBRANCH  29  31
ENDBRANCH  28  29
ENDBRANCH  26  28
ENDBRANCH   1  26
BRANCH  11  35
HETATM   35  C17 UNL     1      21.491   6.745  19.419  1.00  0.00     0.242 C 
HETATM   36  O4  UNL     1      21.635   6.672  20.625  1.00  0.00    -0.306 OA
ENDBRANCH  11  35
BRANCH   8  37
HETATM   37  O3  UNL     1      20.535   0.963  18.894  1.00  0.00    -0.386 OA
ATOM     38  H3  UNL     1      21.316   0.700  19.368  1.00  0.00     0.210 HD
ENDBRANCH   8  37
BRANCH  13  39
HETATM   39  C20 UNL     1      21.374   5.771  16.278  1.00  0.00     0.186 C 
HETATM   40  O5  UNL     1      21.760   6.916  15.939  1.00  0.00    -0.647 OA
HETATM   41  O6  UNL     1      20.449   5.186  15.435  1.00  0.00    -0.647 OA
ENDBRANCH  13  39
BRANCH  25  42
HETATM   42  O7  UNL     1      20.473   3.433  16.567  1.00  0.00    -0.387 OA
ATOM     43  H7  UNL     1      20.556   3.663  15.649  1.00  0.00     0.210 HD
ENDBRANCH  25  42
TORSDOF 9
ENDMDL
MODEL 4
REMARK VINA RESULT: -8.946194069      2.809      6.141
REMARK  9 active torsions:
REMARK  status: ('A' for Active; 'I' for Inactive)
REMARK    1  A    between atoms: C2_2  and  C4_4 
REMARK    2  A    between atoms: C4_4  and  C5_5 
REMARK    3  A    between atoms: C5_5  and  C7_7 
REMARK    4  A    between atoms: C7_7  and  N1_8 
REMARK    5  A    between atoms: N1_8  and  C8_10 
REMARK    6  A    between atoms: C13_17  and  O3_18 
REMARK    7  A    between atoms: C16_22  and  C17_23 
REMARK    8  A    between atoms: C19_26  and  C20_27 
REMARK    9  A    between atoms: C32_41  and  O7_42 
ROOT
HETATM    1  C8  UNL     1      18.680   3.508  19.539  1.00  0.00     0.078 C 
HETATM    2  C9  UNL     1      19.083   2.457  18.599  1.00  0.00     0.042 C 
HETATM    3  C10 UNL     1      20.355   2.290  17.952  1.00  0.00     0.125 C 
HETATM    4  C11 UNL     1      20.637   0.779  17.888  1.00  0.00     0.266 C 
HETATM    5  O1  UNL     1      20.015  -0.026  17.150  1.00  0.00    -0.265 OA
HETATM    6  O2  UNL     1      21.676   0.471  18.772  1.00  0.00    -0.318 OA
HETATM    7  C12 UNL     1      21.821   1.693  19.543  1.00  0.00     0.218 C 
HETATM    8  C13 UNL     1      21.664   2.676  18.374  1.00  0.00     0.103 C 
HETATM    9  C14 UNL     1      22.087   4.069  18.684  1.00  0.00     0.035 C 
HETATM   10  C15 UNL     1      21.396   4.341  19.982  1.00  0.00     0.034 C 
HETATM   11  C16 UNL     1      20.359   5.458  19.728  1.00  0.00     0.037 C 
HETATM   12  C18 UNL     1      19.067   4.927  19.242  1.00  0.00     0.042 C 
HETATM   13  C19 UNL     1      21.132   6.257  18.775  1.00  0.00     0.102 C 
HETATM   14  C21 UNL     1      22.196   7.134  19.150  1.00  0.00     0.038 C 
HETATM   15  C22 UNL     1      22.903   7.268  17.775  1.00  0.00     0.019 C 
HETATM   16  C23 UNL     1      22.817   5.903  17.198  1.00  0.00     0.031 C 
HETATM   17  C24 UNL     1      24.011   5.041  17.471  1.00  0.00    -0.033 C 
HETATM   18  C25 UNL     1      25.316   5.752  17.600  1.00  0.00     0.016 C 
HETATM   19  C26 UNL     1      24.207   4.249  16.167  1.00  0.00     0.016 C 
HETATM   20  C27 UNL     1      23.578   4.289  18.660  1.00  0.00     0.031 C 
HETATM   21  C28 UNL     1      24.190   4.720  19.951  1.00  0.00    -0.020 C 
HETATM   22  C29 UNL     1      24.032   5.992  20.596  1.00  0.00    -0.001 C 
HETATM   23  C30 UNL     1      23.219   7.109  20.162  1.00  0.00    -0.079 C 
HETATM   24  C31 UNL     1      22.813   7.932  21.407  1.00  0.00     0.044 C 
HETATM   25  C32 UNL     1      21.651   5.165  17.819  1.00  0.00     0.093 C 
ENDROOT
BRANCH   1  26
HETATM   26  N1  UNL     1      17.207   3.549  19.440  1.00  0.00    -0.417 N 
ATOM     27  H1  UNL     1      16.604   2.981  20.035  1.00  0.00     0.153 HD
BRANCH  26  28
HETATM   28  C7  UNL     1      16.694   4.432  18.461  1.00  0.00     0.118 C 
BRANCH  28  29
HETATM   29  C5  UNL     1      15.371   4.989  19.024  1.00  0.00    -0.001 C 
HETATM   30  C6  UNL     1      14.355   4.881  17.955  1.00  0.00     0.011 C 
BRANCH  29  31
HETATM   31  C4  UNL     1      15.700   6.312  19.575  1.00  0.00     0.010 C 
BRANCH  31  32
HETATM   32  C2  UNL     1      15.689   6.537  21.027  1.00  0.00    -0.022 C 
HETATM   33  C1  UNL     1      15.408   7.961  21.404  1.00  0.00     0.009 C 
HETATM   34  C3  UNL     1      14.827   5.564  21.799  1.00  0.00     0.009 C 
ENDBRANCH  31  32
ENDBRANCH  29  31
ENDBRANCH  28  29
ENDBRANCH  26  28
ENDBRANCH   1  26
BRANCH  11  35
HETATM   35  C17 UNL     1      20.134   6.033  21.078  1.00  0.00     0.242 C 
HETATM   36  O4  UNL     1      19.024   6.391  21.424  1.00  0.00    -0.306 OA
ENDBRANCH  11  35
BRANCH   8  37
HETATM   37  O3  UNL     1      22.593   2.072  17.490  1.00  0.00    -0.386 OA
ATOM     38  H3  UNL     1      23.297   2.693  17.346  1.00  0.00     0.210 HD
ENDBRANCH   8  37
BRANCH  13  39
HETATM   39  C20 UNL     1      20.156   7.024  17.941  1.00  0.00     0.186 C 
HETATM   40  O5  UNL     1      19.346   7.805  18.497  1.00  0.00    -0.647 OA
HETATM   41  O6  UNL     1      20.059   6.953  16.564  1.00  0.00    -0.647 OA
ENDBRANCH  13  39
BRANCH  25  42
HETATM   42  O7  UNL     1      20.805   4.872  16.796  1.00  0.00    -0.387 OA
ATOM     43  H7  UNL     1      20.904   5.354  15.983  1.00  0.00     0.210 HD
ENDBRANCH  25  42
TORSDOF 9
ENDMDL
MODEL 5
REMARK VINA RESULT: -8.940176065      0.851      1.115
REMARK  9 active torsions:
REMARK  status: ('A' for Active; 'I' for Inactive)
REMARK    1  A    between atoms: C2_2  and  C4_4 
REMARK    2  A    between atoms: C4_4  and  C5_5 
REMARK    3  A    between atoms: C5_5  and  C7_7 
REMARK    4  A    between atoms: C7_7  and  N1_8 
REMARK    5  A    between atoms: N1_8  and  C8_10 
REMARK    6  A    between atoms: C13_17  and  O3_18 
REMARK    7  A    between atoms: C16_22  and  C17_23 
REMARK    8  A    between atoms: C19_26  and  C20_27 
REMARK    9  A    between atoms: C32_41  and  O7_42 
ROOT
HETATM    1  C8  UNL     1      22.015   7.227  21.059  1.00  0.00     0.078 C 
HETATM    2  C9  UNL     1      20.699   7.667  20.585  1.00  0.00     0.042 C 
HETATM    3  C10 UNL     1      19.924   7.127  19.502  1.00  0.00     0.125 C 
HETATM    4  C11 UNL     1      18.447   7.177  19.930  1.00  0.00     0.266 C 
HETATM    5  O1  UNL     1      17.779   8.235  20.045  1.00  0.00    -0.265 OA
HETATM    6  O2  UNL     1      17.995   5.873  20.162  1.00  0.00    -0.318 OA
HETATM    7  C12 UNL     1      19.223   5.097  20.150  1.00  0.00     0.218 C 
HETATM    8  C13 UNL     1      19.886   5.806  18.961  1.00  0.00     0.103 C 
HETATM    9  C14 UNL     1      21.055   5.080  18.390  1.00  0.00     0.035 C 
HETATM   10  C15 UNL     1      21.862   4.752  19.604  1.00  0.00     0.034 C 
HETATM   11  C16 UNL     1      23.189   5.538  19.503  1.00  0.00     0.037 C 
HETATM   12  C18 UNL     1      23.075   6.908  20.047  1.00  0.00     0.042 C 
HETATM   13  C19 UNL     1      23.395   5.428  18.057  1.00  0.00     0.102 C 
HETATM   14  C21 UNL     1      23.877   4.250  17.409  1.00  0.00     0.038 C 
HETATM   15  C22 UNL     1      23.410   4.555  15.961  1.00  0.00     0.019 C 
HETATM   16  C23 UNL     1      22.079   5.186  16.144  1.00  0.00     0.031 C 
HETATM   17  C24 UNL     1      20.928   4.231  16.071  1.00  0.00    -0.033 C 
HETATM   18  C25 UNL     1      21.114   3.048  15.181  1.00  0.00     0.016 C 
HETATM   19  C26 UNL     1      19.835   5.019  15.329  1.00  0.00     0.016 C 
HETATM   20  C27 UNL     1      20.695   3.925  17.491  1.00  0.00     0.031 C 
HETATM   21  C28 UNL     1      21.161   2.583  17.945  1.00  0.00    -0.020 C 
HETATM   22  C29 UNL     1      22.515   2.109  17.981  1.00  0.00    -0.001 C 
HETATM   23  C30 UNL     1      23.717   2.836  17.627  1.00  0.00    -0.079 C 
HETATM   24  C31 UNL     1      24.902   2.242  18.423  1.00  0.00     0.044 C 
HETATM   25  C32 UNL     1      21.995   5.795  17.527  1.00  0.00     0.093 C 
ENDROOT
BRANCH   1  26
HETATM   26  N1  UNL     1      22.572   8.407  21.749  1.00  0.00    -0.417 N 
ATOM     27  H1  UNL     1      22.707   8.437  22.760  1.00  0.00     0.153 HD
BRANCH  26  28
HETATM   28  C7  UNL     1      22.907   9.495  20.907  1.00  0.00     0.118 C 
BRANCH  28  29
HETATM   29  C5  UNL     1      22.800  10.767  21.771  1.00  0.00    -0.001 C 
HETATM   30  C6  UNL     1      24.132  11.410  21.780  1.00  0.00     0.011 C 
BRANCH  29  31
HETATM   31  C4  UNL     1      22.198  10.334  23.041  1.00  0.00     0.010 C 
BRANCH  31  32
HETATM   32  C2  UNL     1      21.504  11.299  23.903  1.00  0.00    -0.022 C 
HETATM   33  C1  UNL     1      20.128  10.856  24.303  1.00  0.00     0.009 C 
HETATM   34  C3  UNL     1      22.317  11.768  25.089  1.00  0.00     0.009 C 
ENDBRANCH  31  32
ENDBRANCH  29  31
ENDBRANCH  28  29
ENDBRANCH  26  28
ENDBRANCH   1  26
BRANCH  11  35
HETATM   35  C17 UNL     1      24.109   4.775  20.384  1.00  0.00     0.242 C 
HETATM   36  O4  UNL     1      25.141   5.277  20.788  1.00  0.00    -0.306 OA
ENDBRANCH  11  35
BRANCH   8  37
HETATM   37  O3  UNL     1      18.790   5.742  18.064  1.00  0.00    -0.386 OA
ATOM     38  H3  UNL     1      19.140   5.599  17.192  1.00  0.00     0.210 HD
ENDBRANCH   8  37
BRANCH  13  39
HETATM   39  C20 UNL     1      24.247   6.584  17.639  1.00  0.00     0.186 C 
HETATM   40  O5  UNL     1      25.490   6.437  17.554  1.00  0.00    -0.647 OA
HETATM   41  O6  UNL     1      23.777   7.844  17.322  1.00  0.00    -0.647 OA
ENDBRANCH  13  39
BRANCH  25  42
HETATM   42  O7  UNL     1      21.803   7.128  17.338  1.00  0.00    -0.387 OA
ATOM     43  H7  UNL     1      20.993   7.408  16.927  1.00  0.00     0.210 HD
ENDBRANCH  25  42
TORSDOF 9
ENDMDL
