MODEL 1
REMARK VINA RESULT: -10.554124422      0.000      0.000
REMARK  8 active torsions:
REMARK  status: ('A' for Active; 'I' for Inactive)
REMARK       I    between atoms: C1_2  and  N1_3 
REMARK       I    between atoms: C1_2  and  N6_31 
REMARK    1  A    between atoms: N1_3  and  C2_5 
REMARK    2  A    between atoms: N2_8  and  C5_9 
REMARK    3  A    between atoms: C5_9  and  C6_10 
REMARK    4  A    between atoms: C6_10  and  C7_11 
REMARK    5  A    between atoms: C10_14  and  N3_15 
REMARK    6  A    between atoms: N3_15  and  C11_17 
REMARK    7  A    between atoms: C14_20  and  N4_21 
REMARK    8  A    between atoms: N6_31  and  C20_33 
ROOT
HETATM    1  C2  UNL     1      23.801   9.821  21.655  1.00  0.00     0.089 C 
HETATM    2  C3  UNL     1      23.002   9.852  22.898  1.00  0.00     0.055 C 
HETATM    3  C4  UNL     1      22.014  10.983  22.969  1.00  0.00     0.274 C 
HETATM    4  N2  UNL     1      22.554  12.243  22.576  1.00  0.00     0.088 N 
HETATM    5  C18 UNL     1      23.428  12.229  21.461  1.00  0.00     0.274 C 
HETATM    6  C19 UNL     1      24.433  11.151  21.421  1.00  0.00     0.055 C 
ENDROOT
BRANCH   1   7
HETATM    7  N1  UNL     1      23.076   9.312  20.496  1.00  0.00    -0.338 N 
HETATM    8  C1  UNL     1      23.058   7.946  20.147  1.00  0.00     0.316 C 
HETATM    9  O1  UNL     1      23.675   7.120  20.846  1.00  0.00    -0.247 OA
HETATM   10  N6  UNL     1      22.345   7.500  19.007  1.00  0.00    -0.338 N 
ATOM     11  H6  UNL     1      21.843   8.190  18.447  1.00  0.00     0.164 HD
ATOM     12  H1  UNL     1      22.560   9.973  19.914  1.00  0.00     0.164 HD
BRANCH  10  13
HETATM   13  C20 UNL     1      22.294   6.095  18.593  1.00  0.00     0.091 C 
HETATM   14  C21 UNL     1      21.606   6.030  17.245  1.00  0.00     0.032 C 
HETATM   15  C22 UNL     1      22.920   5.816  16.556  1.00  0.00     0.025 C 
HETATM   16  C23 UNL     1      23.134   4.449  15.957  1.00  0.00     0.194 C 
HETATM   17  C26 UNL     1      23.565   5.698  17.949  1.00  0.00     0.023 C 
HETATM   18  C24 UNL     1      24.526   4.140  16.546  1.00  0.00     0.043 C 
HETATM   19  N7  UNL     1      22.319   3.515  16.695  1.00  0.00    -0.038 N 
HETATM   20  C25 UNL     1      24.048   4.293  18.011  1.00  0.00     0.057 C 
HETATM   21  C27 UNL     1      22.949   3.265  17.957  1.00  0.00     0.232 C 
HETATM   22  C28 UNL     1      23.541   1.880  18.066  1.00  0.00     0.095 C 
HETATM   23  O4  UNL     1      22.197   3.071  19.061  1.00  0.00    -0.354 OA
HETATM   24  C29 UNL     1      22.279   1.680  18.855  1.00  0.00     0.176 C 
ATOM     25  H72 UNL     1      21.354   3.830  16.794  1.00  0.00     0.281 HD
ATOM     26  H71 UNL     1      22.133   2.659  16.173  1.00  0.00     0.281 HD
ENDBRANCH  10  13
ENDBRANCH   1   7
BRANCH   4  27
HETATM   27  C5  UNL     1      23.197  12.923  23.659  1.00  0.00     0.272 C 
BRANCH  27  28
HETATM   28  C6  UNL     1      22.531  14.127  24.185  1.00  0.00     0.034 C 
BRANCH  28  29
HETATM   29  C7  UNL     1      22.447  14.023  25.724  1.00  0.00    -0.013 C 
HETATM   30  C8  UNL     1      21.324  14.776  26.303  1.00  0.00     0.007 C 
HETATM   31  C9  UNL     1      20.415  14.116  27.265  1.00  0.00     0.025 C 
HETATM   32  C10 UNL     1      20.150  12.667  27.090  1.00  0.00     0.083 C 
HETATM   33  C16 UNL     1      21.030  12.037  26.025  1.00  0.00     0.025 C 
HETATM   34  C17 UNL     1      22.440  12.578  26.135  1.00  0.00     0.007 C 
BRANCH  32  35
HETATM   35  N3  UNL     1      20.370  11.910  28.311  1.00  0.00    -0.372 N 
ATOM     36  H3  UNL     1      21.115  12.219  28.935  1.00  0.00     0.161 HD
BRANCH  35  37
HETATM   37  C11 UNL     1      19.688  10.877  28.656  1.00  0.00     0.101 A 
HETATM   38  C12 UNL     1      18.355  10.694  28.429  1.00  0.00     0.051 A 
HETATM   39  C13 UNL     1      17.693   9.564  28.846  1.00  0.00     0.041 A 
HETATM   40  C14 UNL     1      18.372   8.554  29.523  1.00  0.00     0.118 A 
HETATM   41  C15 UNL     1      19.720   8.789  29.727  1.00  0.00     0.125 A 
HETATM   42  N5  UNL     1      20.360   9.895  29.316  1.00  0.00    -0.350 N 
ATOM     43  H5  UNL     1      21.358  10.001  29.499  1.00  0.00     0.166 HD
BRANCH  40  44
HETATM   44  N4  UNL     1      17.729   7.382  29.974  1.00  0.00    -0.114 N 
HETATM   45  O2  UNL     1      17.945   6.967  31.116  1.00  0.00    -0.532 OA
HETATM   46  O3  UNL     1      16.876   6.711  29.163  1.00  0.00    -0.532 OA
ENDBRANCH  40  44
ENDBRANCH  35  37
ENDBRANCH  32  35
ENDBRANCH  28  29
ENDBRANCH  27  28
ENDBRANCH   4  27
TORSDOF 8
ENDMDL
MODEL 2
REMARK VINA RESULT: -10.527167133      1.172      1.617
REMARK  8 active torsions:
REMARK  status: ('A' for Active; 'I' for Inactive)
REMARK       I    between atoms: C1_2  and  N1_3 
REMARK       I    between atoms: C1_2  and  N6_31 
REMARK    1  A    between atoms: N1_3  and  C2_5 
REMARK    2  A    between atoms: N2_8  and  C5_9 
REMARK    3  A    between atoms: C5_9  and  C6_10 
REMARK    4  A    between atoms: C6_10  and  C7_11 
REMARK    5  A    between atoms: C10_14  and  N3_15 
REMARK    6  A    between atoms: N3_15  and  C11_17 
REMARK    7  A    between atoms: C14_20  and  N4_21 
REMARK    8  A    between atoms: N6_31  and  C20_33 
ROOT
HETATM    1  C2  UNL     1      22.699  10.542  21.654  1.00  0.00     0.089 C 
HETATM    2  C3  UNL     1      23.084  11.902  21.220  1.00  0.00     0.055 C 
HETATM    3  C4  UNL     1      24.376  12.396  21.810  1.00  0.00     0.274 C 
HETATM    4  N2  UNL     1      24.496  12.160  23.211  1.00  0.00     0.088 N 
HETATM    5  C18 UNL     1      24.017  10.912  23.679  1.00  0.00     0.274 C 
HETATM    6  C19 UNL     1      22.722  10.456  23.143  1.00  0.00     0.055 C 
ENDROOT
BRANCH   1   7
HETATM    7  N1  UNL     1      23.450   9.476  21.000  1.00  0.00    -0.338 N 
HETATM    8  C1  UNL     1      22.849   8.279  20.561  1.00  0.00     0.316 C 
HETATM    9  O1  UNL     1      21.626   8.103  20.724  1.00  0.00    -0.247 OA
HETATM   10  N6  UNL     1      23.621   7.268  19.938  1.00  0.00    -0.338 N 
ATOM     11  H6  UNL     1      24.620   7.429  19.811  1.00  0.00     0.164 HD
ATOM     12  H1  UNL     1      24.452   9.603  20.854  1.00  0.00     0.164 HD
BRANCH  10  13
HETATM   13  C20 UNL     1      23.053   6.002  19.466  1.00  0.00     0.091 C 
HETATM   14  C21 UNL     1      23.230   5.942  17.963  1.00  0.00     0.032 C 
HETATM   15  C22 UNL     1      24.362   4.969  18.109  1.00  0.00     0.025 C 
HETATM   16  C23 UNL     1      24.087   3.564  17.635  1.00  0.00     0.194 C 
HETATM   17  C26 UNL     1      24.035   4.907  19.613  1.00  0.00     0.023 C 
HETATM   18  C24 UNL     1      24.576   2.789  18.875  1.00  0.00     0.043 C 
HETATM   19  N7  UNL     1      22.665   3.342  17.725  1.00  0.00    -0.038 N 
HETATM   20  C25 UNL     1      23.591   3.505  19.832  1.00  0.00     0.057 C 
HETATM   21  C27 UNL     1      22.325   3.141  19.102  1.00  0.00     0.232 C 
HETATM   22  C28 UNL     1      21.941   1.716  19.422  1.00  0.00     0.095 C 
HETATM   23  O4  UNL     1      21.152   3.605  19.582  1.00  0.00    -0.354 OA
HETATM   24  C29 UNL     1      20.577   2.339  19.357  1.00  0.00     0.176 C 
ATOM     25  H72 UNL     1      22.123   4.090  17.292  1.00  0.00     0.281 HD
ATOM     26  H71 UNL     1      22.349   2.577  17.127  1.00  0.00     0.281 HD
ENDBRANCH  10  13
ENDBRANCH   1   7
BRANCH   4  27
HETATM   27  C5  UNL     1      23.903  13.205  23.992  1.00  0.00     0.272 C 
BRANCH  27  28
HETATM   28  C6  UNL     1      24.524  13.501  25.296  1.00  0.00     0.034 C 
BRANCH  28  29
HETATM   29  C7  UNL     1      23.421  13.920  26.292  1.00  0.00    -0.013 C 
HETATM   30  C8  UNL     1      22.193  14.402  25.639  1.00  0.00     0.007 C 
HETATM   31  C9  UNL     1      20.880  13.855  26.047  1.00  0.00     0.025 C 
HETATM   32  C10 UNL     1      20.823  12.438  26.483  1.00  0.00     0.083 C 
HETATM   33  C16 UNL     1      22.199  11.812  26.619  1.00  0.00     0.025 C 
HETATM   34  C17 UNL     1      23.154  12.800  27.256  1.00  0.00     0.007 C 
BRANCH  32  35
HETATM   35  N3  UNL     1      20.165  12.279  27.770  1.00  0.00    -0.372 N 
ATOM     36  H3  UNL     1      20.222  13.052  28.433  1.00  0.00     0.161 HD
BRANCH  35  37
HETATM   37  C11 UNL     1      19.518  11.228  28.128  1.00  0.00     0.101 A 
HETATM   38  C12 UNL     1      18.255  10.900  27.728  1.00  0.00     0.051 A 
HETATM   39  C13 UNL     1      17.623   9.763  28.170  1.00  0.00     0.041 A 
HETATM   40  C14 UNL     1      18.260   8.896  29.054  1.00  0.00     0.118 A 
HETATM   41  C15 UNL     1      19.538   9.274  29.427  1.00  0.00     0.125 A 
HETATM   42  N5  UNL     1      20.150  10.387  28.990  1.00  0.00    -0.350 N 
ATOM     43  H5  UNL     1      21.095  10.603  29.306  1.00  0.00     0.166 HD
BRANCH  40  44
HETATM   44  N4  UNL     1      17.646   7.722  29.537  1.00  0.00    -0.114 N 
HETATM   45  O2  UNL     1      17.931   7.301  30.662  1.00  0.00    -0.532 OA
HETATM   46  O3  UNL     1      16.744   7.055  28.777  1.00  0.00    -0.532 OA
ENDBRANCH  40  44
ENDBRANCH  35  37
ENDBRANCH  32  35
ENDBRANCH  28  29
ENDBRANCH  27  28
ENDBRANCH   4  27
TORSDOF 8
ENDMDL
MODEL 3
REMARK VINA RESULT: -10.521843398      3.960     10.696
REMARK  8 active torsions:
REMARK  status: ('A' for Active; 'I' for Inactive)
REMARK       I    between atoms: C1_2  and  N1_3 
REMARK       I    between atoms: C1_2  and  N6_31 
REMARK    1  A    between atoms: N1_3  and  C2_5 
REMARK    2  A    between atoms: N2_8  and  C5_9 
REMARK    3  A    between atoms: C5_9  and  C6_10 
REMARK    4  A    between atoms: C6_10  and  C7_11 
REMARK    5  A    between atoms: C10_14  and  N3_15 
REMARK    6  A    between atoms: N3_15  and  C11_17 
REMARK    7  A    between atoms: C14_20  and  N4_21 
REMARK    8  A    between atoms: N6_31  and  C20_33 
ROOT
HETATM    1  C2  UNL     1      23.287   7.034  20.577  1.00  0.00     0.089 C 
HETATM    2  C3  UNL     1      24.504   6.220  20.367  1.00  0.00     0.055 C 
HETATM    3  C4  UNL     1      25.184   6.456  19.046  1.00  0.00     0.274 C 
HETATM    4  N2  UNL     1      24.288   6.487  17.937  1.00  0.00     0.088 N 
HETATM    5  C18 UNL     1      23.055   7.151  18.147  1.00  0.00     0.274 C 
HETATM    6  C19 UNL     1      22.362   6.876  19.418  1.00  0.00     0.055 C 
ENDROOT
BRANCH   1   7
HETATM    7  N1  UNL     1      23.557   8.426  20.919  1.00  0.00    -0.338 N 
HETATM    8  C1  UNL     1      23.146   9.005  22.137  1.00  0.00     0.316 C 
HETATM    9  O1  UNL     1      22.531   8.317  22.974  1.00  0.00    -0.247 OA
HETATM   10  N6  UNL     1      23.424  10.365  22.422  1.00  0.00    -0.338 N 
ATOM     11  H6  UNL     1      23.930  10.913  21.727  1.00  0.00     0.164 HD
ATOM     12  H1  UNL     1      24.063   9.005  20.248  1.00  0.00     0.164 HD
BRANCH  10  13
HETATM   13  C20 UNL     1      23.018  11.021  23.668  1.00  0.00     0.091 C 
HETATM   14  C21 UNL     1      24.273  11.371  24.441  1.00  0.00     0.032 C 
HETATM   15  C22 UNL     1      24.140  12.814  24.054  1.00  0.00     0.025 C 
HETATM   16  C23 UNL     1      23.784  13.764  25.170  1.00  0.00     0.194 C 
HETATM   17  C26 UNL     1      22.773  12.461  23.439  1.00  0.00     0.023 C 
HETATM   18  C24 UNL     1      22.614  14.507  24.493  1.00  0.00     0.043 C 
HETATM   19  N7  UNL     1      23.076  13.012  26.177  1.00  0.00    -0.038 N 
HETATM   20  C25 UNL     1      21.794  13.212  24.268  1.00  0.00     0.057 C 
HETATM   21  C27 UNL     1      21.744  12.771  25.707  1.00  0.00     0.232 C 
HETATM   22  C28 UNL     1      20.696  13.565  26.449  1.00  0.00     0.095 C 
HETATM   23  O4  UNL     1      21.125  11.608  26.000  1.00  0.00    -0.354 OA
HETATM   24  C29 UNL     1      20.517  12.229  27.109  1.00  0.00     0.176 C 
ATOM     25  H72 UNL     1      23.561  12.153  26.438  1.00  0.00     0.281 HD
ATOM     26  H71 UNL     1      23.094  13.465  27.090  1.00  0.00     0.281 HD
ENDBRANCH  10  13
ENDBRANCH   1   7
BRANCH   4  27
HETATM   27  C5  UNL     1      24.026   5.182  17.410  1.00  0.00     0.272 C 
BRANCH  27  28
HETATM   28  C6  UNL     1      23.318   5.109  16.120  1.00  0.00     0.034 C 
BRANCH  28  29
HETATM   29  C7  UNL     1      22.120   4.144  16.259  1.00  0.00    -0.013 C 
HETATM   30  C8  UNL     1      21.871   3.715  17.644  1.00  0.00     0.007 C 
HETATM   31  C9  UNL     1      20.506   3.806  18.208  1.00  0.00     0.025 C 
HETATM   32  C10 UNL     1      19.637   4.918  17.749  1.00  0.00     0.083 C 
HETATM   33  C16 UNL     1      20.247   5.700  16.600  1.00  0.00     0.025 C 
HETATM   34  C17 UNL     1      20.903   4.749  15.620  1.00  0.00     0.007 C 
BRANCH  32  35
HETATM   35  N3  UNL     1      18.337   4.455  17.292  1.00  0.00    -0.372 N 
ATOM     36  H3  UNL     1      18.253   4.151  16.322  1.00  0.00     0.161 HD
BRANCH  35  37
HETATM   37  C11 UNL     1      17.286   4.403  18.030  1.00  0.00     0.101 A 
HETATM   38  C12 UNL     1      17.027   5.210  19.100  1.00  0.00     0.051 A 
HETATM   39  C13 UNL     1      15.884   5.080  19.851  1.00  0.00     0.041 A 
HETATM   40  C14 UNL     1      14.938   4.106  19.539  1.00  0.00     0.118 A 
HETATM   41  C15 UNL     1      15.248   3.316  18.445  1.00  0.00     0.125 A 
HETATM   42  N5  UNL     1      16.368   3.450  17.716  1.00  0.00    -0.350 N 
ATOM     43  H5  UNL     1      16.531   2.833  16.921  1.00  0.00     0.166 HD
BRANCH  40  44
HETATM   44  N4  UNL     1      13.755   3.934  20.287  1.00  0.00    -0.114 N 
HETATM   45  O2  UNL     1      12.806   3.315  19.797  1.00  0.00    -0.532 OA
HETATM   46  O3  UNL     1      13.653   4.441  21.539  1.00  0.00    -0.532 OA
ENDBRANCH  40  44
ENDBRANCH  35  37
ENDBRANCH  32  35
ENDBRANCH  28  29
ENDBRANCH  27  28
ENDBRANCH   4  27
TORSDOF 8
ENDMDL
MODEL 4
REMARK VINA RESULT: -10.396713946      1.314      1.916
REMARK  8 active torsions:
REMARK  status: ('A' for Active; 'I' for Inactive)
REMARK       I    between atoms: C1_2  and  N1_3 
REMARK       I    between atoms: C1_2  and  N6_31 
REMARK    1  A    between atoms: N1_3  and  C2_5 
REMARK    2  A    between atoms: N2_8  and  C5_9 
REMARK    3  A    between atoms: C5_9  and  C6_10 
REMARK    4  A    between atoms: C6_10  and  C7_11 
REMARK    5  A    between atoms: C10_14  and  N3_15 
REMARK    6  A    between atoms: N3_15  and  C11_17 
REMARK    7  A    between atoms: C14_20  and  N4_21 
REMARK    8  A    between atoms: N6_31  and  C20_33 
ROOT
HETATM    1  C2  UNL     1      22.858  10.146  21.910  1.00  0.00     0.089 C 
HETATM    2  C3  UNL     1      22.574  11.506  21.402  1.00  0.00     0.055 C 
HETATM    3  C4  UNL     1      23.713  12.474  21.563  1.00  0.00     0.274 C 
HETATM    4  N2  UNL     1      24.325  12.434  22.850  1.00  0.00     0.088 N 
HETATM    5  C18 UNL     1      24.495  11.149  23.422  1.00  0.00     0.274 C 
HETATM    6  C19 UNL     1      23.356  10.219  23.313  1.00  0.00     0.055 C 
ENDROOT
BRANCH   1   7
HETATM    7  N1  UNL     1      23.709   9.351  21.033  1.00  0.00    -0.338 N 
HETATM    8  C1  UNL     1      23.192   8.484  20.049  1.00  0.00     0.316 C 
HETATM    9  O1  UNL     1      21.959   8.380  19.900  1.00  0.00    -0.247 OA
HETATM   10  N6  UNL     1      24.059   7.725  19.224  1.00  0.00    -0.338 N 
ATOM     11  H6  UNL     1      25.066   7.824  19.358  1.00  0.00     0.164 HD
ATOM     12  H1  UNL     1      24.722   9.426  21.135  1.00  0.00     0.164 HD
BRANCH  10  13
HETATM   13  C20 UNL     1      23.579   6.805  18.189  1.00  0.00     0.091 C 
HETATM   14  C21 UNL     1      24.747   6.472  17.283  1.00  0.00     0.032 C 
HETATM   15  C22 UNL     1      24.887   5.121  17.917  1.00  0.00     0.025 C 
HETATM   16  C23 UNL     1      24.519   3.944  17.049  1.00  0.00     0.194 C 
HETATM   17  C26 UNL     1      23.588   5.413  18.689  1.00  0.00     0.023 C 
HETATM   18  C24 UNL     1      23.584   3.204  18.026  1.00  0.00     0.043 C 
HETATM   19  N7  UNL     1      23.568   4.406  16.067  1.00  0.00    -0.038 N 
HETATM   20  C25 UNL     1      22.621   4.409  18.171  1.00  0.00     0.057 C 
HETATM   21  C27 UNL     1      22.298   4.566  16.709  1.00  0.00     0.232 C 
HETATM   22  C28 UNL     1      21.283   3.527  16.296  1.00  0.00     0.095 C 
HETATM   23  O4  UNL     1      21.476   5.571  16.339  1.00  0.00    -0.354 OA
HETATM   24  C29 UNL     1      20.813   4.687  15.466  1.00  0.00     0.176 C 
ATOM     25  H72 UNL     1      23.877   5.253  15.590  1.00  0.00     0.281 HD
ATOM     26  H71 UNL     1      23.521   3.797  15.250  1.00  0.00     0.281 HD
ENDBRANCH  10  13
ENDBRANCH   1   7
BRANCH   4  27
HETATM   27  C5  UNL     1      23.659  13.277  23.797  1.00  0.00     0.272 C 
BRANCH  27  28
HETATM   28  C6  UNL     1      24.333  13.497  25.089  1.00  0.00     0.034 C 
BRANCH  28  29
HETATM   29  C7  UNL     1      23.280  13.911  26.139  1.00  0.00    -0.013 C 
HETATM   30  C8  UNL     1      22.038  14.434  25.550  1.00  0.00     0.007 C 
HETATM   31  C9  UNL     1      20.731  13.902  25.997  1.00  0.00     0.025 C 
HETATM   32  C10 UNL     1      20.662  12.475  26.399  1.00  0.00     0.083 C 
HETATM   33  C16 UNL     1      22.029  11.819  26.462  1.00  0.00     0.025 C 
HETATM   34  C17 UNL     1      23.029  12.771  27.085  1.00  0.00     0.007 C 
BRANCH  32  35
HETATM   35  N3  UNL     1      20.054  12.295  27.707  1.00  0.00    -0.372 N 
ATOM     36  H3  UNL     1      20.125  13.063  28.375  1.00  0.00     0.161 HD
BRANCH  35  37
HETATM   37  C11 UNL     1      19.434  11.232  28.078  1.00  0.00     0.101 A 
HETATM   38  C12 UNL     1      18.157  10.897  27.731  1.00  0.00     0.051 A 
HETATM   39  C13 UNL     1      17.557   9.747  28.184  1.00  0.00     0.041 A 
HETATM   40  C14 UNL     1      18.244   8.873  29.024  1.00  0.00     0.118 A 
HETATM   41  C15 UNL     1      19.534   9.259  29.344  1.00  0.00     0.125 A 
HETATM   42  N5  UNL     1      20.113  10.385  28.896  1.00  0.00    -0.350 N 
ATOM     43  H5  UNL     1      21.070  10.606  29.172  1.00  0.00     0.166 HD
BRANCH  40  44
HETATM   44  N4  UNL     1      17.663   7.686  29.517  1.00  0.00    -0.114 N 
HETATM   45  O2  UNL     1      16.859   7.063  28.818  1.00  0.00    -0.532 OA
HETATM   46  O3  UNL     1      17.985   7.224  30.749  1.00  0.00    -0.532 OA
ENDBRANCH  40  44
ENDBRANCH  35  37
ENDBRANCH  32  35
ENDBRANCH  28  29
ENDBRANCH  27  28
ENDBRANCH   4  27
TORSDOF 8
ENDMDL
MODEL 5
REMARK VINA RESULT: -10.373961863      0.997      1.329
REMARK  8 active torsions:
REMARK  status: ('A' for Active; 'I' for Inactive)
REMARK       I    between atoms: C1_2  and  N1_3 
REMARK       I    between atoms: C1_2  and  N6_31 
REMARK    1  A    between atoms: N1_3  and  C2_5 
REMARK    2  A    between atoms: N2_8  and  C5_9 
REMARK    3  A    between atoms: C5_9  and  C6_10 
REMARK    4  A    between atoms: C6_10  and  C7_11 
REMARK    5  A    between atoms: C10_14  and  N3_15 
REMARK    6  A    between atoms: N3_15  and  C11_17 
REMARK    7  A    between atoms: C14_20  and  N4_21 
REMARK    8  A    between atoms: N6_31  and  C20_33 
ROOT
HETATM    1  C2  UNL     1      22.735  10.529  22.389  1.00  0.00     0.089 C 
HETATM    2  C3  UNL     1      22.306  11.943  22.346  1.00  0.00     0.055 C 
HETATM    3  C4  UNL     1      23.436  12.928  22.227  1.00  0.00     0.274 C 
HETATM    4  N2  UNL     1      24.525  12.661  23.108  1.00  0.00     0.088 N 
HETATM    5  C18 UNL     1      24.880  11.299  23.270  1.00  0.00     0.274 C 
HETATM    6  C19 UNL     1      23.773  10.342  23.443  1.00  0.00     0.055 C 
ENDROOT
BRANCH   1   7
HETATM    7  N1  UNL     1      23.122   9.987  21.091  1.00  0.00    -0.338 N 
HETATM    8  C1  UNL     1      22.975   8.625  20.759  1.00  0.00     0.316 C 
HETATM    9  O1  UNL     1      22.490   7.833  21.590  1.00  0.00    -0.247 OA
HETATM   10  N6  UNL     1      23.373   8.142  19.488  1.00  0.00    -0.338 N 
ATOM     11  H6  UNL     1      23.766   8.804  18.819  1.00  0.00     0.164 HD
ATOM     12  H1  UNL     1      23.517  10.620  20.395  1.00  0.00     0.164 HD
BRANCH  10  13
HETATM   13  C20 UNL     1      23.248   6.737  19.089  1.00  0.00     0.091 C 
HETATM   14  C21 UNL     1      21.866   6.541  18.501  1.00  0.00     0.032 C 
HETATM   15  C22 UNL     1      22.432   6.515  17.112  1.00  0.00     0.025 C 
HETATM   16  C23 UNL     1      22.381   5.184  16.405  1.00  0.00     0.194 C 
HETATM   17  C26 UNL     1      23.834   6.526  17.748  1.00  0.00     0.023 C 
HETATM   18  C24 UNL     1      23.847   5.103  15.932  1.00  0.00     0.043 C 
HETATM   19  N7  UNL     1      22.369   4.153  17.414  1.00  0.00    -0.038 N 
HETATM   20  C25 UNL     1      24.418   5.212  17.367  1.00  0.00     0.057 C 
HETATM   21  C27 UNL     1      23.692   4.027  17.947  1.00  0.00     0.232 C 
HETATM   22  C28 UNL     1      24.385   2.751  17.534  1.00  0.00     0.095 C 
HETATM   23  O4  UNL     1      23.869   3.745  19.256  1.00  0.00    -0.354 OA
HETATM   24  C29 UNL     1      23.976   2.378  18.930  1.00  0.00     0.176 C 
ATOM     25  H72 UNL     1      21.668   4.319  18.136  1.00  0.00     0.281 HD
ATOM     26  H71 UNL     1      22.001   3.268  17.065  1.00  0.00     0.281 HD
ENDBRANCH  10  13
ENDBRANCH   1   7
BRANCH   4  27
HETATM   27  C5  UNL     1      24.337  13.247  24.401  1.00  0.00     0.272 C 
BRANCH  27  28
HETATM   28  C6  UNL     1      23.163  14.120  24.577  1.00  0.00     0.034 C 
BRANCH  28  29
HETATM   29  C7  UNL     1      22.720  14.071  26.055  1.00  0.00    -0.013 C 
HETATM   30  C8  UNL     1      21.436  14.746  26.305  1.00  0.00     0.007 C 
HETATM   31  C9  UNL     1      20.374  14.048  27.063  1.00  0.00     0.025 C 
HETATM   32  C10 UNL     1      20.271  12.574  26.919  1.00  0.00     0.083 C 
HETATM   33  C16 UNL     1      21.426  11.982  26.132  1.00  0.00     0.025 C 
HETATM   34  C17 UNL     1      22.723  12.650  26.540  1.00  0.00     0.007 C 
BRANCH  32  35
HETATM   35  N3  UNL     1      20.247  11.890  28.201  1.00  0.00    -0.372 N 
ATOM     36  H3  UNL     1      20.829  12.263  28.950  1.00  0.00     0.161 HD
BRANCH  35  37
HETATM   37  C11 UNL     1      19.540  10.847  28.453  1.00  0.00     0.101 A 
HETATM   38  C12 UNL     1      18.322  10.563  27.906  1.00  0.00     0.051 A 
HETATM   39  C13 UNL     1      17.620   9.430  28.241  1.00  0.00     0.041 A 
HETATM   40  C14 UNL     1      18.136   8.523  29.163  1.00  0.00     0.118 A 
HETATM   41  C15 UNL     1      19.372   8.858  29.686  1.00  0.00     0.125 A 
HETATM   42  N5  UNL     1      20.053   9.967  29.353  1.00  0.00    -0.350 N 
ATOM     43  H5  UNL     1      20.962  10.149  29.778  1.00  0.00     0.166 HD
BRANCH  40  44
HETATM   44  N4  UNL     1      17.445   7.352  29.539  1.00  0.00    -0.114 N 
HETATM   45  O2  UNL     1      16.795   6.728  28.696  1.00  0.00    -0.532 OA
HETATM   46  O3  UNL     1      17.491   6.908  30.818  1.00  0.00    -0.532 OA
ENDBRANCH  40  44
ENDBRANCH  35  37
ENDBRANCH  32  35
ENDBRANCH  28  29
ENDBRANCH  27  28
ENDBRANCH   4  27
TORSDOF 8
ENDMDL
