MODEL 1
REMARK VINA RESULT: -5.558322722      0.000      0.000
REMARK  2 active torsions:
REMARK  status: ('A' for Active; 'I' for Inactive)
REMARK    1  A    between atoms: C2_2  and  N2_6 
REMARK    2  A    between atoms: C4_9  and  C5_10 
ROOT
HETATM    1  N2  UNL     1      16.759   2.961  14.067  1.00  0.00    -0.347 N 
HETATM    2  C3  UNL     1      16.833   1.777  14.918  1.00  0.00     0.294 C 
HETATM    3  O1  UNL     1      15.860   1.948  15.902  1.00  0.00    -0.364 OA
HETATM    4  C4  UNL     1      16.021   3.300  16.209  1.00  0.00     0.159 C 
HETATM    5  C7  UNL     1      15.982   3.931  14.846  1.00  0.00     0.159 C 
ENDROOT
BRANCH   1   6
HETATM    6  C2  UNL     1      17.330   3.081  12.792  1.00  0.00     0.070 C 
HETATM    7  C1  UNL     1      16.805   2.297  11.641  1.00  0.00     0.088 C 
HETATM    8  N1  UNL     1      18.328   3.882  12.600  1.00  0.00    -0.389 N 
ATOM      9  H12 UNL     1      18.743   3.969  11.673  1.00  0.00     0.157 HD
ATOM     10  H11 UNL     1      18.688   4.419  13.389  1.00  0.00     0.157 HD
ENDBRANCH   1   6
BRANCH   4  11
HETATM   11  C5  UNL     1      14.946   3.808  17.131  1.00  0.00     0.109 C 
HETATM   12  C6  UNL     1      13.802   2.806  17.077  1.00  0.00     0.029 C 
HETATM   13 CL1  UNL     1      14.389   5.389  16.526  1.00  0.00    -0.123 Cl
ENDBRANCH   4  11
TORSDOF 2
ENDMDL
MODEL 2
REMARK VINA RESULT: -5.357200363      1.391      1.609
REMARK  2 active torsions:
REMARK  status: ('A' for Active; 'I' for Inactive)
REMARK    1  A    between atoms: C2_2  and  N2_6 
REMARK    2  A    between atoms: C4_9  and  C5_10 
ROOT
HETATM    1  N2  UNL     1      16.806   3.558  14.590  1.00  0.00    -0.347 N 
HETATM    2  C3  UNL     1      16.945   2.114  14.756  1.00  0.00     0.294 C 
HETATM    3  O1  UNL     1      15.944   1.729  15.647  1.00  0.00    -0.364 OA
HETATM    4  C4  UNL     1      16.004   2.761  16.583  1.00  0.00     0.159 C 
HETATM    5  C7  UNL     1      15.948   3.978  15.704  1.00  0.00     0.159 C 
ENDROOT
BRANCH   1   6
HETATM    6  C2  UNL     1      17.391   4.318  13.568  1.00  0.00     0.070 C 
HETATM    7  C1  UNL     1      17.094   5.770  13.427  1.00  0.00     0.088 C 
HETATM    8  N1  UNL     1      18.203   3.761  12.729  1.00  0.00    -0.389 N 
ATOM      9  H12 UNL     1      18.629   4.314  11.985  1.00  0.00     0.157 HD
ATOM     10  H11 UNL     1      18.406   2.767  12.825  1.00  0.00     0.157 HD
ENDBRANCH   1   6
BRANCH   4  11
HETATM   11  C5  UNL     1      14.879   2.695  17.580  1.00  0.00     0.109 C 
HETATM   12  C6  UNL     1      13.585   2.895  16.805  1.00  0.00     0.029 C 
HETATM   13 CL1  UNL     1      15.088   4.022  18.752  1.00  0.00    -0.123 Cl
ENDBRANCH   4  11
TORSDOF 2
ENDMDL
MODEL 3
REMARK VINA RESULT: -5.319101514      0.995      1.180
REMARK  2 active torsions:
REMARK  status: ('A' for Active; 'I' for Inactive)
REMARK    1  A    between atoms: C2_2  and  N2_6 
REMARK    2  A    between atoms: C4_9  and  C5_10 
ROOT
HETATM    1  N2  UNL     1      16.763   3.026  13.993  1.00  0.00    -0.347 N 
HETATM    2  C3  UNL     1      16.757   1.889  14.910  1.00  0.00     0.294 C 
HETATM    3  O1  UNL     1      15.680   2.094  15.772  1.00  0.00    -0.364 OA
HETATM    4  C4  UNL     1      15.789   3.462  16.021  1.00  0.00     0.159 C 
HETATM    5  C7  UNL     1      15.893   4.020  14.630  1.00  0.00     0.159 C 
ENDROOT
BRANCH   1   6
HETATM    6  C2  UNL     1      17.469   3.089  12.783  1.00  0.00     0.070 C 
HETATM    7  C1  UNL     1      17.198   2.120  11.687  1.00  0.00     0.088 C 
HETATM    8  N1  UNL     1      18.372   3.998  12.606  1.00  0.00    -0.389 N 
ATOM      9  H12 UNL     1      18.886   4.045  11.726  1.00  0.00     0.157 HD
ATOM     10  H11 UNL     1      18.558   4.662  13.357  1.00  0.00     0.157 HD
ENDBRANCH   1   6
BRANCH   4  11
HETATM   11  C5  UNL     1      14.614   3.999  16.791  1.00  0.00     0.109 C 
HETATM   12  C6  UNL     1      14.449   5.459  16.392  1.00  0.00     0.029 C 
HETATM   13 CL1  UNL     1      14.986   3.892  18.531  1.00  0.00    -0.123 Cl
ENDBRANCH   4  11
TORSDOF 2
ENDMDL
MODEL 4
REMARK VINA RESULT: -5.247136618      2.583      4.296
REMARK  2 active torsions:
REMARK  status: ('A' for Active; 'I' for Inactive)
REMARK    1  A    between atoms: C2_2  and  N2_6 
REMARK    2  A    between atoms: C4_9  and  C5_10 
ROOT
HETATM    1  N2  UNL     1      16.138   3.467  16.092  1.00  0.00    -0.347 N 
HETATM    2  C3  UNL     1      17.533   3.061  15.943  1.00  0.00     0.294 C 
HETATM    3  O1  UNL     1      18.215   4.186  15.482  1.00  0.00    -0.364 OA
HETATM    4  C4  UNL     1      17.309   4.688  14.547  1.00  0.00     0.159 C 
HETATM    5  C7  UNL     1      16.035   4.723  15.342  1.00  0.00     0.159 C 
ENDROOT
BRANCH   1   6
HETATM    6  C2  UNL     1      15.160   2.764  16.810  1.00  0.00     0.070 C 
HETATM    7  C1  UNL     1      13.743   3.219  16.822  1.00  0.00     0.088 C 
HETATM    8  N1  UNL     1      15.482   1.703  17.477  1.00  0.00    -0.389 N 
ATOM      9  H12 UNL     1      14.771   1.192  17.999  1.00  0.00     0.157 HD
ATOM     10  H11 UNL     1      16.453   1.392  17.469  1.00  0.00     0.157 HD
ENDBRANCH   1   6
BRANCH   4  11
HETATM   11  C5  UNL     1      17.719   6.035  14.019  1.00  0.00     0.109 C 
HETATM   12  C6  UNL     1      19.194   6.214  14.352  1.00  0.00     0.029 C 
HETATM   13 CL1  UNL     1      16.760   7.283  14.855  1.00  0.00    -0.123 Cl
ENDBRANCH   4  11
TORSDOF 2
ENDMDL
MODEL 5
REMARK VINA RESULT: -5.137532974      2.684      4.731
REMARK  2 active torsions:
REMARK  status: ('A' for Active; 'I' for Inactive)
REMARK    1  A    between atoms: C2_2  and  N2_6 
REMARK    2  A    between atoms: C4_9  and  C5_10 
ROOT
HETATM    1  N2  UNL     1      15.814   3.236  15.819  1.00  0.00    -0.347 N 
HETATM    2  C3  UNL     1      15.585   4.538  15.198  1.00  0.00     0.294 C 
HETATM    3  O1  UNL     1      15.806   4.359  13.833  1.00  0.00    -0.364 OA
HETATM    4  C4  UNL     1      16.940   3.546  13.848  1.00  0.00     0.159 C 
HETATM    5  C7  UNL     1      16.526   2.460  14.799  1.00  0.00     0.159 C 
ENDROOT
BRANCH   1   6
HETATM    6  C2  UNL     1      15.416   2.872  17.113  1.00  0.00     0.070 C 
HETATM    7  C1  UNL     1      14.922   3.892  18.078  1.00  0.00     0.088 C 
HETATM    8  N1  UNL     1      15.474   1.635  17.486  1.00  0.00    -0.389 N 
ATOM      9  H12 UNL     1      15.183   1.369  18.427  1.00  0.00     0.157 HD
ATOM     10  H11 UNL     1      15.811   0.936  16.825  1.00  0.00     0.157 HD
ENDBRANCH   1   6
BRANCH   4  11
HETATM   11  C5  UNL     1      17.294   3.035  12.478  1.00  0.00     0.109 C 
HETATM   12  C6  UNL     1      16.387   3.752  11.487  1.00  0.00     0.029 C 
HETATM   13 CL1  UNL     1      16.969   1.283  12.430  1.00  0.00    -0.123 Cl
ENDBRANCH   4  11
TORSDOF 2
ENDMDL
