MODEL 1
REMARK VINA RESULT: -4.916837235      0.000      0.000
REMARK  2 active torsions:
REMARK  status: ('A' for Active; 'I' for Inactive)
REMARK    1  A    between atoms: C7_8  and  O1_9 
REMARK    2  A    between atoms: C7_8  and  C8_11 
ROOT
HETATM    1  C1  UNL     1      17.285   5.279  15.074  1.00  0.00     0.015 C 
HETATM    2  C2  UNL     1      16.286   4.175  15.073  1.00  0.00     0.052 C 
HETATM    3  C3  UNL     1      15.203   4.329  16.113  1.00  0.00     0.232 C 
HETATM    4  C4  UNL     1      15.829   3.901  17.403  1.00  0.00     0.075 C 
HETATM    5  C5  UNL     1      15.878   2.562  16.660  1.00  0.00     0.260 C 
HETATM    6  N1  UNL     1      14.604   2.983  16.078  1.00  0.00     0.097 N 
HETATM    7  C6  UNL     1      13.486   2.857  16.984  1.00  0.00     0.311 C 
HETATM    8  C7  UNL     1      16.883   2.852  15.591  1.00  0.00     0.106 C 
ENDROOT
BRANCH   8   9
HETATM    9  O1  UNL     1      18.128   3.125  16.097  1.00  0.00    -0.386 OA
ATOM     10  H1  UNL     1      18.281   4.058  16.007  1.00  0.00     0.210 HD
ENDBRANCH   8   9
BRANCH   8  11
HETATM   11  C8  UNL     1      16.903   1.818  14.493  1.00  0.00     0.155 C 
HETATM   12 CL1  UNL     1      16.705   2.688  12.954  1.00  0.00    -0.127 Cl
ENDBRANCH   8  11
TORSDOF 2
ENDMDL
MODEL 2
REMARK VINA RESULT: -4.792318468      1.927      3.161
REMARK  2 active torsions:
REMARK  status: ('A' for Active; 'I' for Inactive)
REMARK    1  A    between atoms: C7_8  and  O1_9 
REMARK    2  A    between atoms: C7_8  and  C8_11 
ROOT
HETATM    1  C1  UNL     1      16.802   1.860  14.398  1.00  0.00     0.015 C 
HETATM    2  C2  UNL     1      16.083   3.073  14.876  1.00  0.00     0.052 C 
HETATM    3  C3  UNL     1      16.258   4.278  13.984  1.00  0.00     0.232 C 
HETATM    4  C4  UNL     1      17.613   4.822  14.315  1.00  0.00     0.075 C 
HETATM    5  C5  UNL     1      16.925   5.063  15.663  1.00  0.00     0.260 C 
HETATM    6  N1  UNL     1      15.734   5.339  14.862  1.00  0.00     0.097 N 
HETATM    7  C6  UNL     1      15.754   6.636  14.225  1.00  0.00     0.311 C 
HETATM    8  C7  UNL     1      16.725   3.662  16.148  1.00  0.00     0.106 C 
ENDROOT
BRANCH   8   9
HETATM    9  O1  UNL     1      17.907   3.004  16.365  1.00  0.00    -0.386 OA
ATOM     10  H1  UNL     1      18.614   3.623  16.225  1.00  0.00     0.210 HD
ENDBRANCH   8   9
BRANCH   8  11
HETATM   11  C8  UNL     1      15.769   3.565  17.312  1.00  0.00     0.155 C 
HETATM   12 CL1  UNL     1      14.307   2.743  16.718  1.00  0.00    -0.127 Cl
ENDBRANCH   8  11
TORSDOF 2
ENDMDL
MODEL 3
REMARK VINA RESULT: -4.699778687      1.567      2.048
REMARK  2 active torsions:
REMARK  status: ('A' for Active; 'I' for Inactive)
REMARK    1  A    between atoms: C7_8  and  O1_9 
REMARK    2  A    between atoms: C7_8  and  C8_11 
ROOT
HETATM    1  C1  UNL     1      18.228   5.955  14.530  1.00  0.00     0.015 C 
HETATM    2  C2  UNL     1      16.959   5.176  14.551  1.00  0.00     0.052 C 
HETATM    3  C3  UNL     1      16.696   4.474  15.861  1.00  0.00     0.232 C 
HETATM    4  C4  UNL     1      17.566   3.256  15.839  1.00  0.00     0.075 C 
HETATM    5  C5  UNL     1      16.635   2.903  14.674  1.00  0.00     0.260 C 
HETATM    6  N1  UNL     1      15.602   3.570  15.465  1.00  0.00     0.097 N 
HETATM    7  C6  UNL     1      15.119   2.776  16.571  1.00  0.00     0.311 C 
HETATM    8  C7  UNL     1      17.034   3.924  13.656  1.00  0.00     0.106 C 
ENDROOT
BRANCH   8   9
HETATM    9  O1  UNL     1      18.334   3.780  13.244  1.00  0.00    -0.386 OA
ATOM     10  H1  UNL     1      18.324   3.347  12.399  1.00  0.00     0.210 HD
ENDBRANCH   8   9
BRANCH   8  11
HETATM   11  C8  UNL     1      16.059   4.038  12.511  1.00  0.00     0.155 C 
HETATM   12 CL1  UNL     1      16.252   2.576  11.515  1.00  0.00    -0.127 Cl
ENDBRANCH   8  11
TORSDOF 2
ENDMDL
MODEL 4
REMARK VINA RESULT: -4.666211146      3.536      4.629
REMARK  2 active torsions:
REMARK  status: ('A' for Active; 'I' for Inactive)
REMARK    1  A    between atoms: C7_8  and  O1_9 
REMARK    2  A    between atoms: C7_8  and  C8_11 
ROOT
HETATM    1  C1  UNL     1      16.709   1.757  11.515  1.00  0.00     0.015 C 
HETATM    2  C2  UNL     1      17.562   2.832  12.092  1.00  0.00     0.052 C 
HETATM    3  C3  UNL     1      17.096   3.325  13.440  1.00  0.00     0.232 C 
HETATM    4  C4  UNL     1      15.951   4.244  13.151  1.00  0.00     0.075 C 
HETATM    5  C5  UNL     1      17.074   5.044  12.481  1.00  0.00     0.260 C 
HETATM    6  N1  UNL     1      17.908   4.547  13.574  1.00  0.00     0.097 N 
HETATM    7  C6  UNL     1      17.678   5.223  14.830  1.00  0.00     0.311 C 
HETATM    8  C7  UNL     1      17.418   4.161  11.325  1.00  0.00     0.106 C 
ENDROOT
BRANCH   8   9
HETATM    9  O1  UNL     1      16.381   4.022  10.438  1.00  0.00    -0.386 OA
ATOM     10  H1  UNL     1      16.292   4.841   9.965  1.00  0.00     0.210 HD
ENDBRANCH   8   9
BRANCH   8  11
HETATM   11  C8  UNL     1      18.721   4.528  10.660  1.00  0.00     0.155 C 
HETATM   12 CL1  UNL     1      19.854   3.189  10.956  1.00  0.00    -0.127 Cl
ENDBRANCH   8  11
TORSDOF 2
ENDMDL
MODEL 5
REMARK VINA RESULT: -4.629101250      2.677      3.953
REMARK  2 active torsions:
REMARK  status: ('A' for Active; 'I' for Inactive)
REMARK    1  A    between atoms: C7_8  and  O1_9 
REMARK    2  A    between atoms: C7_8  and  C8_11 
ROOT
HETATM    1  C1  UNL     1      17.470   3.320  15.871  1.00  0.00     0.015 C 
HETATM    2  C2  UNL     1      16.493   3.551  14.771  1.00  0.00     0.052 C 
HETATM    3  C3  UNL     1      16.976   3.089  13.418  1.00  0.00     0.232 C 
HETATM    4  C4  UNL     1      17.915   4.156  12.948  1.00  0.00     0.075 C 
HETATM    5  C5  UNL     1      16.618   4.973  12.970  1.00  0.00     0.260 C 
HETATM    6  N1  UNL     1      15.977   3.730  12.544  1.00  0.00     0.097 N 
HETATM    7  C6  UNL     1      16.189   3.419  11.150  1.00  0.00     0.311 C 
HETATM    8  C7  UNL     1      16.339   5.047  14.437  1.00  0.00     0.106 C 
ENDROOT
BRANCH   8   9
HETATM    9  O1  UNL     1      17.307   5.732  15.126  1.00  0.00    -0.386 OA
ATOM     10  H1  UNL     1      18.075   5.175  15.178  1.00  0.00     0.210 HD
ENDBRANCH   8   9
BRANCH   8  11
HETATM   11  C8  UNL     1      14.941   5.516  14.756  1.00  0.00     0.155 C 
HETATM   12 CL1  UNL     1      14.567   4.960  16.404  1.00  0.00    -0.127 Cl
ENDBRANCH   8  11
TORSDOF 2
ENDMDL
