MODEL 1
REMARK VINA RESULT: -4.474460166      0.000      0.000
REMARK  2 active torsions:
REMARK  status: ('A' for Active; 'I' for Inactive)
REMARK    1  A    between atoms: C2_2  and  C3_3 
REMARK    2  A    between atoms: C4_6  and  O2_7 
ROOT
HETATM    1  C1  UNL     1      15.603   3.602  17.127  1.00  0.00     0.052 C 
HETATM    2  C2  UNL     1      16.589   3.642  15.997  1.00  0.00     0.119 A 
HETATM    3  O1  UNL     1      17.801   2.960  16.344  1.00  0.00    -0.342 OA
HETATM    4  C4  UNL     1      17.059   2.465  15.287  1.00  0.00     0.293 A 
ENDROOT
BRANCH   2   5
HETATM    5  C3  UNL     1      16.726   4.974  15.321  1.00  0.00     0.128 C 
HETATM    6 BR1  UNL     1      14.983   5.789  15.218  1.00  0.00    -0.093 Br
ENDBRANCH   2   5
BRANCH   4   7
HETATM    7  O2  UNL     1      16.295   1.326  15.418  1.00  0.00    -0.368 OA
ATOM      8  H2  UNL     1      15.917   0.977  14.620  1.00  0.00     0.212 HD
ENDBRANCH   4   7
TORSDOF 2
ENDMDL
MODEL 2
REMARK VINA RESULT: -4.239597642      1.258      1.260
REMARK  2 active torsions:
REMARK  status: ('A' for Active; 'I' for Inactive)
REMARK    1  A    between atoms: C2_2  and  C3_3 
REMARK    2  A    between atoms: C4_6  and  O2_7 
ROOT
HETATM    1  C1  UNL     1      14.554   4.325  17.064  1.00  0.00     0.052 C 
HETATM    2  C2  UNL     1      15.562   3.749  16.114  1.00  0.00     0.119 A 
HETATM    3  O1  UNL     1      16.777   3.404  16.795  1.00  0.00    -0.342 OA
HETATM    4  C4  UNL     1      16.062   2.387  16.188  1.00  0.00     0.293 A 
ENDROOT
BRANCH   2   5
HETATM    5  C3  UNL     1      15.695   4.478  14.811  1.00  0.00     0.128 C 
HETATM    6 BR1  UNL     1      15.129   6.302  15.071  1.00  0.00    -0.093 Br
ENDBRANCH   2   5
BRANCH   4   7
HETATM    7  O2  UNL     1      15.312   1.499  16.926  1.00  0.00    -0.368 OA
ATOM      8  H2  UNL     1      15.135   0.658  16.522  1.00  0.00     0.212 HD
ENDBRANCH   4   7
TORSDOF 2
ENDMDL
MODEL 3
REMARK VINA RESULT: -4.156095456      1.990      2.211
REMARK  2 active torsions:
REMARK  status: ('A' for Active; 'I' for Inactive)
REMARK    1  A    between atoms: C2_2  and  C3_3 
REMARK    2  A    between atoms: C4_6  and  O2_7 
ROOT
HETATM    1  C1  UNL     1      15.161   4.670  16.012  1.00  0.00     0.052 C 
HETATM    2  C2  UNL     1      15.965   3.498  16.490  1.00  0.00     0.119 A 
HETATM    3  O1  UNL     1      15.770   3.274  17.893  1.00  0.00    -0.342 OA
HETATM    4  C4  UNL     1      15.385   2.275  17.017  1.00  0.00     0.293 A 
ENDROOT
BRANCH   2   5
HETATM    5  C3  UNL     1      17.376   3.445  15.982  1.00  0.00     0.128 C 
HETATM    6 BR1  UNL     1      17.724   5.055  14.981  1.00  0.00    -0.093 Br
ENDBRANCH   2   5
BRANCH   4   7
HETATM    7  O2  UNL     1      14.057   2.052  16.723  1.00  0.00    -0.368 OA
ATOM      8  H2  UNL     1      13.758   1.152  16.781  1.00  0.00     0.212 HD
ENDBRANCH   4   7
TORSDOF 2
ENDMDL
MODEL 4
REMARK VINA RESULT: -4.075903637      1.837      2.473
REMARK  2 active torsions:
REMARK  status: ('A' for Active; 'I' for Inactive)
REMARK    1  A    between atoms: C2_2  and  C3_3 
REMARK    2  A    between atoms: C4_6  and  O2_7 
ROOT
HETATM    1  C1  UNL     1      16.519   2.103  15.215  1.00  0.00     0.052 C 
HETATM    2  C2  UNL     1      16.913   3.332  15.979  1.00  0.00     0.119 A 
HETATM    3  O1  UNL     1      18.323   3.345  16.245  1.00  0.00    -0.342 OA
HETATM    4  C4  UNL     1      17.801   4.360  15.463  1.00  0.00     0.293 A 
ENDROOT
BRANCH   2   5
HETATM    5  C3  UNL     1      16.003   3.694  17.114  1.00  0.00     0.128 C 
HETATM    6 BR1  UNL     1      14.311   2.810  16.846  1.00  0.00    -0.093 Br
ENDBRANCH   2   5
BRANCH   4   7
HETATM    7  O2  UNL     1      17.985   4.379  14.097  1.00  0.00    -0.368 OA
ATOM      8  H2  UNL     1      18.794   3.999  13.776  1.00  0.00     0.212 HD
ENDBRANCH   4   7
TORSDOF 2
ENDMDL
MODEL 5
REMARK VINA RESULT: -4.070589012      1.734      2.508
REMARK  2 active torsions:
REMARK  status: ('A' for Active; 'I' for Inactive)
REMARK    1  A    between atoms: C2_2  and  C3_3 
REMARK    2  A    between atoms: C4_6  and  O2_7 
ROOT
HETATM    1  C1  UNL     1      16.036   3.480  15.332  1.00  0.00     0.052 C 
HETATM    2  C2  UNL     1      14.957   3.620  16.364  1.00  0.00     0.119 A 
HETATM    3  O1  UNL     1      14.085   2.481  16.359  1.00  0.00    -0.342 OA
HETATM    4  C4  UNL     1      14.808   2.740  17.510  1.00  0.00     0.293 A 
ENDROOT
BRANCH   2   5
HETATM    5  C3  UNL     1      14.310   4.972  16.427  1.00  0.00     0.128 C 
HETATM    6 BR1  UNL     1      15.094   6.087  15.065  1.00  0.00    -0.093 Br
ENDBRANCH   2   5
BRANCH   4   7
HETATM    7  O2  UNL     1      15.911   1.986  17.848  1.00  0.00    -0.368 OA
ATOM      8  H2  UNL     1      15.739   1.161  18.288  1.00  0.00     0.212 HD
ENDBRANCH   4   7
TORSDOF 2
ENDMDL
