MODEL 1
REMARK VINA RESULT: -5.899483357      0.000      0.000
REMARK  2 active torsions:
REMARK  status: ('A' for Active; 'I' for Inactive)
REMARK    1  A    between atoms: O1_1  and  C1_3 
REMARK    2  A    between atoms: C1_3  and  C2_4 
ROOT
HETATM    1  C2  UNL     1      15.898   4.623  14.766  1.00  0.00     0.018 C 
HETATM    2  C3  UNL     1      14.919   5.777  14.500  1.00  0.00     0.059 C 
HETATM    3  C4  UNL     1      15.471   6.403  15.761  1.00  0.00     0.131 C 
HETATM    4  F1  UNL     1      15.534   7.748  15.806  1.00  0.00    -0.241 F 
HETATM    5  C5  UNL     1      14.781   5.718  16.940  1.00  0.00     0.316 C 
HETATM    6  N1  UNL     1      15.403   4.454  17.100  1.00  0.00     0.097 N 
HETATM    7  C6  UNL     1      14.768   3.520  17.951  1.00  0.00     0.273 C 
HETATM    8  C7  UNL     1      15.405   2.193  17.501  1.00  0.00     0.032 C 
HETATM    9  C8  UNL     1      16.034   2.513  16.133  1.00  0.00     0.038 C 
HETATM   10  C9  UNL     1      15.298   3.765  15.798  1.00  0.00     0.233 C 
HETATM   11  C10 UNL     1      16.788   5.686  15.424  1.00  0.00     0.059 C 
ENDROOT
BRANCH   1  12
HETATM   12  C1  UNL     1      16.461   3.997  13.539  1.00  0.00     0.176 C 
BRANCH  12  13
HETATM   13  O1  UNL     1      15.816   4.471  12.419  1.00  0.00    -0.400 OA
ATOM     14  H1  UNL     1      16.169   5.314  12.164  1.00  0.00     0.209 HD
ENDBRANCH  12  13
ENDBRANCH   1  12
TORSDOF 2
ENDMDL
MODEL 2
REMARK VINA RESULT: -5.883313425      2.191      3.520
REMARK  2 active torsions:
REMARK  status: ('A' for Active; 'I' for Inactive)
REMARK    1  A    between atoms: O1_1  and  C1_3 
REMARK    2  A    between atoms: C1_3  and  C2_4 
ROOT
HETATM    1  C2  UNL     1      15.847   3.558  15.884  1.00  0.00     0.018 C 
HETATM    2  C3  UNL     1      16.218   3.494  17.374  1.00  0.00     0.059 C 
HETATM    3  C4  UNL     1      14.810   3.975  17.643  1.00  0.00     0.131 C 
HETATM    4  F1  UNL     1      14.210   3.534  18.766  1.00  0.00    -0.241 F 
HETATM    5  C5  UNL     1      14.803   5.487  17.421  1.00  0.00     0.316 C 
HETATM    6  N1  UNL     1      14.782   5.695  16.019  1.00  0.00     0.097 N 
HETATM    7  C6  UNL     1      15.042   7.005  15.552  1.00  0.00     0.273 C 
HETATM    8  C7  UNL     1      15.418   6.750  14.081  1.00  0.00     0.032 C 
HETATM    9  C8  UNL     1      15.727   5.244  14.018  1.00  0.00     0.038 C 
HETATM   10  C9  UNL     1      15.940   4.965  15.467  1.00  0.00     0.233 C 
HETATM   11  C10 UNL     1      14.418   3.245  16.349  1.00  0.00     0.059 C 
ENDROOT
BRANCH   1  12
HETATM   12  C1  UNL     1      16.484   2.508  15.045  1.00  0.00     0.176 C 
BRANCH  12  13
HETATM   13  O1  UNL     1      16.287   1.263  15.600  1.00  0.00    -0.400 OA
ATOM     14  H1  UNL     1      16.514   0.582  14.978  1.00  0.00     0.209 HD
ENDBRANCH  12  13
ENDBRANCH   1  12
TORSDOF 2
ENDMDL
MODEL 3
REMARK VINA RESULT: -5.727246968      2.322      3.846
REMARK  2 active torsions:
REMARK  status: ('A' for Active; 'I' for Inactive)
REMARK    1  A    between atoms: O1_1  and  C1_3 
REMARK    2  A    between atoms: C1_3  and  C2_4 
ROOT
HETATM    1  C2  UNL     1      16.473   3.923  14.778  1.00  0.00     0.018 C 
HETATM    2  C3  UNL     1      17.135   5.063  15.567  1.00  0.00     0.059 C 
HETATM    3  C4  UNL     1      16.074   5.959  14.967  1.00  0.00     0.131 C 
HETATM    4  F1  UNL     1      15.638   6.988  15.719  1.00  0.00    -0.241 F 
HETATM    5  C5  UNL     1      16.527   6.302  13.549  1.00  0.00     0.316 C 
HETATM    6  N1  UNL     1      16.254   5.165  12.746  1.00  0.00     0.097 N 
HETATM    7  C6  UNL     1      16.825   5.130  11.452  1.00  0.00     0.273 C 
HETATM    8  C7  UNL     1      16.741   3.632  11.108  1.00  0.00     0.032 C 
HETATM    9  C8  UNL     1      16.501   2.939  12.460  1.00  0.00     0.038 C 
HETATM   10  C9  UNL     1      16.936   4.023  13.385  1.00  0.00     0.233 C 
HETATM   11  C10 UNL     1      15.171   4.716  14.953  1.00  0.00     0.059 C 
ENDROOT
BRANCH   1  12
HETATM   12  C1  UNL     1      16.505   2.601  15.460  1.00  0.00     0.176 C 
BRANCH  12  13
HETATM   13  O1  UNL     1      17.501   2.576  16.411  1.00  0.00    -0.400 OA
ATOM     14  H1  UNL     1      17.175   2.903  17.241  1.00  0.00     0.209 HD
ENDBRANCH  12  13
ENDBRANCH   1  12
TORSDOF 2
ENDMDL
MODEL 4
REMARK VINA RESULT: -5.676803986      2.180      3.562
REMARK  2 active torsions:
REMARK  status: ('A' for Active; 'I' for Inactive)
REMARK    1  A    between atoms: O1_1  and  C1_3 
REMARK    2  A    between atoms: C1_3  and  C2_4 
ROOT
HETATM    1  C2  UNL     1      16.167   4.207  15.492  1.00  0.00     0.018 C 
HETATM    2  C3  UNL     1      15.885   4.601  16.950  1.00  0.00     0.059 C 
HETATM    3  C4  UNL     1      14.840   5.539  16.389  1.00  0.00     0.131 C 
HETATM    4  F1  UNL     1      13.735   5.750  17.131  1.00  0.00    -0.241 F 
HETATM    5  C5  UNL     1      15.575   6.787  15.900  1.00  0.00     0.316 C 
HETATM    6  N1  UNL     1      16.174   6.449  14.660  1.00  0.00     0.097 N 
HETATM    7  C6  UNL     1      17.131   7.349  14.135  1.00  0.00     0.273 C 
HETATM    8  C7  UNL     1      17.881   6.462  13.124  1.00  0.00     0.032 C 
HETATM    9  C8  UNL     1      17.503   5.024  13.520  1.00  0.00     0.038 C 
HETATM   10  C9  UNL     1      17.012   5.259  14.907  1.00  0.00     0.233 C 
HETATM   11  C10 UNL     1      14.688   4.527  15.243  1.00  0.00     0.059 C 
ENDROOT
BRANCH   1  12
HETATM   12  C1  UNL     1      16.548   2.781  15.301  1.00  0.00     0.176 C 
BRANCH  12  13
HETATM   13  O1  UNL     1      17.392   2.370  16.309  1.00  0.00    -0.400 OA
ATOM     14  H1  UNL     1      18.292   2.359  16.004  1.00  0.00     0.209 HD
ENDBRANCH  12  13
ENDBRANCH   1  12
TORSDOF 2
ENDMDL
MODEL 5
REMARK VINA RESULT: -5.645066387      1.100      1.189
REMARK  2 active torsions:
REMARK  status: ('A' for Active; 'I' for Inactive)
REMARK    1  A    between atoms: O1_1  and  C1_3 
REMARK    2  A    between atoms: C1_3  and  C2_4 
ROOT
HETATM    1  C2  UNL     1      16.269   4.223  14.578  1.00  0.00     0.018 C 
HETATM    2  C3  UNL     1      15.556   5.314  13.764  1.00  0.00     0.059 C 
HETATM    3  C4  UNL     1      16.166   6.297  14.737  1.00  0.00     0.131 C 
HETATM    4  F1  UNL     1      16.498   7.513  14.261  1.00  0.00    -0.241 F 
HETATM    5  C5  UNL     1      15.299   6.278  15.996  1.00  0.00     0.316 C 
HETATM    6  N1  UNL     1      15.644   5.103  16.712  1.00  0.00     0.097 N 
HETATM    7  C6  UNL     1      14.795   4.717  17.775  1.00  0.00     0.273 C 
HETATM    8  C7  UNL     1      15.171   3.236  17.961  1.00  0.00     0.032 C 
HETATM    9  C8  UNL     1      15.912   2.862  16.666  1.00  0.00     0.038 C 
HETATM   10  C9  UNL     1      15.461   3.972  15.781  1.00  0.00     0.233 C 
HETATM   11  C10 UNL     1      17.324   5.297  14.872  1.00  0.00     0.059 C 
ENDROOT
BRANCH   1  12
HETATM   12  C1  UNL     1      16.748   3.067  13.772  1.00  0.00     0.176 C 
BRANCH  12  13
HETATM   13  O1  UNL     1      17.714   3.472  12.878  1.00  0.00    -0.400 OA
ATOM     14  H1  UNL     1      17.954   4.378  13.037  1.00  0.00     0.209 HD
ENDBRANCH  12  13
ENDBRANCH   1  12
TORSDOF 2
ENDMDL
