MODEL 1
REMARK VINA RESULT: -6.136033838      0.000      0.000
REMARK  1 active torsions:
REMARK  status: ('A' for Active; 'I' for Inactive)
REMARK    1  A    between atoms: C5_6  and  C6_7 
ROOT
HETATM    1  C6  UNL     1      15.985   4.716  15.353  1.00  0.00     0.208 C 
HETATM    2  C7  UNL     1      14.928   5.526  16.004  1.00  0.00     0.038 C 
HETATM    3  C8  UNL     1      14.816   5.293  17.497  1.00  0.00     0.041 C 
HETATM    4  C9  UNL     1      14.713   3.842  17.859  1.00  0.00     0.195 C 
HETATM    5  F1  UNL     1      14.912   3.752  19.239  1.00  0.00    -0.248 F 
HETATM    6  C10 UNL     1      15.773   3.088  17.108  1.00  0.00     0.269 C 
HETATM    7  N2  UNL     1      16.678   3.960  16.397  1.00  0.00    -0.066 N 
ATOM      8  H21 UNL     1      17.179   4.578  17.035  1.00  0.00     0.277 HD
ATOM      9  H22 UNL     1      17.473   3.444  16.020  1.00  0.00     0.277 HD
ENDROOT
BRANCH   1  10
HETATM   10  C5  UNL     1      17.031   5.464  14.599  1.00  0.00     0.109 C 
HETATM   11  N1  UNL     1      17.200   5.206  13.234  1.00  0.00    -0.410 N 
HETATM   12  C1  UNL     1      16.323   4.336  12.556  1.00  0.00     0.143 C 
HETATM   13  C2  UNL     1      17.490   6.419  12.536  1.00  0.00     0.117 C 
HETATM   14  C3  UNL     1      17.818   7.447  13.630  1.00  0.00     0.021 C 
HETATM   15  C4  UNL     1      16.874   6.968  14.711  1.00  0.00     0.028 C 
ENDBRANCH   1  10
TORSDOF 1
ENDMDL
MODEL 2
REMARK VINA RESULT: -6.032398061      0.981      1.055
REMARK  1 active torsions:
REMARK  status: ('A' for Active; 'I' for Inactive)
REMARK    1  A    between atoms: C5_6  and  C6_7 
ROOT
HETATM    1  C6  UNL     1      16.528   4.702  15.024  1.00  0.00     0.208 C 
HETATM    2  C7  UNL     1      15.377   5.129  15.856  1.00  0.00     0.038 C 
HETATM    3  C8  UNL     1      15.266   4.380  17.168  1.00  0.00     0.041 C 
HETATM    4  C9  UNL     1      15.315   2.892  17.002  1.00  0.00     0.195 C 
HETATM    5  F1  UNL     1      15.499   2.345  18.275  1.00  0.00    -0.248 F 
HETATM    6  C10 UNL     1      16.464   2.552  16.095  1.00  0.00     0.269 C 
HETATM    7  N2  UNL     1      17.281   3.699  15.779  1.00  0.00    -0.066 N 
ATOM      8  H21 UNL     1      17.700   4.102  16.617  1.00  0.00     0.277 HD
ATOM      9  H22 UNL     1      18.133   3.427  15.291  1.00  0.00     0.277 HD
ENDROOT
BRANCH   1  10
HETATM   10  C5  UNL     1      17.499   5.763  14.632  1.00  0.00     0.109 C 
HETATM   11  N1  UNL     1      18.021   5.759  13.334  1.00  0.00    -0.410 N 
HETATM   12  C1  UNL     1      17.554   4.837  12.377  1.00  0.00     0.143 C 
HETATM   13  C2  UNL     1      18.152   7.100  12.853  1.00  0.00     0.117 C 
HETATM   14  C3  UNL     1      17.971   7.993  14.089  1.00  0.00     0.021 C 
HETATM   15  C4  UNL     1      16.959   7.163  14.848  1.00  0.00     0.028 C 
ENDBRANCH   1  10
TORSDOF 1
ENDMDL
MODEL 3
REMARK VINA RESULT: -5.819804939      1.176      1.388
REMARK  1 active torsions:
REMARK  status: ('A' for Active; 'I' for Inactive)
REMARK    1  A    between atoms: C5_6  and  C6_7 
ROOT
HETATM    1  C6  UNL     1      16.109   4.399  14.597  1.00  0.00     0.208 C 
HETATM    2  C7  UNL     1      15.018   5.331  14.970  1.00  0.00     0.038 C 
HETATM    3  C8  UNL     1      14.964   5.641  16.452  1.00  0.00     0.041 C 
HETATM    4  C9  UNL     1      14.968   4.412  17.310  1.00  0.00     0.195 C 
HETATM    5  F1  UNL     1      15.212   4.832  18.621  1.00  0.00    -0.248 F 
HETATM    6  C10 UNL     1      16.055   3.496  16.824  1.00  0.00     0.269 C 
HETATM    7  N2  UNL     1      16.880   4.103  15.806  1.00  0.00    -0.066 N 
ATOM      8  H21 UNL     1      17.356   4.934  16.157  1.00  0.00     0.277 HD
ATOM      9  H22 UNL     1      17.696   3.529  15.596  1.00  0.00     0.277 HD
ENDROOT
BRANCH   1  10
HETATM   10  C5  UNL     1      17.081   4.882  13.575  1.00  0.00     0.109 C 
HETATM   11  N1  UNL     1      17.432   4.035  12.518  1.00  0.00    -0.410 N 
HETATM   12  C1  UNL     1      16.794   2.789  12.357  1.00  0.00     0.143 C 
HETATM   13  C2  UNL     1      17.577   4.789  11.312  1.00  0.00     0.117 C 
HETATM   14  C3  UNL     1      17.607   6.260  11.754  1.00  0.00     0.021 C 
HETATM   15  C4  UNL     1      16.653   6.185  12.928  1.00  0.00     0.028 C 
ENDBRANCH   1  10
TORSDOF 1
ENDMDL
MODEL 4
REMARK VINA RESULT: -5.795977015      1.864      3.234
REMARK  1 active torsions:
REMARK  status: ('A' for Active; 'I' for Inactive)
REMARK    1  A    between atoms: C5_6  and  C6_7 
ROOT
HETATM    1  C6  UNL     1      16.559   4.456  14.203  1.00  0.00     0.208 C 
HETATM    2  C7  UNL     1      16.524   3.661  15.454  1.00  0.00     0.038 C 
HETATM    3  C8  UNL     1      15.325   3.959  16.330  1.00  0.00     0.041 C 
HETATM    4  C9  UNL     1      15.138   5.423  16.592  1.00  0.00     0.195 C 
HETATM    5  F1  UNL     1      13.864   5.578  17.146  1.00  0.00    -0.248 F 
HETATM    6  C10 UNL     1      15.254   6.158  15.287  1.00  0.00     0.269 C 
HETATM    7  N2  UNL     1      15.343   5.269  14.153  1.00  0.00    -0.066 N 
ATOM      8  H21 UNL     1      14.509   4.687  14.069  1.00  0.00     0.277 HD
ATOM      9  H22 UNL     1      15.271   5.778  13.273  1.00  0.00     0.277 HD
ENDROOT
BRANCH   1  10
HETATM   10  C5  UNL     1      16.617   3.691  12.925  1.00  0.00     0.109 C 
HETATM   11  N1  UNL     1      17.523   4.087  11.936  1.00  0.00    -0.410 N 
HETATM   12  C1  UNL     1      18.445   5.123  12.184  1.00  0.00     0.143 C 
HETATM   13  C2  UNL     1      18.078   2.939  11.288  1.00  0.00     0.117 C 
HETATM   14  C3  UNL     1      17.199   1.760  11.731  1.00  0.00     0.021 C 
HETATM   15  C4  UNL     1      16.870   2.210  13.138  1.00  0.00     0.028 C 
ENDBRANCH   1  10
TORSDOF 1
ENDMDL
MODEL 5
REMARK VINA RESULT: -5.654550537      1.340      2.639
REMARK  1 active torsions:
REMARK  status: ('A' for Active; 'I' for Inactive)
REMARK    1  A    between atoms: C5_6  and  C6_7 
ROOT
HETATM    1  C6  UNL     1      16.463   4.196  15.020  1.00  0.00     0.208 C 
HETATM    2  C7  UNL     1      16.736   2.957  15.786  1.00  0.00     0.038 C 
HETATM    3  C8  UNL     1      15.628   2.578  16.747  1.00  0.00     0.041 C 
HETATM    4  C9  UNL     1      15.215   3.709  17.641  1.00  0.00     0.195 C 
HETATM    5  F1  UNL     1      14.018   3.327  18.253  1.00  0.00    -0.248 F 
HETATM    6  C10 UNL     1      15.024   4.937  16.797  1.00  0.00     0.269 C 
HETATM    7  N2  UNL     1      15.123   4.662  15.384  1.00  0.00    -0.066 N 
ATOM      8  H21 UNL     1      14.405   4.004  15.080  1.00  0.00     0.277 HD
ATOM      9  H22 UNL     1      14.845   5.469  14.826  1.00  0.00     0.277 HD
ENDROOT
BRANCH   1  10
HETATM   10  C5  UNL     1      16.490   4.085  13.534  1.00  0.00     0.109 C 
HETATM   11  N1  UNL     1      17.280   4.976  12.801  1.00  0.00    -0.410 N 
HETATM   12  C1  UNL     1      18.123   5.893  13.458  1.00  0.00     0.143 C 
HETATM   13  C2  UNL     1      17.884   4.302  11.693  1.00  0.00     0.117 C 
HETATM   14  C3  UNL     1      17.148   2.957  11.587  1.00  0.00     0.021 C 
HETATM   15  C4  UNL     1      16.889   2.701  13.057  1.00  0.00     0.028 C 
ENDBRANCH   1  10
TORSDOF 1
ENDMDL
