MODEL 1
REMARK VINA RESULT: -6.659754037      0.000      0.000
REMARK  1 active torsions:
REMARK  status: ('A' for Active; 'I' for Inactive)
REMARK    1  A    between atoms: N2_5  and  C4_6 
ROOT
HETATM    1  C1  UNL     1      17.991   3.289  11.710  1.00  0.00     0.132 C 
HETATM    2  N1  UNL     1      17.439   3.576  12.996  1.00  0.00    -0.230 NA
HETATM    3  C2  UNL     1      16.607   4.739  13.029  1.00  0.00     0.153 C 
HETATM    4  C3  UNL     1      15.623   4.767  14.162  1.00  0.00     0.078 C 
HETATM    5  N2  UNL     1      15.787   3.829  15.172  1.00  0.00    -0.344 N 
HETATM    6  C9  UNL     1      16.719   2.782  14.990  1.00  0.00     0.382 C 
HETATM    7  F1  UNL     1      16.456   1.677  15.760  1.00  0.00    -0.206 F 
HETATM    8  N3  UNL     1      16.836   2.444  13.572  1.00  0.00    -0.107 NA
ENDROOT
BRANCH   5   9
HETATM    9  C4  UNL     1      15.599   4.162  16.509  1.00  0.00     0.087 C 
HETATM   10  C5  UNL     1      14.868   3.198  17.382  1.00  0.00     0.025 C 
HETATM   11  C6  UNL     1      14.816   3.985  18.701  1.00  0.00     0.002 C 
HETATM   12  C7  UNL     1      14.780   5.452  18.275  1.00  0.00     0.002 C 
HETATM   13  C8  UNL     1      14.789   5.428  16.753  1.00  0.00     0.025 C 
ENDBRANCH   5   9
TORSDOF 1
ENDMDL
MODEL 2
REMARK VINA RESULT: -6.481728745      1.600      1.937
REMARK  1 active torsions:
REMARK  status: ('A' for Active; 'I' for Inactive)
REMARK    1  A    between atoms: N2_5  and  C4_6 
ROOT
HETATM    1  C1  UNL     1      17.353   3.489  11.238  1.00  0.00     0.132 C 
HETATM    2  N1  UNL     1      16.936   3.727  12.584  1.00  0.00    -0.230 NA
HETATM    3  C2  UNL     1      16.680   2.537  13.335  1.00  0.00     0.153 C 
HETATM    4  C3  UNL     1      16.767   2.711  14.823  1.00  0.00     0.078 C 
HETATM    5  N2  UNL     1      16.825   4.009  15.311  1.00  0.00    -0.344 N 
HETATM    6  C9  UNL     1      17.010   5.075  14.401  1.00  0.00     0.382 C 
HETATM    7  F1  UNL     1      17.548   6.198  14.977  1.00  0.00    -0.206 F 
HETATM    8  N3  UNL     1      17.787   4.630  13.245  1.00  0.00    -0.107 NA
ENDROOT
BRANCH   5   9
HETATM    9  C4  UNL     1      16.131   4.387  16.455  1.00  0.00     0.087 C 
HETATM   10  C5  UNL     1      15.586   3.314  17.337  1.00  0.00     0.025 C 
HETATM   11  C6  UNL     1      14.846   4.155  18.391  1.00  0.00     0.002 C 
HETATM   12  C7  UNL     1      14.397   5.407  17.639  1.00  0.00     0.002 C 
HETATM   13  C8  UNL     1      14.874   5.210  16.208  1.00  0.00     0.025 C 
ENDBRANCH   5   9
TORSDOF 1
ENDMDL
MODEL 3
REMARK VINA RESULT: -6.446225645      1.259      1.707
REMARK  1 active torsions:
REMARK  status: ('A' for Active; 'I' for Inactive)
REMARK    1  A    between atoms: N2_5  and  C4_6 
ROOT
HETATM    1  C1  UNL     1      18.432   1.975  11.256  1.00  0.00     0.132 C 
HETATM    2  N1  UNL     1      17.833   2.792  12.264  1.00  0.00    -0.230 NA
HETATM    3  C2  UNL     1      17.295   4.024  11.775  1.00  0.00     0.153 C 
HETATM    4  C3  UNL     1      16.233   4.627  12.647  1.00  0.00     0.078 C 
HETATM    5  N2  UNL     1      16.071   4.092  13.917  1.00  0.00    -0.344 N 
HETATM    6  C9  UNL     1      16.748   2.896  14.248  1.00  0.00     0.382 C 
HETATM    7  F1  UNL     1      16.157   2.200  15.273  1.00  0.00    -0.206 F 
HETATM    8  N3  UNL     1      16.927   2.065  13.058  1.00  0.00    -0.107 NA
ENDROOT
BRANCH   5   9
HETATM    9  C4  UNL     1      15.829   4.902  15.021  1.00  0.00     0.087 C 
HETATM   10  C5  UNL     1      14.674   4.567  15.904  1.00  0.00     0.025 C 
HETATM   11  C6  UNL     1      14.728   5.734  16.904  1.00  0.00     0.002 C 
HETATM   12  C7  UNL     1      15.303   6.902  16.105  1.00  0.00     0.002 C 
HETATM   13  C8  UNL     1      15.523   6.358  14.701  1.00  0.00     0.025 C 
ENDBRANCH   5   9
TORSDOF 1
ENDMDL
MODEL 4
REMARK VINA RESULT: -6.350489075      2.099      2.709
REMARK  1 active torsions:
REMARK  status: ('A' for Active; 'I' for Inactive)
REMARK    1  A    between atoms: N2_5  and  C4_6 
ROOT
HETATM    1  C1  UNL     1      17.785   0.814  11.224  1.00  0.00     0.132 C 
HETATM    2  N1  UNL     1      17.497   1.953  12.035  1.00  0.00    -0.230 NA
HETATM    3  C2  UNL     1      17.075   3.104  11.298  1.00  0.00     0.153 C 
HETATM    4  C3  UNL     1      16.280   4.097  12.096  1.00  0.00     0.078 C 
HETATM    5  N2  UNL     1      16.258   3.934  13.473  1.00  0.00    -0.344 N 
HETATM    6  C9  UNL     1      16.793   2.752  14.033  1.00  0.00     0.382 C 
HETATM    7  F1  UNL     1      16.288   2.458  15.275  1.00  0.00    -0.206 F 
HETATM    8  N3  UNL     1      16.641   1.633  13.104  1.00  0.00    -0.107 NA
ENDROOT
BRANCH   5   9
HETATM    9  C4  UNL     1      16.333   5.024  14.334  1.00  0.00     0.087 C 
HETATM   10  C5  UNL     1      15.062   5.576  14.888  1.00  0.00     0.025 C 
HETATM   11  C6  UNL     1      15.593   6.779  15.684  1.00  0.00     0.002 C 
HETATM   12  C7  UNL     1      16.841   7.225  14.924  1.00  0.00     0.002 C 
HETATM   13  C8  UNL     1      16.945   6.282  13.734  1.00  0.00     0.025 C 
ENDBRANCH   5   9
TORSDOF 1
ENDMDL
MODEL 5
REMARK VINA RESULT: -6.298041731      1.030      1.538
REMARK  1 active torsions:
REMARK  status: ('A' for Active; 'I' for Inactive)
REMARK    1  A    between atoms: N2_5  and  C4_6 
ROOT
HETATM    1  C1  UNL     1      19.073   4.326  11.650  1.00  0.00     0.132 C 
HETATM    2  N1  UNL     1      18.148   4.415  12.735  1.00  0.00    -0.230 NA
HETATM    3  C2  UNL     1      17.373   5.618  12.745  1.00  0.00     0.153 C 
HETATM    4  C3  UNL     1      16.081   5.518  13.502  1.00  0.00     0.078 C 
HETATM    5  N2  UNL     1      15.897   4.400  14.303  1.00  0.00    -0.344 N 
HETATM    6  C9  UNL     1      16.816   3.330  14.209  1.00  0.00     0.382 C 
HETATM    7  F1  UNL     1      16.299   2.128  14.621  1.00  0.00    -0.206 F 
HETATM    8  N3  UNL     1      17.369   3.251  12.858  1.00  0.00    -0.107 NA
ENDROOT
BRANCH   5   9
HETATM    9  C4  UNL     1      15.301   4.495  15.556  1.00  0.00     0.087 C 
HETATM   10  C5  UNL     1      14.964   5.852  16.077  1.00  0.00     0.025 C 
HETATM   11  C6  UNL     1      14.429   5.499  17.475  1.00  0.00     0.002 C 
HETATM   12  C7  UNL     1      15.194   4.238  17.874  1.00  0.00     0.002 C 
HETATM   13  C8  UNL     1      16.131   3.952  16.711  1.00  0.00     0.025 C 
ENDBRANCH   5   9
TORSDOF 1
ENDMDL
