MODEL 1
REMARK VINA RESULT: -6.072560902      0.000      0.000
REMARK  2 active torsions:
REMARK  status: ('A' for Active; 'I' for Inactive)
REMARK    1  A    between atoms: C2_2  and  C3_3 
REMARK    2  A    between atoms: C5_6  and  O1_8 
ROOT
HETATM    1  C3  UNL     1      15.270   5.770  15.498  1.00  0.00     0.113 C 
HETATM    2  F1  UNL     1      14.394   5.294  14.514  1.00  0.00    -0.242 F 
HETATM    3  C4  UNL     1      14.596   5.630  16.825  1.00  0.00     0.083 C 
HETATM    4  C5  UNL     1      14.862   4.214  17.296  1.00  0.00     0.088 C 
HETATM    5  C6  UNL     1      15.002   4.236  18.784  1.00  0.00     0.048 C 
HETATM    6  C7  UNL     1      16.098   3.777  16.584  1.00  0.00     0.265 C 
HETATM    7  C8  UNL     1      16.471   4.886  15.628  1.00  0.00     0.090 C 
HETATM    8  C9  UNL     1      16.502   3.829  14.583  1.00  0.00     0.282 C 
HETATM    9  N1  UNL     1      15.940   2.848  15.505  1.00  0.00     0.092 N 
HETATM   10  C10 UNL     1      16.784   1.680  15.544  1.00  0.00     0.310 C 
ENDROOT
BRANCH   1  11
HETATM   11  C2  UNL     1      15.602   7.183  15.126  1.00  0.00     0.039 C 
HETATM   12  C1  UNL     1      17.048   7.415  14.832  1.00  0.00     0.008 C 
ENDBRANCH   1  11
BRANCH   4  13
HETATM   13  O1  UNL     1      13.757   3.411  16.984  1.00  0.00    -0.388 OA
ATOM     14  H1  UNL     1      14.035   2.503  16.938  1.00  0.00     0.210 HD
ENDBRANCH   4  13
TORSDOF 2
ENDMDL
MODEL 2
REMARK VINA RESULT: -5.707415417      1.814      2.929
REMARK  2 active torsions:
REMARK  status: ('A' for Active; 'I' for Inactive)
REMARK    1  A    between atoms: C2_2  and  C3_3 
REMARK    2  A    between atoms: C5_6  and  O1_8 
ROOT
HETATM    1  C3  UNL     1      15.879   5.667  14.921  1.00  0.00     0.113 C 
HETATM    2  F1  UNL     1      16.706   6.447  15.740  1.00  0.00    -0.242 F 
HETATM    3  C4  UNL     1      16.680   4.505  14.428  1.00  0.00     0.083 C 
HETATM    4  C5  UNL     1      16.596   3.438  15.502  1.00  0.00     0.088 C 
HETATM    5  C6  UNL     1      16.589   2.102  14.832  1.00  0.00     0.048 C 
HETATM    6  C7  UNL     1      15.350   3.732  16.267  1.00  0.00     0.265 C 
HETATM    7  C8  UNL     1      14.786   5.020  15.712  1.00  0.00     0.090 C 
HETATM    8  C9  UNL     1      14.764   5.491  17.122  1.00  0.00     0.282 C 
HETATM    9  N1  UNL     1      15.499   4.312  17.568  1.00  0.00     0.092 N 
HETATM   10  C10 UNL     1      14.779   3.668  18.637  1.00  0.00     0.310 C 
ENDROOT
BRANCH   1  11
HETATM   11  C2  UNL     1      15.380   6.571  13.835  1.00  0.00     0.039 C 
HETATM   12  C1  UNL     1      16.459   7.273  13.078  1.00  0.00     0.008 C 
ENDBRANCH   1  11
BRANCH   4  13
HETATM   13  O1  UNL     1      17.741   3.505  16.307  1.00  0.00    -0.388 OA
ATOM     14  H1  UNL     1      18.408   2.931  15.948  1.00  0.00     0.210 HD
ENDBRANCH   4  13
TORSDOF 2
ENDMDL
MODEL 3
REMARK VINA RESULT: -5.390272093      2.642      4.096
REMARK  2 active torsions:
REMARK  status: ('A' for Active; 'I' for Inactive)
REMARK    1  A    between atoms: C2_2  and  C3_3 
REMARK    2  A    between atoms: C5_6  and  O1_8 
ROOT
HETATM    1  C3  UNL     1      15.643   6.341  14.740  1.00  0.00     0.113 C 
HETATM    2  F1  UNL     1      14.947   7.191  13.869  1.00  0.00    -0.242 F 
HETATM    3  C4  UNL     1      15.390   4.932  14.311  1.00  0.00     0.083 C 
HETATM    4  C5  UNL     1      16.403   4.623  13.226  1.00  0.00     0.088 C 
HETATM    5  C6  UNL     1      16.792   3.185  13.348  1.00  0.00     0.048 C 
HETATM    6  C7  UNL     1      17.533   5.571  13.448  1.00  0.00     0.265 C 
HETATM    7  C8  UNL     1      17.123   6.490  14.576  1.00  0.00     0.090 C 
HETATM    8  C9  UNL     1      17.473   7.601  13.652  1.00  0.00     0.282 C 
HETATM    9  N1  UNL     1      17.654   6.673  12.542  1.00  0.00     0.092 N 
HETATM   10  C10 UNL     1      18.954   6.870  11.951  1.00  0.00     0.310 C 
ENDROOT
BRANCH   1  11
HETATM   11  C2  UNL     1      15.157   6.658  16.122  1.00  0.00     0.039 C 
HETATM   12  C1  UNL     1      14.728   5.463  16.909  1.00  0.00     0.008 C 
ENDBRANCH   1  11
BRANCH   4  13
HETATM   13  O1  UNL     1      15.802   4.798  11.973  1.00  0.00    -0.388 OA
ATOM     14  H1  UNL     1      14.872   4.951  12.092  1.00  0.00     0.210 HD
ENDBRANCH   4  13
TORSDOF 2
ENDMDL
MODEL 4
REMARK VINA RESULT: -5.351714908      5.567      6.987
REMARK  2 active torsions:
REMARK  status: ('A' for Active; 'I' for Inactive)
REMARK    1  A    between atoms: C2_2  and  C3_3 
REMARK    2  A    between atoms: C5_6  and  O1_8 
ROOT
HETATM    1  C3  UNL     1      17.793   2.039  11.245  1.00  0.00     0.113 C 
HETATM    2  F1  UNL     1      17.269   1.971   9.947  1.00  0.00    -0.242 F 
HETATM    3  C4  UNL     1      19.264   2.280  11.138  1.00  0.00     0.083 C 
HETATM    4  C5  UNL     1      19.447   3.779  11.003  1.00  0.00     0.088 C 
HETATM    5  C6  UNL     1      20.710   4.159  11.704  1.00  0.00     0.048 C 
HETATM    6  C7  UNL     1      18.223   4.390  11.599  1.00  0.00     0.265 C 
HETATM    7  C8  UNL     1      17.297   3.253  11.967  1.00  0.00     0.090 C 
HETATM    8  C9  UNL     1      16.265   3.985  11.186  1.00  0.00     0.282 C 
HETATM    9  N1  UNL     1      17.255   4.937  10.696  1.00  0.00     0.092 N 
HETATM   10  C10 UNL     1      16.815   6.281  10.974  1.00  0.00     0.310 C 
ENDROOT
BRANCH   1  11
HETATM   11  C2  UNL     1      17.430   0.751  11.919  1.00  0.00     0.039 C 
HETATM   12  C1  UNL     1      18.215  -0.429  11.447  1.00  0.00     0.008 C 
ENDBRANCH   1  11
BRANCH   4  13
HETATM   13  O1  UNL     1      19.596   4.104   9.648  1.00  0.00    -0.388 OA
ATOM     14  H1  UNL     1      20.518   4.073   9.420  1.00  0.00     0.210 HD
ENDBRANCH   4  13
TORSDOF 2
ENDMDL
MODEL 5
REMARK VINA RESULT: -5.340323812      2.221      3.653
REMARK  2 active torsions:
REMARK  status: ('A' for Active; 'I' for Inactive)
REMARK    1  A    between atoms: C2_2  and  C3_3 
REMARK    2  A    between atoms: C5_6  and  O1_8 
ROOT
HETATM    1  C3  UNL     1      15.940   4.134  16.352  1.00  0.00     0.113 C 
HETATM    2  F1  UNL     1      17.313   3.987  16.588  1.00  0.00    -0.242 F 
HETATM    3  C4  UNL     1      15.645   5.595  16.229  1.00  0.00     0.083 C 
HETATM    4  C5  UNL     1      15.917   5.969  14.785  1.00  0.00     0.088 C 
HETATM    5  C6  UNL     1      14.935   7.022  14.385  1.00  0.00     0.048 C 
HETATM    6  C7  UNL     1      15.788   4.702  14.009  1.00  0.00     0.265 C 
HETATM    7  C8  UNL     1      15.560   3.593  15.010  1.00  0.00     0.090 C 
HETATM    8  C9  UNL     1      16.696   2.904  14.343  1.00  0.00     0.282 C 
HETATM    9  N1  UNL     1      16.998   4.089  13.547  1.00  0.00     0.092 N 
HETATM   10  C10 UNL     1      17.039   3.737  12.150  1.00  0.00     0.310 C 
ENDROOT
BRANCH   1  11
HETATM   11  C2  UNL     1      15.237   3.461  17.492  1.00  0.00     0.039 C 
HETATM   12  C1  UNL     1      13.922   2.853  17.127  1.00  0.00     0.008 C 
ENDBRANCH   1  11
BRANCH   4  13
HETATM   13  O1  UNL     1      17.200   6.523  14.688  1.00  0.00    -0.388 OA
ATOM     14  H1  UNL     1      17.546   6.663  15.562  1.00  0.00     0.210 HD
ENDBRANCH   4  13
TORSDOF 2
ENDMDL
