MODEL 1
REMARK VINA RESULT: -4.716437415      0.000      0.000
REMARK  1 active torsions:
REMARK  status: ('A' for Active; 'I' for Inactive)
REMARK    1  A    between atoms: C2_2  and  N1_3 
ROOT
HETATM    1  N1  UNL     1      15.750   5.238  16.009  1.00  0.00    -0.290 NA
HETATM    2  C3  UNL     1      16.982   5.249  15.338  1.00  0.00     0.078 C 
HETATM    3  C4  UNL     1      17.813   4.011  15.447  1.00  0.00     0.117 C 
HETATM    4  N2  UNL     1      17.201   2.833  15.872  1.00  0.00    -0.310 N 
HETATM    5  C5  UNL     1      16.873   1.818  14.978  1.00  0.00     0.172 C 
HETATM    6  N3  UNL     1      16.758   2.748  17.155  1.00  0.00    -0.134 NA
HETATM    7  C6  UNL     1      15.360   3.119  17.181  1.00  0.00     0.109 C 
HETATM    8  C7  UNL     1      14.974   3.671  18.513  1.00  0.00     0.031 C 
HETATM    9  C8  UNL     1      14.981   4.054  16.054  1.00  0.00     0.117 C 
ENDROOT
BRANCH   1  10
HETATM   10  C2  UNL     1      14.922   6.332  15.556  1.00  0.00     0.090 C 
HETATM   11  C1  UNL     1      15.448   7.041  14.333  1.00  0.00     0.021 C 
ENDBRANCH   1  10
TORSDOF 1
ENDMDL
MODEL 2
REMARK VINA RESULT: -4.707809911      1.263      2.886
REMARK  1 active torsions:
REMARK  status: ('A' for Active; 'I' for Inactive)
REMARK    1  A    between atoms: C2_2  and  N1_3 
ROOT
HETATM    1  N1  UNL     1      16.162   4.948  15.270  1.00  0.00    -0.290 NA
HETATM    2  C3  UNL     1      14.973   5.418  15.848  1.00  0.00     0.078 C 
HETATM    3  C4  UNL     1      14.242   4.466  16.739  1.00  0.00     0.117 C 
HETATM    4  N2  UNL     1      14.925   3.353  17.227  1.00  0.00    -0.310 N 
HETATM    5  C5  UNL     1      15.385   3.296  18.539  1.00  0.00     0.172 C 
HETATM    6  N3  UNL     1      15.300   2.378  16.357  1.00  0.00    -0.134 NA
HETATM    7  C6  UNL     1      16.659   2.640  15.935  1.00  0.00     0.109 C 
HETATM    8  C7  UNL     1      16.922   2.072  14.581  1.00  0.00     0.031 C 
HETATM    9  C8  UNL     1      17.022   4.107  16.009  1.00  0.00     0.117 C 
ENDROOT
BRANCH   1  10
HETATM   10  C2  UNL     1      16.921   6.047  14.720  1.00  0.00     0.090 C 
HETATM   11  C1  UNL     1      18.415   5.902  14.865  1.00  0.00     0.021 C 
ENDBRANCH   1  10
TORSDOF 1
ENDMDL
MODEL 3
REMARK VINA RESULT: -4.697982910      3.490      5.770
REMARK  1 active torsions:
REMARK  status: ('A' for Active; 'I' for Inactive)
REMARK    1  A    between atoms: C2_2  and  N1_3 
ROOT
HETATM    1  N1  UNL     1      17.615   2.238  12.424  1.00  0.00    -0.290 NA
HETATM    2  C3  UNL     1      16.998   2.575  13.639  1.00  0.00     0.078 C 
HETATM    3  C4  UNL     1      17.220   3.967  14.137  1.00  0.00     0.117 C 
HETATM    4  N2  UNL     1      17.689   4.928  13.243  1.00  0.00    -0.310 N 
HETATM    5  C5  UNL     1      16.846   5.893  12.700  1.00  0.00     0.172 C 
HETATM    6  N3  UNL     1      18.954   4.813  12.759  1.00  0.00    -0.134 NA
HETATM    7  C6  UNL     1      18.897   4.111  11.495  1.00  0.00     0.109 C 
HETATM    8  C7  UNL     1      20.174   3.390  11.220  1.00  0.00     0.031 C 
HETATM    9  C8  UNL     1      17.699   3.194  11.387  1.00  0.00     0.117 C 
ENDROOT
BRANCH   1  10
HETATM   10  C2  UNL     1      17.060   1.011  11.904  1.00  0.00     0.090 C 
HETATM   11  C1  UNL     1      18.091  -0.027  11.537  1.00  0.00     0.021 C 
ENDBRANCH   1  10
TORSDOF 1
ENDMDL
MODEL 4
REMARK VINA RESULT: -4.680892798      1.971      3.726
REMARK  1 active torsions:
REMARK  status: ('A' for Active; 'I' for Inactive)
REMARK    1  A    between atoms: C2_2  and  N1_3 
ROOT
HETATM    1  N1  UNL     1      16.528   3.683  15.446  1.00  0.00    -0.290 NA
HETATM    2  C3  UNL     1      16.873   2.722  14.483  1.00  0.00     0.078 C 
HETATM    3  C4  UNL     1      17.048   3.214  13.082  1.00  0.00     0.117 C 
HETATM    4  N2  UNL     1      17.220   4.581  12.873  1.00  0.00    -0.310 N 
HETATM    5  C5  UNL     1      18.469   5.124  12.587  1.00  0.00     0.172 C 
HETATM    6  N3  UNL     1      16.181   5.420  13.125  1.00  0.00    -0.134 NA
HETATM    7  C6  UNL     1      16.317   5.925  14.474  1.00  0.00     0.109 C 
HETATM    8  C7  UNL     1      14.990   6.291  15.049  1.00  0.00     0.031 C 
HETATM    9  C8  UNL     1      17.080   4.981  15.377  1.00  0.00     0.117 C 
ENDROOT
BRANCH   1  10
HETATM   10  C2  UNL     1      16.716   3.150  16.775  1.00  0.00     0.090 C 
HETATM   11  C1  UNL     1      15.540   3.355  17.696  1.00  0.00     0.021 C 
ENDBRANCH   1  10
TORSDOF 1
ENDMDL
MODEL 5
REMARK VINA RESULT: -4.679500378      2.036      3.655
REMARK  1 active torsions:
REMARK  status: ('A' for Active; 'I' for Inactive)
REMARK    1  A    between atoms: C2_2  and  N1_3 
ROOT
HETATM    1  N1  UNL     1      16.952   3.668  13.369  1.00  0.00    -0.290 NA
HETATM    2  C3  UNL     1      16.879   2.363  13.880  1.00  0.00     0.078 C 
HETATM    3  C4  UNL     1      17.142   2.204  15.344  1.00  0.00     0.117 C 
HETATM    4  N2  UNL     1      17.081   3.333  16.158  1.00  0.00    -0.310 N 
HETATM    5  C5  UNL     1      15.989   3.576  16.987  1.00  0.00     0.172 C 
HETATM    6  N3  UNL     1      18.023   4.301  16.012  1.00  0.00    -0.134 NA
HETATM    7  C6  UNL     1      17.508   5.307  15.108  1.00  0.00     0.109 C 
HETATM    8  C7  UNL     1      18.615   6.013  14.399  1.00  0.00     0.031 C 
HETATM    9  C8  UNL     1      16.484   4.755  14.140  1.00  0.00     0.117 C 
ENDROOT
BRANCH   1  10
HETATM   10  C2  UNL     1      16.363   3.724  12.052  1.00  0.00     0.090 C 
HETATM   11  C1  UNL     1      16.370   2.408  11.315  1.00  0.00     0.021 C 
ENDBRANCH   1  10
TORSDOF 1
ENDMDL
