MODEL 1
REMARK VINA RESULT: -4.867837679      0.000      0.000
REMARK  1 active torsions:
REMARK  status: ('A' for Active; 'I' for Inactive)
REMARK    1  A    between atoms: O1_2  and  C2_3 
ROOT
HETATM    1  C2  UNL     1      16.272   4.506  14.383  1.00  0.00     0.146 C 
HETATM    2  C3  UNL     1      15.731   5.409  15.446  1.00  0.00     0.119 C 
HETATM    3  C4  UNL     1      15.143   6.689  14.858  1.00  0.00     0.032 C 
HETATM    4  N1  UNL     1      14.656   4.702  16.103  1.00  0.00    -0.158 NA
HETATM    5  N2  UNL     1      15.104   3.643  16.851  1.00  0.00    -0.233 NA
HETATM    6  C5  UNL     1      13.932   2.839  17.216  1.00  0.00     0.132 C 
HETATM    7  C6  UNL     1      16.110   2.837  16.263  1.00  0.00     0.082 A 
HETATM    8  C7  UNL     1      17.533   3.261  16.187  1.00  0.00     0.030 A 
HETATM    9  C8  UNL     1      16.614   3.188  14.959  1.00  0.00     0.037 A 
ENDROOT
BRANCH   1  10
HETATM   10  O1  UNL     1      17.424   5.122  13.862  1.00  0.00    -0.389 OA
HETATM   11  C1  UNL     1      17.671   4.686  12.562  1.00  0.00     0.202 C 
ENDBRANCH   1  10
TORSDOF 1
ENDMDL
MODEL 2
REMARK VINA RESULT: -4.755037681      2.196      3.754
REMARK  1 active torsions:
REMARK  status: ('A' for Active; 'I' for Inactive)
REMARK    1  A    between atoms: O1_2  and  C2_3 
ROOT
HETATM    1  C2  UNL     1      15.286   3.962  16.131  1.00  0.00     0.146 C 
HETATM    2  C3  UNL     1      16.112   2.780  16.531  1.00  0.00     0.119 C 
HETATM    3  C4  UNL     1      15.379   1.886  17.528  1.00  0.00     0.032 C 
HETATM    4  N1  UNL     1      16.347   1.996  15.340  1.00  0.00    -0.158 NA
HETATM    5  N2  UNL     1      17.186   2.625  14.455  1.00  0.00    -0.233 NA
HETATM    6  C5  UNL     1      17.111   1.892  13.186  1.00  0.00     0.132 C 
HETATM    7  C6  UNL     1      16.968   4.011  14.256  1.00  0.00     0.082 A 
HETATM    8  C7  UNL     1      17.394   5.039  15.241  1.00  0.00     0.030 A 
HETATM    9  C8  UNL     1      15.923   4.669  15.000  1.00  0.00     0.037 A 
ENDROOT
BRANCH   1  10
HETATM   10  O1  UNL     1      15.205   4.809  17.250  1.00  0.00    -0.389 OA
HETATM   11  C1  UNL     1      14.189   5.747  17.085  1.00  0.00     0.202 C 
ENDBRANCH   1  10
TORSDOF 1
ENDMDL
MODEL 3
REMARK VINA RESULT: -4.674933706      1.462      2.547
REMARK  1 active torsions:
REMARK  status: ('A' for Active; 'I' for Inactive)
REMARK    1  A    between atoms: O1_2  and  C2_3 
ROOT
HETATM    1  C2  UNL     1      17.283   4.120  14.570  1.00  0.00     0.146 C 
HETATM    2  C3  UNL     1      16.507   2.908  14.160  1.00  0.00     0.119 C 
HETATM    3  C4  UNL     1      17.298   2.025  13.198  1.00  0.00     0.032 C 
HETATM    4  N1  UNL     1      16.258   2.133  15.354  1.00  0.00    -0.158 NA
HETATM    5  N2  UNL     1      15.372   2.747  16.203  1.00  0.00    -0.233 NA
HETATM    6  C5  UNL     1      15.429   2.032  17.483  1.00  0.00     0.132 C 
HETATM    7  C6  UNL     1      15.543   4.140  16.391  1.00  0.00     0.082 A 
HETATM    8  C7  UNL     1      15.117   5.143  15.380  1.00  0.00     0.030 A 
HETATM    9  C8  UNL     1      16.590   4.821  15.672  1.00  0.00     0.037 A 
ENDROOT
BRANCH   1  10
HETATM   10  O1  UNL     1      17.374   4.956  13.443  1.00  0.00    -0.389 OA
HETATM   11  C1  UNL     1      18.384   5.900  13.611  1.00  0.00     0.202 C 
ENDBRANCH   1  10
TORSDOF 1
ENDMDL
MODEL 4
REMARK VINA RESULT: -4.647969712      2.659      3.933
REMARK  1 active torsions:
REMARK  status: ('A' for Active; 'I' for Inactive)
REMARK    1  A    between atoms: O1_2  and  C2_3 
ROOT
HETATM    1  C2  UNL     1      18.154   2.904  12.192  1.00  0.00     0.146 C 
HETATM    2  C3  UNL     1      17.004   1.960  12.349  1.00  0.00     0.119 C 
HETATM    3  C4  UNL     1      17.270   0.621  11.666  1.00  0.00     0.032 C 
HETATM    4  N1  UNL     1      16.851   1.701  13.763  1.00  0.00    -0.158 NA
HETATM    5  N2  UNL     1      16.397   2.797  14.452  1.00  0.00    -0.233 NA
HETATM    6  C5  UNL     1      16.567   2.515  15.882  1.00  0.00     0.132 C 
HETATM    7  C6  UNL     1      16.977   4.042  14.107  1.00  0.00     0.082 A 
HETATM    8  C7  UNL     1      16.607   4.784  12.874  1.00  0.00     0.030 A 
HETATM    9  C8  UNL     1      17.963   4.089  13.056  1.00  0.00     0.037 A 
ENDROOT
BRANCH   1  10
HETATM   10  O1  UNL     1      18.192   3.290  10.840  1.00  0.00    -0.389 OA
HETATM   11  C1  UNL     1      19.436   3.825  10.516  1.00  0.00     0.202 C 
ENDBRANCH   1  10
TORSDOF 1
ENDMDL
MODEL 5
REMARK VINA RESULT: -4.634991055      4.129      5.324
REMARK  1 active torsions:
REMARK  status: ('A' for Active; 'I' for Inactive)
REMARK    1  A    between atoms: O1_2  and  C2_3 
ROOT
HETATM    1  C2  UNL     1      18.124   3.649  12.376  1.00  0.00     0.146 C 
HETATM    2  C3  UNL     1      18.977   3.228  11.221  1.00  0.00     0.119 C 
HETATM    3  C4  UNL     1      20.343   3.908  11.246  1.00  0.00     0.032 C 
HETATM    4  N1  UNL     1      19.199   1.805  11.348  1.00  0.00    -0.158 NA
HETATM    5  N2  UNL     1      18.060   1.074  11.124  1.00  0.00    -0.233 NA
HETATM    6  C5  UNL     1      18.330  -0.299  11.567  1.00  0.00     0.132 C 
HETATM    7  C6  UNL     1      16.868   1.571  11.705  1.00  0.00     0.082 A 
HETATM    8  C7  UNL     1      16.122   2.725  11.139  1.00  0.00     0.030 A 
HETATM    9  C8  UNL     1      16.914   2.803  12.452  1.00  0.00     0.037 A 
ENDROOT
BRANCH   1  10
HETATM   10  O1  UNL     1      17.766   4.992  12.159  1.00  0.00    -0.389 OA
HETATM   11  C1  UNL     1      17.328   5.582  13.342  1.00  0.00     0.202 C 
ENDBRANCH   1  10
TORSDOF 1
ENDMDL
