MODEL 1
REMARK VINA RESULT: -5.082487281      0.000      0.000
REMARK  2 active torsions:
REMARK  status: ('A' for Active; 'I' for Inactive)
REMARK    1  A    between atoms: C3_3  and  N1_4 
REMARK    2  A    between atoms: C7_8  and  O1_9 
ROOT
HETATM    1  C1  UNL     1      17.271   6.004  12.547  1.00  0.00     0.013 C 
HETATM    2  C2  UNL     1      16.845   5.159  13.295  1.00  0.00    -0.087 C 
HETATM    3  C3  UNL     1      16.322   4.125  14.194  1.00  0.00     0.365 C 
ENDROOT
BRANCH   3   4
HETATM    4  N1  UNL     1      16.119   4.672  15.535  1.00  0.00     0.106 N 
HETATM    5  C4  UNL     1      14.785   5.203  15.705  1.00  0.00     0.274 C 
HETATM    6  C5  UNL     1      14.311   5.107  17.139  1.00  0.00     0.033 C 
HETATM    7  C6  UNL     1      14.246   3.672  17.612  1.00  0.00     0.035 C 
HETATM    8  C7  UNL     1      15.126   2.856  16.679  1.00  0.00     0.151 C 
HETATM    9  C8  UNL     1      16.407   3.646  16.523  1.00  0.00     0.248 C 
HETATM   10  C9  UNL     1      17.591   2.811  16.171  1.00  0.00     0.045 C 
BRANCH   8  11
HETATM   11  O1  UNL     1      15.308   1.555  17.080  1.00  0.00    -0.393 OA
ATOM     12  H1  UNL     1      14.850   1.331  17.881  1.00  0.00     0.210 HD
ENDBRANCH   8  11
ENDBRANCH   3   4
TORSDOF 2
ENDMDL
MODEL 2
REMARK VINA RESULT: -5.060741908      2.110      3.872
REMARK  2 active torsions:
REMARK  status: ('A' for Active; 'I' for Inactive)
REMARK    1  A    between atoms: C3_3  and  N1_4 
REMARK    2  A    between atoms: C7_8  and  O1_9 
ROOT
HETATM    1  C1  UNL     1      14.933   3.948  18.853  1.00  0.00     0.013 C 
HETATM    2  C2  UNL     1      15.235   3.625  17.731  1.00  0.00    -0.087 C 
HETATM    3  C3  UNL     1      15.613   3.223  16.372  1.00  0.00     0.365 C 
ENDROOT
BRANCH   3   4
HETATM    4  N1  UNL     1      15.276   4.279  15.417  1.00  0.00     0.106 N 
HETATM    5  C4  UNL     1      14.904   5.508  16.081  1.00  0.00     0.274 C 
HETATM    6  C5  UNL     1      15.240   6.729  15.252  1.00  0.00     0.033 C 
HETATM    7  C6  UNL     1      16.726   6.836  14.990  1.00  0.00     0.035 C 
HETATM    8  C7  UNL     1      17.318   5.454  15.220  1.00  0.00     0.151 C 
HETATM    9  C8  UNL     1      16.394   4.486  14.513  1.00  0.00     0.248 C 
HETATM   10  C9  UNL     1      17.055   3.215  14.100  1.00  0.00     0.045 C 
BRANCH   8  11
HETATM   11  O1  UNL     1      18.638   5.346  14.855  1.00  0.00    -0.393 OA
ATOM     12  H1  UNL     1      18.872   4.495  14.503  1.00  0.00     0.210 HD
ENDBRANCH   8  11
ENDBRANCH   3   4
TORSDOF 2
ENDMDL
MODEL 3
REMARK VINA RESULT: -4.985669053      3.152      5.110
REMARK  2 active torsions:
REMARK  status: ('A' for Active; 'I' for Inactive)
REMARK    1  A    between atoms: C3_3  and  N1_4 
REMARK    2  A    between atoms: C7_8  and  O1_9 
ROOT
HETATM    1  C1  UNL     1      16.401   3.317  16.913  1.00  0.00     0.013 C 
HETATM    2  C2  UNL     1      16.525   3.659  15.763  1.00  0.00    -0.087 C 
HETATM    3  C3  UNL     1      16.665   4.084  14.366  1.00  0.00     0.365 C 
ENDROOT
BRANCH   3   4
HETATM    4  N1  UNL     1      17.455   3.109  13.615  1.00  0.00     0.106 N 
HETATM    5  C4  UNL     1      16.790   1.828  13.526  1.00  0.00     0.274 C 
HETATM    6  C5  UNL     1      17.155   1.081  12.262  1.00  0.00     0.033 C 
HETATM    7  C6  UNL     1      16.746   1.844  11.022  1.00  0.00     0.035 C 
HETATM    8  C7  UNL     1      16.554   3.295  11.436  1.00  0.00     0.151 C 
HETATM    9  C8  UNL     1      17.751   3.641  12.296  1.00  0.00     0.248 C 
HETATM   10  C9  UNL     1      18.080   5.095  12.312  1.00  0.00     0.045 C 
BRANCH   8  11
HETATM   11  O1  UNL     1      16.345   4.152  10.384  1.00  0.00    -0.393 OA
ATOM     12  H1  UNL     1      15.914   3.751   9.639  1.00  0.00     0.210 HD
ENDBRANCH   8  11
ENDBRANCH   3   4
TORSDOF 2
ENDMDL
MODEL 4
REMARK VINA RESULT: -4.825612448      4.118      6.182
REMARK  2 active torsions:
REMARK  status: ('A' for Active; 'I' for Inactive)
REMARK    1  A    between atoms: C3_3  and  N1_4 
REMARK    2  A    between atoms: C7_8  and  O1_9 
ROOT
HETATM    1  C1  UNL     1      18.355  -0.686  11.592  1.00  0.00     0.013 C 
HETATM    2  C2  UNL     1      17.859   0.405  11.723  1.00  0.00    -0.087 C 
HETATM    3  C3  UNL     1      17.245   1.729  11.874  1.00  0.00     0.365 C 
ENDROOT
BRANCH   3   4
HETATM    4  N1  UNL     1      18.269   2.736  12.147  1.00  0.00     0.106 N 
HETATM    5  C4  UNL     1      19.251   2.808  11.089  1.00  0.00     0.274 C 
HETATM    6  C5  UNL     1      19.844   4.194  10.953  1.00  0.00     0.033 C 
HETATM    7  C6  UNL     1      18.791   5.222  10.607  1.00  0.00     0.035 C 
HETATM    8  C7  UNL     1      17.445   4.625  10.987  1.00  0.00     0.151 C 
HETATM    9  C8  UNL     1      17.633   4.025  12.363  1.00  0.00     0.248 C 
HETATM   10  C9  UNL     1      16.374   3.929  13.156  1.00  0.00     0.045 C 
BRANCH   8  11
HETATM   11  O1  UNL     1      16.397   5.508  10.892  1.00  0.00    -0.393 OA
ATOM     12  H1  UNL     1      15.826   5.510  11.651  1.00  0.00     0.210 HD
ENDBRANCH   8  11
ENDBRANCH   3   4
TORSDOF 2
ENDMDL
MODEL 5
REMARK VINA RESULT: -4.768789824      2.482      4.533
REMARK  2 active torsions:
REMARK  status: ('A' for Active; 'I' for Inactive)
REMARK    1  A    between atoms: C3_3  and  N1_4 
REMARK    2  A    between atoms: C7_8  and  O1_9 
ROOT
HETATM    1  C1  UNL     1      14.564   4.825  16.917  1.00  0.00     0.013 C 
HETATM    2  C2  UNL     1      15.064   5.120  15.859  1.00  0.00    -0.087 C 
HETATM    3  C3  UNL     1      15.659   5.486  14.570  1.00  0.00     0.365 C 
ENDROOT
BRANCH   3   4
HETATM    4  N1  UNL     1      16.779   4.599  14.257  1.00  0.00     0.106 N 
HETATM    5  C4  UNL     1      16.488   3.223  14.593  1.00  0.00     0.274 C 
HETATM    6  C5  UNL     1      17.222   2.249  13.698  1.00  0.00     0.033 C 
HETATM    7  C6  UNL     1      16.822   2.411  12.248  1.00  0.00     0.035 C 
HETATM    8  C7  UNL     1      16.202   3.792  12.110  1.00  0.00     0.151 C 
HETATM    9  C8  UNL     1      17.124   4.735  12.852  1.00  0.00     0.248 C 
HETATM   10  C9  UNL     1      17.061   6.144  12.369  1.00  0.00     0.045 C 
BRANCH   8  11
HETATM   11  O1  UNL     1      15.942   4.159  10.812  1.00  0.00    -0.393 OA
ATOM     12  H1  UNL     1      15.714   3.433  10.244  1.00  0.00     0.210 HD
ENDBRANCH   8  11
ENDBRANCH   3   4
TORSDOF 2
ENDMDL
