MODEL 1
REMARK VINA RESULT: -4.337127448      0.000      0.000
REMARK  1 active torsions:
REMARK  status: ('A' for Active; 'I' for Inactive)
REMARK    1  A    between atoms: N1_2  and  C4_5 
ROOT
HETATM    1  C4  UNL     1      16.102   4.267  15.141  1.00  0.00     0.201 C 
HETATM    2  C5  UNL     1      17.239   3.480  15.710  1.00  0.00     0.051 C 
HETATM    3  C6  UNL     1      16.824   2.048  15.970  1.00  0.00     0.124 C 
HETATM    4  N2  UNL     1      15.930   1.909  17.079  1.00  0.00    -0.179 NA
HETATM    5  S1  UNL     1      15.389   3.507  17.648  1.00  0.00    -0.064 SA
HETATM    6  C7  UNL     1      14.992   4.467  16.138  1.00  0.00     0.126 C 
ENDROOT
BRANCH   1   7
HETATM    7  N1  UNL     1      16.519   5.550  14.657  1.00  0.00    -0.073 N 
HETATM    8  C1  UNL     1      17.866   5.889  15.134  1.00  0.00     0.272 C 
HETATM    9  C2  UNL     1      15.656   6.625  15.066  1.00  0.00     0.272 C 
HETATM   10  C3  UNL     1      16.595   5.521  13.211  1.00  0.00     0.272 C 
ENDBRANCH   1   7
TORSDOF 1
ENDMDL
MODEL 2
REMARK VINA RESULT: -4.326039760      0.074      1.287
REMARK  1 active torsions:
REMARK  status: ('A' for Active; 'I' for Inactive)
REMARK    1  A    between atoms: N1_2  and  C4_5 
ROOT
HETATM    1  C4  UNL     1      16.087   4.265  15.194  1.00  0.00     0.201 C 
HETATM    2  C5  UNL     1      17.225   3.476  15.758  1.00  0.00     0.051 C 
HETATM    3  C6  UNL     1      16.810   2.043  16.013  1.00  0.00     0.124 C 
HETATM    4  N2  UNL     1      15.917   1.900  17.123  1.00  0.00    -0.179 NA
HETATM    5  S1  UNL     1      15.377   3.495  17.699  1.00  0.00    -0.064 SA
HETATM    6  C7  UNL     1      14.978   4.461  16.193  1.00  0.00     0.126 C 
ENDROOT
BRANCH   1   7
HETATM    7  N1  UNL     1      16.504   5.549  14.714  1.00  0.00    -0.073 N 
HETATM    8  C1  UNL     1      16.520   5.592  13.246  1.00  0.00     0.272 C 
HETATM    9  C2  UNL     1      17.822   5.924  15.151  1.00  0.00     0.272 C 
HETATM   10  C3  UNL     1      15.555   6.557  15.141  1.00  0.00     0.272 C 
ENDBRANCH   1   7
TORSDOF 1
ENDMDL
MODEL 3
REMARK VINA RESULT: -4.304312071      0.044      1.277
REMARK  1 active torsions:
REMARK  status: ('A' for Active; 'I' for Inactive)
REMARK    1  A    between atoms: N1_2  and  C4_5 
ROOT
HETATM    1  C4  UNL     1      16.116   4.251  15.147  1.00  0.00     0.201 C 
HETATM    2  C5  UNL     1      17.245   3.468  15.735  1.00  0.00     0.051 C 
HETATM    3  C6  UNL     1      16.824   2.040  16.009  1.00  0.00     0.124 C 
HETATM    4  N2  UNL     1      15.919   1.916  17.111  1.00  0.00    -0.179 NA
HETATM    5  S1  UNL     1      15.378   3.522  17.656  1.00  0.00    -0.064 SA
HETATM    6  C7  UNL     1      14.997   4.465  16.131  1.00  0.00     0.126 C 
ENDROOT
BRANCH   1   7
HETATM    7  N1  UNL     1      16.540   5.526  14.651  1.00  0.00    -0.073 N 
HETATM    8  C1  UNL     1      15.647   6.600  15.104  1.00  0.00     0.272 C 
HETATM    9  C2  UNL     1      16.576   5.600  13.215  1.00  0.00     0.272 C 
HETATM   10  C3  UNL     1      17.852   5.839  15.178  1.00  0.00     0.272 C 
ENDBRANCH   1   7
TORSDOF 1
ENDMDL
MODEL 4
REMARK VINA RESULT: -4.228321278      1.203      1.730
REMARK  1 active torsions:
REMARK  status: ('A' for Active; 'I' for Inactive)
REMARK    1  A    between atoms: N1_2  and  C4_5 
ROOT
HETATM    1  C4  UNL     1      16.359   4.865  16.033  1.00  0.00     0.201 C 
HETATM    2  C5  UNL     1      15.065   4.187  16.352  1.00  0.00     0.051 C 
HETATM    3  C6  UNL     1      15.170   3.412  17.648  1.00  0.00     0.124 C 
HETATM    4  N2  UNL     1      15.976   2.234  17.541  1.00  0.00    -0.179 NA
HETATM    5  S1  UNL     1      16.809   2.189  15.969  1.00  0.00    -0.064 SA
HETATM    6  C7  UNL     1      17.449   3.884  15.694  1.00  0.00     0.126 C 
ENDROOT
BRANCH   1   7
HETATM    7  N1  UNL     1      16.230   5.798  14.953  1.00  0.00    -0.073 N 
HETATM    8  C1  UNL     1      17.356   6.740  14.923  1.00  0.00     0.272 C 
HETATM    9  C2  UNL     1      15.032   6.592  15.022  1.00  0.00     0.272 C 
HETATM   10  C3  UNL     1      16.259   5.087  13.692  1.00  0.00     0.272 C 
ENDBRANCH   1   7
TORSDOF 1
ENDMDL
MODEL 5
REMARK VINA RESULT: -4.202509663      1.208      2.154
REMARK  1 active torsions:
REMARK  status: ('A' for Active; 'I' for Inactive)
REMARK    1  A    between atoms: N1_2  and  C4_5 
ROOT
HETATM    1  C4  UNL     1      16.444   4.900  15.934  1.00  0.00     0.201 C 
HETATM    2  C5  UNL     1      15.143   4.263  16.303  1.00  0.00     0.051 C 
HETATM    3  C6  UNL     1      15.265   3.507  17.608  1.00  0.00     0.124 C 
HETATM    4  N2  UNL     1      16.036   2.305  17.497  1.00  0.00    -0.179 NA
HETATM    5  S1  UNL     1      16.820   2.212  15.902  1.00  0.00    -0.064 SA
HETATM    6  C7  UNL     1      17.496   3.885  15.580  1.00  0.00     0.126 C 
ENDROOT
BRANCH   1   7
HETATM    7  N1  UNL     1      16.308   5.819  14.844  1.00  0.00    -0.073 N 
HETATM    8  C1  UNL     1      15.039   6.555  14.920  1.00  0.00     0.272 C 
HETATM    9  C2  UNL     1      16.338   5.185  13.553  1.00  0.00     0.272 C 
HETATM   10  C3  UNL     1      17.360   6.813  14.912  1.00  0.00     0.272 C 
ENDBRANCH   1   7
TORSDOF 1
ENDMDL
