MODEL 1
REMARK VINA RESULT: -5.193445143      0.000      0.000
REMARK  2 active torsions:
REMARK  status: ('A' for Active; 'I' for Inactive)
REMARK    1  A    between atoms: C2_2  and  O1_3 
REMARK    2  A    between atoms: C2_2  and  C3_5 
ROOT
HETATM    1  C3  UNL     1       4.115  -2.790  13.644  1.00  0.00     0.213 C 
HETATM    2  O2  UNL     1       4.580  -1.729  12.918  1.00  0.00    -0.352 OA
HETATM    3  C4  UNL     1       4.300  -1.908  11.583  1.00  0.00     0.228 C 
HETATM    4 CL1  UNL     1       2.582  -1.865  11.198  1.00  0.00    -0.095 Cl
HETATM    5  C5  UNL     1       4.971  -3.182  11.120  1.00  0.00     0.124 C 
HETATM    6  S1  UNL     1       4.907  -4.148  12.684  1.00  0.00    -0.131 SA
ENDROOT
BRANCH   1   7
HETATM    7  C2  UNL     1       4.711  -2.733  15.030  1.00  0.00     0.153 C 
HETATM    8  C1  UNL     1       3.839  -3.387  16.065  1.00  0.00     0.042 C 
BRANCH   7   9
HETATM    9  O1  UNL     1       4.860  -1.391  15.381  1.00  0.00    -0.393 OA
ATOM     10  H1  UNL     1       5.067  -0.903  14.592  1.00  0.00     0.210 HD
ENDBRANCH   7   9
ENDBRANCH   1   7
TORSDOF 2
ENDMDL
MODEL 2
REMARK VINA RESULT: -4.929629418      1.029      1.031
REMARK  2 active torsions:
REMARK  status: ('A' for Active; 'I' for Inactive)
REMARK    1  A    between atoms: C2_2  and  O1_3 
REMARK    2  A    between atoms: C2_2  and  C3_5 
ROOT
HETATM    1  C3  UNL     1       4.030  -3.026  13.928  1.00  0.00     0.213 C 
HETATM    2  O2  UNL     1       4.573  -1.974  13.243  1.00  0.00    -0.352 OA
HETATM    3  C4  UNL     1       4.422  -2.163  11.888  1.00  0.00     0.228 C 
HETATM    4 CL1  UNL     1       2.750  -2.110  11.338  1.00  0.00    -0.095 Cl
HETATM    5  C5  UNL     1       5.123  -3.447  11.503  1.00  0.00     0.124 C 
HETATM    6  S1  UNL     1       4.898  -4.399  13.061  1.00  0.00    -0.131 SA
ENDROOT
BRANCH   1   7
HETATM    7  C2  UNL     1       4.489  -2.961  15.365  1.00  0.00     0.153 C 
HETATM    8  C1  UNL     1       5.348  -4.131  15.755  1.00  0.00     0.042 C 
BRANCH   7   9
HETATM    9  O1  UNL     1       3.358  -2.969  16.181  1.00  0.00    -0.393 OA
ATOM     10  H1  UNL     1       3.105  -2.067  16.340  1.00  0.00     0.210 HD
ENDBRANCH   7   9
ENDBRANCH   1   7
TORSDOF 2
ENDMDL
MODEL 3
REMARK VINA RESULT: -4.662057900      3.269      3.557
REMARK  2 active torsions:
REMARK  status: ('A' for Active; 'I' for Inactive)
REMARK    1  A    between atoms: C2_2  and  O1_3 
REMARK    2  A    between atoms: C2_2  and  C3_5 
ROOT
HETATM    1  C3  UNL     1       4.648  -4.296  15.308  1.00  0.00     0.213 C 
HETATM    2  O2  UNL     1       3.363  -4.728  15.486  1.00  0.00    -0.352 OA
HETATM    3  C4  UNL     1       3.074  -5.736  14.595  1.00  0.00     0.228 C 
HETATM    4 CL1  UNL     1       3.980  -7.221  14.871  1.00  0.00    -0.095 Cl
HETATM    5  C5  UNL     1       3.246  -5.198  13.192  1.00  0.00     0.124 C 
HETATM    6  S1  UNL     1       4.580  -3.968  13.497  1.00  0.00    -0.131 SA
ENDROOT
BRANCH   1   7
HETATM    7  C2  UNL     1       4.834  -2.997  16.054  1.00  0.00     0.153 C 
HETATM    8  C1  UNL     1       5.636  -3.160  17.314  1.00  0.00     0.042 C 
BRANCH   7   9
HETATM    9  O1  UNL     1       3.573  -2.516  16.407  1.00  0.00    -0.393 OA
ATOM     10  H1  UNL     1       3.249  -1.988  15.687  1.00  0.00     0.210 HD
ENDBRANCH   7   9
ENDBRANCH   1   7
TORSDOF 2
ENDMDL
MODEL 4
REMARK VINA RESULT: -4.651241698      3.516      3.780
REMARK  2 active torsions:
REMARK  status: ('A' for Active; 'I' for Inactive)
REMARK    1  A    between atoms: C2_2  and  O1_3 
REMARK    2  A    between atoms: C2_2  and  C3_5 
ROOT
HETATM    1  C3  UNL     1       5.764  -3.342  15.829  1.00  0.00     0.213 C 
HETATM    2  O2  UNL     1       5.899  -4.703  15.813  1.00  0.00    -0.352 OA
HETATM    3  C4  UNL     1       5.028  -5.254  14.901  1.00  0.00     0.228 C 
HETATM    4 CL1  UNL     1       5.390  -4.849  13.226  1.00  0.00    -0.095 Cl
HETATM    5  C5  UNL     1       3.618  -4.881  15.301  1.00  0.00     0.124 C 
HETATM    6  S1  UNL     1       3.942  -3.248  16.084  1.00  0.00    -0.131 SA
ENDROOT
BRANCH   1   7
HETATM    7  C2  UNL     1       6.476  -2.796  17.043  1.00  0.00     0.153 C 
HETATM    8  C1  UNL     1       6.219  -3.608  18.282  1.00  0.00     0.042 C 
BRANCH   7   9
HETATM    9  O1  UNL     1       6.009  -1.502  17.274  1.00  0.00    -0.393 OA
ATOM     10  H1  UNL     1       5.709  -1.147  16.445  1.00  0.00     0.210 HD
ENDBRANCH   7   9
ENDBRANCH   1   7
TORSDOF 2
ENDMDL
MODEL 5
REMARK VINA RESULT: -4.582687478      3.221      3.593
REMARK  2 active torsions:
REMARK  status: ('A' for Active; 'I' for Inactive)
REMARK    1  A    between atoms: C2_2  and  O1_3 
REMARK    2  A    between atoms: C2_2  and  C3_5 
ROOT
HETATM    1  C3  UNL     1       5.205  -3.870  16.182  1.00  0.00     0.213 C 
HETATM    2  O2  UNL     1       4.812  -3.647  14.891  1.00  0.00    -0.352 OA
HETATM    3  C4  UNL     1       4.447  -4.832  14.295  1.00  0.00     0.228 C 
HETATM    4 CL1  UNL     1       2.997  -5.562  14.978  1.00  0.00    -0.095 Cl
HETATM    5  C5  UNL     1       5.637  -5.766  14.318  1.00  0.00     0.124 C 
HETATM    6  S1  UNL     1       6.446  -5.194  15.868  1.00  0.00    -0.131 SA
ENDROOT
BRANCH   1   7
HETATM    7  C2  UNL     1       5.899  -2.635  16.702  1.00  0.00     0.153 C 
HETATM    8  C1  UNL     1       7.345  -2.877  17.033  1.00  0.00     0.042 C 
BRANCH   7   9
HETATM    9  O1  UNL     1       5.252  -2.235  17.871  1.00  0.00    -0.393 OA
ATOM     10  H1  UNL     1       4.445  -2.730  17.943  1.00  0.00     0.210 HD
ENDBRANCH   7   9
ENDBRANCH   1   7
TORSDOF 2
ENDMDL
