MODEL 1
REMARK VINA RESULT: -4.475802174      0.000      0.000
REMARK  2 active torsions:
REMARK  status: ('A' for Active; 'I' for Inactive)
REMARK    1  A    between atoms: C1_2  and  C2_3 
REMARK    2  A    between atoms: C1_2  and  N1_5 
ROOT
HETATM    1  N1  UNL     1       4.437  -3.279  13.578  1.00  0.00    -0.351 N 
HETATM    2  C3  UNL     1       4.439  -2.564  14.830  1.00  0.00     0.127 C 
HETATM    3  C4  UNL     1       3.908  -3.409  15.977  1.00  0.00     0.047 C 
HETATM    4  C5  UNL     1       3.734  -4.805  15.406  1.00  0.00     0.236 C 
HETATM    5  N2  UNL     1       5.027  -5.152  14.832  1.00  0.00    -0.059 N 
ATOM      6  H21 UNL     1       5.201  -6.157  14.824  1.00  0.00     0.279 HD
ATOM      7  H22 UNL     1       5.810  -4.885  15.428  1.00  0.00     0.279 HD
HETATM    8  C6  UNL     1       5.094  -4.565  13.526  1.00  0.00     0.357 C 
ENDROOT
BRANCH   1   9
HETATM    9  C1  UNL     1       3.813  -2.775  12.389  1.00  0.00     0.090 C 
HETATM   10  S1  UNL     1       4.096  -1.248  11.893  1.00  0.00    -0.064 SA
BRANCH   9  11
HETATM   11  C2  UNL     1       2.905  -3.620  11.593  1.00  0.00     0.184 C 
HETATM   12 CL1  UNL     1       1.477  -2.684  11.133  1.00  0.00    -0.123 Cl
ENDBRANCH   9  11
ENDBRANCH   1   9
TORSDOF 2
ENDMDL
MODEL 2
REMARK VINA RESULT: -4.430121931      1.295      1.472
REMARK  2 active torsions:
REMARK  status: ('A' for Active; 'I' for Inactive)
REMARK    1  A    between atoms: C1_2  and  C2_3 
REMARK    2  A    between atoms: C1_2  and  N1_5 
ROOT
HETATM    1  N1  UNL     1       4.463  -3.200  13.578  1.00  0.00    -0.351 N 
HETATM    2  C3  UNL     1       4.469  -2.553  14.867  1.00  0.00     0.127 C 
HETATM    3  C4  UNL     1       3.884  -3.436  15.957  1.00  0.00     0.047 C 
HETATM    4  C5  UNL     1       3.670  -4.792  15.310  1.00  0.00     0.236 C 
HETATM    5  N2  UNL     1       4.959  -5.158  14.741  1.00  0.00    -0.059 N 
ATOM      6  H21 UNL     1       5.096  -6.167  14.682  1.00  0.00     0.279 HD
ATOM      7  H22 UNL     1       5.741  -4.952  15.363  1.00  0.00     0.279 HD
HETATM    8  C6  UNL     1       5.073  -4.505  13.469  1.00  0.00     0.357 C 
ENDROOT
BRANCH   1   9
HETATM    9  C1  UNL     1       3.882  -2.610  12.408  1.00  0.00     0.090 C 
HETATM   10  S1  UNL     1       2.715  -3.394  11.581  1.00  0.00    -0.064 SA
BRANCH   9  11
HETATM   11  C2  UNL     1       4.325  -1.289  11.926  1.00  0.00     0.184 C 
HETATM   12 CL1  UNL     1       2.935  -0.391  11.302  1.00  0.00    -0.123 Cl
ENDBRANCH   9  11
ENDBRANCH   1   9
TORSDOF 2
ENDMDL
MODEL 3
REMARK VINA RESULT: -4.412223875      2.740      4.223
REMARK  2 active torsions:
REMARK  status: ('A' for Active; 'I' for Inactive)
REMARK    1  A    between atoms: C1_2  and  C2_3 
REMARK    2  A    between atoms: C1_2  and  N1_5 
ROOT
HETATM    1  N1  UNL     1       4.064  -3.377  12.216  1.00  0.00    -0.351 N 
HETATM    2  C3  UNL     1       2.751  -3.729  11.734  1.00  0.00     0.127 C 
HETATM    3  C4  UNL     1       2.002  -2.529  11.177  1.00  0.00     0.047 C 
HETATM    4  C5  UNL     1       3.010  -1.394  11.159  1.00  0.00     0.236 C 
HETATM    5  N2  UNL     1       4.153  -1.902  10.414  1.00  0.00    -0.059 N 
ATOM      6  H21 UNL     1       4.681  -1.166   9.946  1.00  0.00     0.279 HD
ATOM      7  H22 UNL     1       3.882  -2.424   9.580  1.00  0.00     0.279 HD
HETATM    8  C6  UNL     1       4.953  -2.674  11.319  1.00  0.00     0.357 C 
ENDROOT
BRANCH   1   9
HETATM    9  C1  UNL     1       4.525  -3.692  13.537  1.00  0.00     0.090 C 
HETATM   10  S1  UNL     1       5.175  -5.152  13.859  1.00  0.00    -0.064 SA
BRANCH   9  11
HETATM   11  C2  UNL     1       4.419  -2.708  14.630  1.00  0.00     0.184 C 
HETATM   12 CL1  UNL     1       3.769  -3.495  16.073  1.00  0.00    -0.123 Cl
ENDBRANCH   9  11
ENDBRANCH   1   9
TORSDOF 2
ENDMDL
MODEL 4
REMARK VINA RESULT: -4.411599745      1.820      2.042
REMARK  2 active torsions:
REMARK  status: ('A' for Active; 'I' for Inactive)
REMARK    1  A    between atoms: C1_2  and  C2_3 
REMARK    2  A    between atoms: C1_2  and  N1_5 
ROOT
HETATM    1  N1  UNL     1       4.352  -3.055  12.669  1.00  0.00    -0.351 N 
HETATM    2  C3  UNL     1       4.383  -3.031  14.110  1.00  0.00     0.127 C 
HETATM    3  C4  UNL     1       3.990  -4.368  14.716  1.00  0.00     0.047 C 
HETATM    4  C5  UNL     1       3.880  -5.329  13.546  1.00  0.00     0.236 C 
HETATM    5  N2  UNL     1       5.155  -5.234  12.848  1.00  0.00    -0.059 N 
ATOM      6  H21 UNL     1       5.400  -6.091  12.351  1.00  0.00     0.279 HD
ATOM      7  H22 UNL     1       5.954  -5.213  13.482  1.00  0.00     0.279 HD
HETATM    8  C6  UNL     1       5.095  -4.089  11.987  1.00  0.00     0.357 C 
ENDROOT
BRANCH   1   9
HETATM    9  C1  UNL     1       3.618  -2.103  11.886  1.00  0.00     0.090 C 
HETATM   10  S1  UNL     1       2.208  -2.524  11.183  1.00  0.00    -0.064 SA
BRANCH   9  11
HETATM   11  C2  UNL     1       4.120  -0.730  11.697  1.00  0.00     0.184 C 
HETATM   12 CL1  UNL     1       2.761   0.359  11.390  1.00  0.00    -0.123 Cl
ENDBRANCH   9  11
ENDBRANCH   1   9
TORSDOF 2
ENDMDL
MODEL 5
REMARK VINA RESULT: -4.392832544      2.567      3.026
REMARK  2 active torsions:
REMARK  status: ('A' for Active; 'I' for Inactive)
REMARK    1  A    between atoms: C1_2  and  C2_3 
REMARK    2  A    between atoms: C1_2  and  N1_5 
ROOT
HETATM    1  N1  UNL     1       4.816  -3.574  15.151  1.00  0.00    -0.351 N 
HETATM    2  C3  UNL     1       5.328  -4.695  15.900  1.00  0.00     0.127 C 
HETATM    3  C4  UNL     1       6.546  -4.325  16.730  1.00  0.00     0.047 C 
HETATM    4  C5  UNL     1       6.677  -2.818  16.610  1.00  0.00     0.236 C 
HETATM    5  N2  UNL     1       5.382  -2.284  17.007  1.00  0.00    -0.059 N 
ATOM      6  H21 UNL     1       5.443  -1.344  17.400  1.00  0.00     0.279 HD
ATOM      7  H22 UNL     1       4.996  -2.748  17.830  1.00  0.00     0.279 HD
HETATM    8  C6  UNL     1       4.514  -2.357  15.868  1.00  0.00     0.357 C 
ENDROOT
BRANCH   1   9
HETATM    9  C1  UNL     1       4.596  -3.613  13.735  1.00  0.00     0.090 C 
HETATM   10  S1  UNL     1       4.700  -5.023  12.922  1.00  0.00    -0.064 SA
BRANCH   9  11
HETATM   11  C2  UNL     1       4.274  -2.386  12.984  1.00  0.00     0.184 C 
HETATM   12 CL1  UNL     1       4.938  -2.502  11.349  1.00  0.00    -0.123 Cl
ENDBRANCH   9  11
ENDBRANCH   1   9
TORSDOF 2
ENDMDL
