MODEL 1
REMARK VINA RESULT: -4.986424078      0.000      0.000
REMARK  2 active torsions:
REMARK  status: ('A' for Active; 'I' for Inactive)
REMARK    1  A    between atoms: O1_1  and  C1_3 
REMARK    2  A    between atoms: C4_6  and  C5_7 
ROOT
HETATM    1  C1  UNL     1       5.848  -2.460  17.537  1.00  0.00     0.257 C 
HETATM    2  C2  UNL     1       7.169  -3.127  17.252  1.00  0.00     0.063 C 
HETATM    3  C3  UNL     1       6.766  -4.255  16.325  1.00  0.00     0.037 C 
HETATM    4  C4  UNL     1       5.396  -3.740  15.862  1.00  0.00     0.134 C 
HETATM    5  O2  UNL     1       4.860  -3.359  17.089  1.00  0.00    -0.355 OA
ENDROOT
BRANCH   1   6
HETATM    6  O1  UNL     1       5.676  -1.293  16.806  1.00  0.00    -0.371 OA
ATOM      7  H1  UNL     1       5.018  -0.723  17.185  1.00  0.00     0.212 HD
ENDBRANCH   1   6
BRANCH   4   8
HETATM    8  C5  UNL     1       4.677  -4.935  15.275  1.00  0.00     0.117 C 
HETATM    9 BR1  UNL     1       5.903  -6.404  15.007  1.00  0.00    -0.094 Br
ENDBRANCH   4   8
TORSDOF 2
ENDMDL
MODEL 2
REMARK VINA RESULT: -4.714908376      1.365      1.365
REMARK  2 active torsions:
REMARK  status: ('A' for Active; 'I' for Inactive)
REMARK    1  A    between atoms: O1_1  and  C1_3 
REMARK    2  A    between atoms: C4_6  and  C5_7 
ROOT
HETATM    1  C1  UNL     1       5.886  -2.623  17.576  1.00  0.00     0.257 C 
HETATM    2  C2  UNL     1       7.012  -3.490  17.073  1.00  0.00     0.063 C 
HETATM    3  C3  UNL     1       6.330  -4.310  15.997  1.00  0.00     0.037 C 
HETATM    4  C4  UNL     1       5.092  -3.438  15.744  1.00  0.00     0.134 C 
HETATM    5  O2  UNL     1       4.705  -3.190  17.057  1.00  0.00    -0.355 OA
ENDROOT
BRANCH   1   6
HETATM    6  O1  UNL     1       5.952  -1.329  17.077  1.00  0.00    -0.371 OA
ATOM      7  H1  UNL     1       6.829  -0.969  17.124  1.00  0.00     0.212 HD
ENDBRANCH   1   6
BRANCH   4   8
HETATM    8  C5  UNL     1       4.102  -4.318  15.015  1.00  0.00     0.117 C 
HETATM    9 BR1  UNL     1       4.065  -3.890  13.132  1.00  0.00    -0.094 Br
ENDBRANCH   4   8
TORSDOF 2
ENDMDL
MODEL 3
REMARK VINA RESULT: -4.572805743      1.096      1.096
REMARK  2 active torsions:
REMARK  status: ('A' for Active; 'I' for Inactive)
REMARK    1  A    between atoms: O1_1  and  C1_3 
REMARK    2  A    between atoms: C4_6  and  C5_7 
ROOT
HETATM    1  C1  UNL     1       5.528  -2.721  17.511  1.00  0.00     0.257 C 
HETATM    2  C2  UNL     1       6.713  -3.574  17.885  1.00  0.00     0.063 C 
HETATM    3  C3  UNL     1       6.713  -4.622  16.790  1.00  0.00     0.037 C 
HETATM    4  C4  UNL     1       5.854  -3.905  15.738  1.00  0.00     0.134 C 
HETATM    5  O2  UNL     1       4.813  -3.459  16.546  1.00  0.00    -0.355 OA
ENDROOT
BRANCH   1   6
HETATM    6  O1  UNL     1       5.904  -1.535  16.896  1.00  0.00    -0.371 OA
ATOM      7  H1  UNL     1       6.841  -1.385  16.943  1.00  0.00     0.212 HD
ENDBRANCH   1   6
BRANCH   4   8
HETATM    8  C5  UNL     1       5.403  -4.973  14.768  1.00  0.00     0.117 C 
HETATM    9 BR1  UNL     1       3.519  -5.342  14.988  1.00  0.00    -0.094 Br
ENDBRANCH   4   8
TORSDOF 2
ENDMDL
MODEL 4
REMARK VINA RESULT: -4.316059581      1.508      1.743
REMARK  2 active torsions:
REMARK  status: ('A' for Active; 'I' for Inactive)
REMARK    1  A    between atoms: O1_1  and  C1_3 
REMARK    2  A    between atoms: C4_6  and  C5_7 
ROOT
HETATM    1  C1  UNL     1       4.219  -2.471  15.885  1.00  0.00     0.257 C 
HETATM    2  C2  UNL     1       5.271  -3.115  16.752  1.00  0.00     0.063 C 
HETATM    3  C3  UNL     1       5.603  -4.371  15.974  1.00  0.00     0.037 C 
HETATM    4  C4  UNL     1       5.059  -3.980  14.593  1.00  0.00     0.134 C 
HETATM    5  O2  UNL     1       3.822  -3.462  14.965  1.00  0.00    -0.355 OA
ENDROOT
BRANCH   1   6
HETATM    6  O1  UNL     1       4.725  -1.419  15.134  1.00  0.00    -0.371 OA
ATOM      7  H1  UNL     1       4.067  -0.760  14.947  1.00  0.00     0.212 HD
ENDBRANCH   1   6
BRANCH   4   8
HETATM    8  C5  UNL     1       4.925  -5.270  13.815  1.00  0.00     0.117 C 
HETATM    9 BR1  UNL     1       5.857  -6.706  14.710  1.00  0.00    -0.094 Br
ENDBRANCH   4   8
TORSDOF 2
ENDMDL
MODEL 5
REMARK VINA RESULT: -4.303785173      1.607      2.380
REMARK  2 active torsions:
REMARK  status: ('A' for Active; 'I' for Inactive)
REMARK    1  A    between atoms: O1_1  and  C1_3 
REMARK    2  A    between atoms: C4_6  and  C5_7 
ROOT
HETATM    1  C1  UNL     1       4.600  -2.163  15.272  1.00  0.00     0.257 C 
HETATM    2  C2  UNL     1       4.182  -2.989  14.083  1.00  0.00     0.063 C 
HETATM    3  C3  UNL     1       4.994  -4.254  14.269  1.00  0.00     0.037 C 
HETATM    4  C4  UNL     1       5.343  -4.128  15.759  1.00  0.00     0.134 C 
HETATM    5  O2  UNL     1       5.745  -2.796  15.795  1.00  0.00    -0.355 OA
ENDROOT
BRANCH   1   6
HETATM    6  O1  UNL     1       3.650  -2.174  16.283  1.00  0.00    -0.371 OA
ATOM      7  H1  UNL     1       3.998  -1.860  17.109  1.00  0.00     0.212 HD
ENDBRANCH   1   6
BRANCH   4   8
HETATM    8  C5  UNL     1       6.496  -5.076  16.000  1.00  0.00     0.117 C 
HETATM    9 BR1  UNL     1       6.189  -6.764  15.111  1.00  0.00    -0.094 Br
ENDBRANCH   4   8
TORSDOF 2
ENDMDL
