MODEL 1
REMARK VINA RESULT: -8.300726225      0.000      0.000
REMARK  10 active torsions:
REMARK  status: ('A' for Active; 'I' for Inactive)
REMARK    1  A    between atoms: C4_4  and  C5_5 
REMARK    2  A    between atoms: C7_9  and  N2_10 
REMARK    3  A    between atoms: C8_13  and  N3_14 
REMARK    4  A    between atoms: N3_14  and  C9_15 
REMARK    5  A    between atoms: C9_15  and  O1_16 
REMARK    6  A    between atoms: C9_15  and  N4_18 
REMARK    7  A    between atoms: N4_18  and  C10_19 
REMARK    8  A    between atoms: C12_22  and  O3_23 
REMARK    9  A    between atoms: C20_36  and  C21_37 
REMARK   10  A    between atoms: C24_40  and  N6_41 
ROOT
HETATM    1  C10 UNL     1     -24.192  34.777  -5.539  1.00  0.00     0.350 C 
HETATM    2  O2  UNL     1     -25.016  33.719  -6.044  1.00  0.00    -0.304 OA
HETATM    3  C11 UNL     1     -26.165  33.703  -6.808  1.00  0.00     0.146 A 
HETATM    4  C12 UNL     1     -26.499  32.480  -7.352  1.00  0.00     0.117 A 
HETATM    5  C13 UNL     1     -27.623  32.329  -8.133  1.00  0.00     0.131 A 
HETATM    6  N5  UNL     1     -28.403  33.399  -8.361  1.00  0.00    -0.328 N 
ATOM      7  H5  UNL     1     -29.238  33.295  -8.937  1.00  0.00     0.168 HD
HETATM    8  C14 UNL     1     -28.106  34.601  -7.846  1.00  0.00     0.282 A 
HETATM    9  O4  UNL     1     -28.854  35.614  -8.066  1.00  0.00    -0.265 OA
HETATM   10  C15 UNL     1     -26.994  34.787  -7.065  1.00  0.00     0.180 A 
HETATM   11  O5  UNL     1     -26.825  36.117  -6.600  1.00  0.00    -0.301 OA
HETATM   12  C16 UNL     1     -26.231  36.423  -5.352  1.00  0.00     0.089 A 
HETATM   13  C17 UNL     1     -26.924  37.380  -4.624  1.00  0.00     0.038 A 
HETATM   14  C18 UNL     1     -26.445  37.754  -3.391  1.00  0.00     0.004 A 
HETATM   15  C19 UNL     1     -25.307  37.164  -2.947  1.00  0.00     0.013 A 
HETATM   16  C20 UNL     1     -24.584  36.195  -3.664  1.00  0.00    -0.011 A 
HETATM   17  C27 UNL     1     -25.073  35.817  -4.911  1.00  0.00     0.049 A 
ENDROOT
BRANCH   1  18
HETATM   18  N4  UNL     1     -23.232  35.184  -6.442  1.00  0.00    -0.359 NA
BRANCH  18  19
HETATM   19  C9  UNL     1     -22.276  35.590  -7.341  1.00  0.00     0.376 C 
BRANCH  19  20
HETATM   20  N3  UNL     1     -20.954  35.395  -7.185  1.00  0.00    -0.331 NA
BRANCH  20  21
HETATM   21  C8  UNL     1     -19.834  35.222  -6.930  1.00  0.00     0.229 A 
HETATM   22  C7  UNL     1     -18.800  35.857  -7.671  1.00  0.00     0.158 A 
HETATM   23  N1  UNL     1     -17.508  35.694  -7.414  1.00  0.00    -0.346 N 
HETATM   24  C6  UNL     1     -17.126  34.893  -6.404  1.00  0.00     0.122 A 
ATOM     25  H1  UNL     1     -16.809  36.175  -7.979  1.00  0.00     0.167 HD
HETATM   26  C5  UNL     1     -18.081  34.244  -5.642  1.00  0.00     0.086 A 
HETATM   27  N7  UNL     1     -19.366  34.418  -5.915  1.00  0.00    -0.324 N 
ATOM     28  H7  UNL     1     -20.050  33.926  -5.338  1.00  0.00     0.169 HD
BRANCH  22  29
HETATM   29  N2  UNL     1     -19.183  36.628  -8.629  1.00  0.00    -0.381 N 
ATOM     30  H22 UNL     1     -18.897  37.604  -8.559  1.00  0.00     0.157 HD
ATOM     31  H21 UNL     1     -19.733  36.256  -9.403  1.00  0.00     0.157 HD
ENDBRANCH  22  29
BRANCH  26  32
HETATM   32  C4  UNL     1     -17.619  33.388  -4.536  1.00  0.00     0.128 A 
HETATM   33  C3  UNL     1     -17.599  32.001  -4.552  1.00  0.00     0.068 A 
HETATM   34  C2  UNL     1     -17.101  31.601  -3.339  1.00  0.00     0.031 A 
HETATM   35  C1  UNL     1     -16.865  30.240  -2.821  1.00  0.00     0.070 C 
HETATM   36  N8  UNL     1     -16.842  32.758  -2.643  1.00  0.00    -0.265 N 
HETATM   37  O8  UNL     1     -17.164  33.774  -3.395  1.00  0.00    -0.235 OA
ATOM     38  H8  UNL     1     -16.461  32.813  -1.699  1.00  0.00     0.194 HD
ENDBRANCH  26  32
ENDBRANCH  20  21
ENDBRANCH  19  20
BRANCH  19  39
HETATM   39  O1  UNL     1     -22.598  36.222  -8.444  1.00  0.00    -0.310 OA
ATOM     40  H1  UNL     1     -23.534  36.306  -8.585  1.00  0.00     0.223 HD
ENDBRANCH  19  39
ENDBRANCH  18  19
ENDBRANCH   1  18
BRANCH  16  41
HETATM   41  C21 UNL     1     -23.363  35.651  -3.099  1.00  0.00    -0.025 A 
HETATM   42  C22 UNL     1     -22.162  36.308  -3.290  1.00  0.00     0.014 A 
HETATM   43  C23 UNL     1     -20.969  35.804  -2.749  1.00  0.00     0.037 A 
HETATM   44  C24 UNL     1     -20.958  34.643  -2.014  1.00  0.00     0.102 A 
HETATM   45  C25 UNL     1     -22.159  33.986  -1.826  1.00  0.00     0.037 A 
HETATM   46  C26 UNL     1     -23.315  34.489  -2.359  1.00  0.00     0.014 A 
BRANCH  44  47
HETATM   47  N6  UNL     1     -19.754  34.120  -1.430  1.00  0.00    -0.116 N 
HETATM   48  O6  UNL     1     -19.600  32.889  -1.353  1.00  0.00    -0.532 OA
HETATM   49  O7  UNL     1     -18.764  34.931  -0.951  1.00  0.00    -0.532 OA
ENDBRANCH  44  47
ENDBRANCH  16  41
BRANCH   4  50
HETATM   50  O3  UNL     1     -25.708  31.365  -7.127  1.00  0.00    -0.357 OA
ATOM     51  H3  UNL     1     -26.073  30.490  -7.185  1.00  0.00     0.218 HD
ENDBRANCH   4  50
TORSDOF 10
ENDMDL
MODEL 2
REMARK VINA RESULT: -7.938722773      2.555      5.557
REMARK  10 active torsions:
REMARK  status: ('A' for Active; 'I' for Inactive)
REMARK    1  A    between atoms: C4_4  and  C5_5 
REMARK    2  A    between atoms: C7_9  and  N2_10 
REMARK    3  A    between atoms: C8_13  and  N3_14 
REMARK    4  A    between atoms: N3_14  and  C9_15 
REMARK    5  A    between atoms: C9_15  and  O1_16 
REMARK    6  A    between atoms: C9_15  and  N4_18 
REMARK    7  A    between atoms: N4_18  and  C10_19 
REMARK    8  A    between atoms: C12_22  and  O3_23 
REMARK    9  A    between atoms: C20_36  and  C21_37 
REMARK   10  A    between atoms: C24_40  and  N6_41 
ROOT
HETATM    1  C10 UNL     1     -23.206  34.881  -6.799  1.00  0.00     0.350 C 
HETATM    2  O2  UNL     1     -23.054  35.915  -7.779  1.00  0.00    -0.304 OA
HETATM    3  C11 UNL     1     -22.536  37.194  -7.728  1.00  0.00     0.146 A 
HETATM    4  C12 UNL     1     -22.282  37.780  -8.950  1.00  0.00     0.117 A 
HETATM    5  C13 UNL     1     -21.766  39.054  -9.037  1.00  0.00     0.131 A 
HETATM    6  N5  UNL     1     -21.510  39.729  -7.904  1.00  0.00    -0.328 N 
ATOM      7  H5  UNL     1     -21.129  40.673  -7.960  1.00  0.00     0.168 HD
HETATM    8  C14 UNL     1     -21.746  39.187  -6.700  1.00  0.00     0.282 A 
HETATM    9  O4  UNL     1     -21.502  39.836  -5.627  1.00  0.00    -0.265 OA
HETATM   10  C15 UNL     1     -22.259  37.920  -6.578  1.00  0.00     0.180 A 
HETATM   11  O5  UNL     1     -22.449  37.497  -5.236  1.00  0.00    -0.301 OA
HETATM   12  C16 UNL     1     -23.491  36.620  -4.850  1.00  0.00     0.089 A 
HETATM   13  C17 UNL     1     -24.163  37.022  -3.704  1.00  0.00     0.038 A 
HETATM   14  C18 UNL     1     -25.201  36.251  -3.236  1.00  0.00     0.004 A 
HETATM   15  C19 UNL     1     -25.515  35.125  -3.924  1.00  0.00     0.013 A 
HETATM   16  C20 UNL     1     -24.850  34.693  -5.085  1.00  0.00    -0.011 A 
HETATM   17  C27 UNL     1     -23.802  35.476  -5.557  1.00  0.00     0.049 A 
ENDROOT
BRANCH   1  18
HETATM   18  N4  UNL     1     -22.081  34.092  -6.677  1.00  0.00    -0.359 NA
BRANCH  18  19
HETATM   19  C9  UNL     1     -20.960  33.306  -6.555  1.00  0.00     0.376 C 
BRANCH  19  20
HETATM   20  N3  UNL     1     -20.114  33.347  -5.510  1.00  0.00    -0.331 NA
BRANCH  20  21
HETATM   21  C8  UNL     1     -19.480  33.361  -4.537  1.00  0.00     0.229 A 
HETATM   22  C7  UNL     1     -19.756  34.278  -3.486  1.00  0.00     0.158 A 
HETATM   23  N1  UNL     1     -19.064  34.327  -2.355  1.00  0.00    -0.346 N 
HETATM   24  C6  UNL     1     -18.041  33.476  -2.163  1.00  0.00     0.122 A 
ATOM     25  H1  UNL     1     -19.307  35.007  -1.635  1.00  0.00     0.167 HD
HETATM   26  C5  UNL     1     -17.718  32.556  -3.144  1.00  0.00     0.086 A 
HETATM   27  N7  UNL     1     -18.420  32.523  -4.269  1.00  0.00    -0.324 N 
ATOM     28  H7  UNL     1     -18.160  31.836  -4.977  1.00  0.00     0.169 HD
BRANCH  22  29
HETATM   29  N2  UNL     1     -20.744  35.080  -3.682  1.00  0.00    -0.381 N 
ATOM     30  H22 UNL     1     -20.833  35.851  -3.020  1.00  0.00     0.157 HD
ATOM     31  H21 UNL     1     -21.382  34.934  -4.465  1.00  0.00     0.157 HD
ENDBRANCH  22  29
BRANCH  26  32
HETATM   32  C4  UNL     1     -16.600  31.632  -2.887  1.00  0.00     0.128 A 
HETATM   33  C3  UNL     1     -16.665  30.250  -2.988  1.00  0.00     0.068 A 
HETATM   34  C2  UNL     1     -15.418  29.775  -2.669  1.00  0.00     0.031 A 
HETATM   35  C1  UNL     1     -14.927  28.385  -2.616  1.00  0.00     0.070 C 
HETATM   36  N8  UNL     1     -14.657  30.884  -2.390  1.00  0.00    -0.265 N 
HETATM   37  O8  UNL     1     -15.402  31.945  -2.535  1.00  0.00    -0.235 OA
ATOM     38  H8  UNL     1     -13.674  30.880  -2.117  1.00  0.00     0.194 HD
ENDBRANCH  26  32
ENDBRANCH  20  21
ENDBRANCH  19  20
BRANCH  19  39
HETATM   39  O1  UNL     1     -20.625  32.442  -7.483  1.00  0.00    -0.310 OA
ATOM     40  H1  UNL     1     -21.170  31.664  -7.503  1.00  0.00     0.223 HD
ENDBRANCH  19  39
ENDBRANCH  18  19
ENDBRANCH   1  18
BRANCH  16  41
HETATM   41  C21 UNL     1     -25.258  33.456  -5.723  1.00  0.00    -0.025 A 
HETATM   42  C22 UNL     1     -26.181  33.481  -6.751  1.00  0.00     0.014 A 
HETATM   43  C23 UNL     1     -26.587  32.297  -7.387  1.00  0.00     0.037 A 
HETATM   44  C24 UNL     1     -26.081  31.078  -7.007  1.00  0.00     0.102 A 
HETATM   45  C25 UNL     1     -25.160  31.053  -5.976  1.00  0.00     0.037 A 
HETATM   46  C26 UNL     1     -24.772  32.216  -5.366  1.00  0.00     0.014 A 
BRANCH  44  47
HETATM   47  N6  UNL     1     -26.462  29.855  -7.657  1.00  0.00    -0.116 N 
HETATM   48  O6  UNL     1     -27.575  29.777  -8.203  1.00  0.00    -0.532 OA
HETATM   49  O7  UNL     1     -25.641  28.764  -7.695  1.00  0.00    -0.532 OA
ENDBRANCH  44  47
ENDBRANCH  16  41
BRANCH   4  50
HETATM   50  O3  UNL     1     -22.540  37.100 -10.130  1.00  0.00    -0.357 OA
ATOM     51  H3  UNL     1     -22.868  36.209 -10.115  1.00  0.00     0.218 HD
ENDBRANCH   4  50
TORSDOF 10
ENDMDL
MODEL 3
REMARK VINA RESULT: -7.886355766      3.713      7.485
REMARK  10 active torsions:
REMARK  status: ('A' for Active; 'I' for Inactive)
REMARK    1  A    between atoms: C4_4  and  C5_5 
REMARK    2  A    between atoms: C7_9  and  N2_10 
REMARK    3  A    between atoms: C8_13  and  N3_14 
REMARK    4  A    between atoms: N3_14  and  C9_15 
REMARK    5  A    between atoms: C9_15  and  O1_16 
REMARK    6  A    between atoms: C9_15  and  N4_18 
REMARK    7  A    between atoms: N4_18  and  C10_19 
REMARK    8  A    between atoms: C12_22  and  O3_23 
REMARK    9  A    between atoms: C20_36  and  C21_37 
REMARK   10  A    between atoms: C24_40  and  N6_41 
ROOT
HETATM    1  C10 UNL     1     -23.723  35.283  -6.392  1.00  0.00     0.350 C 
HETATM    2  O2  UNL     1     -23.752  36.668  -6.756  1.00  0.00    -0.304 OA
HETATM    3  C11 UNL     1     -23.234  37.373  -7.825  1.00  0.00     0.146 A 
HETATM    4  C12 UNL     1     -23.730  38.649  -7.990  1.00  0.00     0.117 A 
HETATM    5  C13 UNL     1     -23.294  39.457  -9.017  1.00  0.00     0.131 A 
HETATM    6  N5  UNL     1     -22.368  38.983  -9.867  1.00  0.00    -0.328 N 
ATOM      7  H5  UNL     1     -22.040  39.575 -10.629  1.00  0.00     0.168 HD
HETATM    8  C14 UNL     1     -21.867  37.746  -9.734  1.00  0.00     0.282 A 
HETATM    9  O4  UNL     1     -20.986  37.302 -10.546  1.00  0.00    -0.265 OA
HETATM   10  C15 UNL     1     -22.279  36.915  -8.723  1.00  0.00     0.180 A 
HETATM   11  O5  UNL     1     -21.651  35.642  -8.724  1.00  0.00    -0.301 OA
HETATM   12  C16 UNL     1     -21.387  34.918  -7.537  1.00  0.00     0.089 A 
HETATM   13  C17 UNL     1     -20.111  34.373  -7.489  1.00  0.00     0.038 A 
HETATM   14  C18 UNL     1     -19.736  33.652  -6.379  1.00  0.00     0.004 A 
HETATM   15  C19 UNL     1     -20.644  33.508  -5.381  1.00  0.00     0.013 A 
HETATM   16  C20 UNL     1     -21.942  34.047  -5.404  1.00  0.00    -0.011 A 
HETATM   17  C27 UNL     1     -22.317  34.777  -6.527  1.00  0.00     0.049 A 
ENDROOT
BRANCH   1  18
HETATM   18  N4  UNL     1     -24.744  34.557  -6.971  1.00  0.00    -0.359 NA
BRANCH  18  19
HETATM   19  C9  UNL     1     -25.760  33.835  -7.548  1.00  0.00     0.376 C 
BRANCH  19  20
HETATM   20  N3  UNL     1     -26.441  32.854  -6.929  1.00  0.00    -0.331 NA
BRANCH  20  21
HETATM   21  C8  UNL     1     -27.128  32.053  -6.444  1.00  0.00     0.229 A 
HETATM   22  C7  UNL     1     -28.545  32.155  -6.511  1.00  0.00     0.158 A 
HETATM   23  N1  UNL     1     -29.370  31.263  -5.978  1.00  0.00    -0.346 N 
HETATM   24  C6  UNL     1     -28.869  30.194  -5.334  1.00  0.00     0.122 A 
ATOM     25  H1  UNL     1     -30.379  31.387  -6.057  1.00  0.00     0.167 HD
HETATM   26  C5  UNL     1     -27.499  30.032  -5.231  1.00  0.00     0.086 A 
HETATM   27  N7  UNL     1     -26.691  30.935  -5.769  1.00  0.00    -0.324 N 
ATOM     28  H7  UNL     1     -25.684  30.793  -5.678  1.00  0.00     0.169 HD
BRANCH  22  29
HETATM   29  N2  UNL     1     -29.008  33.179  -7.139  1.00  0.00    -0.381 N 
ATOM     30  H22 UNL     1     -29.272  33.026  -8.112  1.00  0.00     0.157 HD
ATOM     31  H21 UNL     1     -29.101  34.078  -6.665  1.00  0.00     0.157 HD
ENDBRANCH  22  29
BRANCH  26  32
HETATM   32  C4  UNL     1     -26.993  28.840  -4.530  1.00  0.00     0.128 A 
HETATM   33  C3  UNL     1     -27.614  27.599  -4.511  1.00  0.00     0.068 A 
HETATM   34  C2  UNL     1     -26.821  26.775  -3.755  1.00  0.00     0.031 A 
HETATM   35  C1  UNL     1     -27.004  25.353  -3.407  1.00  0.00     0.070 C 
HETATM   36  N8  UNL     1     -25.760  27.549  -3.350  1.00  0.00    -0.265 N 
HETATM   37  O8  UNL     1     -25.914  28.750  -3.835  1.00  0.00    -0.235 OA
ATOM     38  H8  UNL     1     -24.982  27.237  -2.769  1.00  0.00     0.194 HD
ENDBRANCH  26  32
ENDBRANCH  20  21
ENDBRANCH  19  20
BRANCH  19  39
HETATM   39  O1  UNL     1     -26.143  34.057  -8.783  1.00  0.00    -0.310 OA
ATOM     40  H1  UNL     1     -26.497  34.926  -8.930  1.00  0.00     0.223 HD
ENDBRANCH  19  39
ENDBRANCH  18  19
ENDBRANCH   1  18
BRANCH  16  41
HETATM   41  C21 UNL     1     -22.836  33.805  -4.287  1.00  0.00    -0.025 A 
HETATM   42  C22 UNL     1     -22.780  34.618  -3.170  1.00  0.00     0.014 A 
HETATM   43  C23 UNL     1     -23.639  34.406  -2.080  1.00  0.00     0.037 A 
HETATM   44  C24 UNL     1     -24.558  33.386  -2.088  1.00  0.00     0.102 A 
HETATM   45  C25 UNL     1     -24.611  32.572  -3.204  1.00  0.00     0.037 A 
HETATM   46  C26 UNL     1     -23.768  32.790  -4.261  1.00  0.00     0.014 A 
BRANCH  44  47
HETATM   47  N6  UNL     1     -25.463  33.163  -0.995  1.00  0.00    -0.116 N 
HETATM   48  O6  UNL     1     -25.846  32.008  -0.747  1.00  0.00    -0.532 OA
HETATM   49  O7  UNL     1     -25.923  34.184  -0.211  1.00  0.00    -0.532 OA
ENDBRANCH  44  47
ENDBRANCH  16  41
BRANCH   4  50
HETATM   50  O3  UNL     1     -24.683  39.157  -7.122  1.00  0.00    -0.357 OA
ATOM     51  H3  UNL     1     -24.823  40.094  -7.047  1.00  0.00     0.218 HD
ENDBRANCH   4  50
TORSDOF 10
ENDMDL
MODEL 4
REMARK VINA RESULT: -7.849223578      2.890      5.584
REMARK  10 active torsions:
REMARK  status: ('A' for Active; 'I' for Inactive)
REMARK    1  A    between atoms: C4_4  and  C5_5 
REMARK    2  A    between atoms: C7_9  and  N2_10 
REMARK    3  A    between atoms: C8_13  and  N3_14 
REMARK    4  A    between atoms: N3_14  and  C9_15 
REMARK    5  A    between atoms: C9_15  and  O1_16 
REMARK    6  A    between atoms: C9_15  and  N4_18 
REMARK    7  A    between atoms: N4_18  and  C10_19 
REMARK    8  A    between atoms: C12_22  and  O3_23 
REMARK    9  A    between atoms: C20_36  and  C21_37 
REMARK   10  A    between atoms: C24_40  and  N6_41 
ROOT
HETATM    1  C10 UNL     1     -22.310  33.080  -4.554  1.00  0.00     0.350 C 
HETATM    2  O2  UNL     1     -23.439  32.202  -4.646  1.00  0.00    -0.304 OA
HETATM    3  C11 UNL     1     -24.793  32.422  -4.803  1.00  0.00     0.146 A 
HETATM    4  C12 UNL     1     -25.536  31.314  -5.157  1.00  0.00     0.117 A 
HETATM    5  C13 UNL     1     -26.898  31.399  -5.343  1.00  0.00     0.131 A 
HETATM    6  N5  UNL     1     -27.504  32.586  -5.173  1.00  0.00    -0.328 N 
ATOM      7  H5  UNL     1     -28.512  32.656  -5.308  1.00  0.00     0.168 HD
HETATM    8  C14 UNL     1     -26.809  33.680  -4.830  1.00  0.00     0.282 A 
HETATM    9  O4  UNL     1     -27.393  34.806  -4.670  1.00  0.00    -0.265 OA
HETATM   10  C15 UNL     1     -25.452  33.632  -4.638  1.00  0.00     0.180 A 
HETATM   11  O5  UNL     1     -24.871  34.876  -4.279  1.00  0.00    -0.301 OA
HETATM   12  C16 UNL     1     -23.740  34.978  -3.433  1.00  0.00     0.089 A 
HETATM   13  C17 UNL     1     -23.863  35.954  -2.454  1.00  0.00     0.038 A 
HETATM   14  C18 UNL     1     -22.828  36.141  -1.568  1.00  0.00     0.004 A 
HETATM   15  C19 UNL     1     -21.730  35.355  -1.700  1.00  0.00     0.013 A 
HETATM   16  C20 UNL     1     -21.579  34.361  -2.683  1.00  0.00    -0.011 A 
HETATM   17  C27 UNL     1     -22.628  34.174  -3.577  1.00  0.00     0.049 A 
ENDROOT
BRANCH   1  18
HETATM   18  N4  UNL     1     -21.800  33.426  -5.788  1.00  0.00    -0.359 NA
BRANCH  18  19
HETATM   19  C9  UNL     1     -21.292  33.771  -7.017  1.00  0.00     0.376 C 
BRANCH  19  20
HETATM   20  N3  UNL     1     -21.538  34.938  -7.640  1.00  0.00    -0.331 NA
BRANCH  20  21
HETATM   21  C8  UNL     1     -21.826  35.970  -8.087  1.00  0.00     0.229 A 
HETATM   22  C7  UNL     1     -23.083  36.573  -7.809  1.00  0.00     0.158 A 
HETATM   23  N1  UNL     1     -23.454  37.752  -8.292  1.00  0.00    -0.346 N 
HETATM   24  C6  UNL     1     -22.617  38.438  -9.089  1.00  0.00     0.122 A 
ATOM     25  H1  UNL     1     -24.369  38.136  -8.059  1.00  0.00     0.167 HD
HETATM   26  C5  UNL     1     -21.376  37.910  -9.401  1.00  0.00     0.086 A 
HETATM   27  N7  UNL     1     -21.024  36.730  -8.910  1.00  0.00    -0.324 N 
ATOM     28  H7  UNL     1     -20.104  36.363  -9.157  1.00  0.00     0.169 HD
BRANCH  22  29
HETATM   29  N2  UNL     1     -23.870  35.907  -7.037  1.00  0.00    -0.381 N 
ATOM     30  H22 UNL     1     -24.772  36.339  -6.837  1.00  0.00     0.157 HD
ATOM     31  H21 UNL     1     -23.585  35.000  -6.667  1.00  0.00     0.157 HD
ENDBRANCH  22  29
BRANCH  26  32
HETATM   32  C4  UNL     1     -20.484  38.702 -10.265  1.00  0.00     0.128 A 
HETATM   33  C3  UNL     1     -20.837  39.253 -11.489  1.00  0.00     0.068 A 
HETATM   34  C2  UNL     1     -19.727  39.906 -11.959  1.00  0.00     0.031 A 
HETATM   35  C1  UNL     1     -19.542  40.664 -13.211  1.00  0.00     0.070 C 
HETATM   36  N8  UNL     1     -18.754  39.723 -11.005  1.00  0.00    -0.265 N 
HETATM   37  O8  UNL     1     -19.256  39.010 -10.035  1.00  0.00    -0.235 OA
ATOM     38  H8  UNL     1     -17.802  40.084 -11.048  1.00  0.00     0.194 HD
ENDBRANCH  26  32
ENDBRANCH  20  21
ENDBRANCH  19  20
BRANCH  19  39
HETATM   39  O1  UNL     1     -20.515  32.957  -7.690  1.00  0.00    -0.310 OA
ATOM     40  H1  UNL     1     -20.958  32.479  -8.381  1.00  0.00     0.223 HD
ENDBRANCH  19  39
ENDBRANCH  18  19
ENDBRANCH   1  18
BRANCH  16  41
HETATM   41  C21 UNL     1     -20.346  33.599  -2.744  1.00  0.00    -0.025 A 
HETATM   42  C22 UNL     1     -19.905  32.909  -1.631  1.00  0.00     0.014 A 
HETATM   43  C23 UNL     1     -18.718  32.160  -1.668  1.00  0.00     0.037 A 
HETATM   44  C24 UNL     1     -17.959  32.090  -2.810  1.00  0.00     0.102 A 
HETATM   45  C25 UNL     1     -18.399  32.782  -3.923  1.00  0.00     0.037 A 
HETATM   46  C26 UNL     1     -19.559  33.508  -3.872  1.00  0.00     0.014 A 
BRANCH  44  47
HETATM   47  N6  UNL     1     -16.753  31.312  -2.880  1.00  0.00    -0.116 N 
HETATM   48  O6  UNL     1     -15.673  31.832  -2.552  1.00  0.00    -0.532 OA
HETATM   49  O7  UNL     1     -16.749  30.012  -3.299  1.00  0.00    -0.532 OA
ENDBRANCH  44  47
ENDBRANCH  16  41
BRANCH   4  50
HETATM   50  O3  UNL     1     -24.930  30.081  -5.334  1.00  0.00    -0.357 OA
ATOM     51  H3  UNL     1     -24.446  29.887  -6.129  1.00  0.00     0.218 HD
ENDBRANCH   4  50
TORSDOF 10
ENDMDL
MODEL 5
REMARK VINA RESULT: -7.770034135      3.721      7.344
REMARK  10 active torsions:
REMARK  status: ('A' for Active; 'I' for Inactive)
REMARK    1  A    between atoms: C4_4  and  C5_5 
REMARK    2  A    between atoms: C7_9  and  N2_10 
REMARK    3  A    between atoms: C8_13  and  N3_14 
REMARK    4  A    between atoms: N3_14  and  C9_15 
REMARK    5  A    between atoms: C9_15  and  O1_16 
REMARK    6  A    between atoms: C9_15  and  N4_18 
REMARK    7  A    between atoms: N4_18  and  C10_19 
REMARK    8  A    between atoms: C12_22  and  O3_23 
REMARK    9  A    between atoms: C20_36  and  C21_37 
REMARK   10  A    between atoms: C24_40  and  N6_41 
ROOT
HETATM    1  C10 UNL     1     -23.631  35.454  -6.518  1.00  0.00     0.350 C 
HETATM    2  O2  UNL     1     -23.641  36.854  -6.825  1.00  0.00    -0.304 OA
HETATM    3  C11 UNL     1     -23.118  37.593  -7.867  1.00  0.00     0.146 A 
HETATM    4  C12 UNL     1     -23.595  38.883  -7.976  1.00  0.00     0.117 A 
HETATM    5  C13 UNL     1     -23.152  39.726  -8.972  1.00  0.00     0.131 A 
HETATM    6  N5  UNL     1     -22.238  39.273  -9.846  1.00  0.00    -0.328 N 
ATOM      7  H5  UNL     1     -21.904  39.892 -10.585  1.00  0.00     0.168 HD
HETATM    8  C14 UNL     1     -21.755  38.025  -9.766  1.00  0.00     0.282 A 
HETATM    9  O4  UNL     1     -20.884  37.602 -10.601  1.00  0.00    -0.265 OA
HETATM   10  C15 UNL     1     -22.174  37.159  -8.788  1.00  0.00     0.180 A 
HETATM   11  O5  UNL     1     -21.565  35.879  -8.844  1.00  0.00    -0.301 OA
HETATM   12  C16 UNL     1     -21.306  35.102  -7.689  1.00  0.00     0.089 A 
HETATM   13  C17 UNL     1     -20.038  34.537  -7.671  1.00  0.00     0.038 A 
HETATM   14  C18 UNL     1     -19.669  33.766  -6.594  1.00  0.00     0.004 A 
HETATM   15  C19 UNL     1     -20.574  33.595  -5.597  1.00  0.00     0.013 A 
HETATM   16  C20 UNL     1     -21.864  34.153  -5.592  1.00  0.00    -0.011 A 
HETATM   17  C27 UNL     1     -22.233  34.933  -6.682  1.00  0.00     0.049 A 
ENDROOT
BRANCH   1  18
HETATM   18  N4  UNL     1     -24.665  34.768  -7.122  1.00  0.00    -0.359 NA
BRANCH  18  19
HETATM   19  C9  UNL     1     -25.694  34.085  -7.721  1.00  0.00     0.376 C 
BRANCH  19  20
HETATM   20  N3  UNL     1     -26.114  32.861  -7.349  1.00  0.00    -0.331 NA
BRANCH  20  21
HETATM   21  C8  UNL     1     -26.359  31.780  -7.005  1.00  0.00     0.229 A 
HETATM   22  C7  UNL     1     -27.338  31.523  -6.007  1.00  0.00     0.158 A 
HETATM   23  N1  UNL     1     -27.656  30.305  -5.587  1.00  0.00    -0.346 N 
HETATM   24  C6  UNL     1     -27.037  29.236  -6.116  1.00  0.00     0.122 A 
ATOM     25  H1  UNL     1     -28.367  30.181  -4.867  1.00  0.00     0.167 HD
HETATM   26  C5  UNL     1     -26.073  29.412  -7.093  1.00  0.00     0.086 A 
HETATM   27  N7  UNL     1     -25.768  30.637  -7.499  1.00  0.00    -0.324 N 
ATOM     28  H7  UNL     1     -25.053  30.739  -8.219  1.00  0.00     0.169 HD
BRANCH  22  29
HETATM   29  N2  UNL     1     -27.928  32.558  -5.516  1.00  0.00    -0.381 N 
ATOM     30  H22 UNL     1     -28.231  33.261  -6.190  1.00  0.00     0.157 HD
ATOM     31  H21 UNL     1     -28.076  32.640  -4.510  1.00  0.00     0.157 HD
ENDBRANCH  22  29
BRANCH  26  32
HETATM   32  C4  UNL     1     -25.431  28.213  -7.657  1.00  0.00     0.128 A 
HETATM   33  C3  UNL     1     -25.465  27.840  -8.993  1.00  0.00     0.068 A 
HETATM   34  C2  UNL     1     -24.748  26.675  -9.093  1.00  0.00     0.031 A 
HETATM   35  C1  UNL     1     -24.463  25.845 -10.279  1.00  0.00     0.070 C 
HETATM   36  N8  UNL     1     -24.313  26.395  -7.820  1.00  0.00    -0.265 N 
HETATM   37  O8  UNL     1     -24.743  27.331  -7.020  1.00  0.00    -0.235 OA
ATOM     38  H8  UNL     1     -23.749  25.590  -7.546  1.00  0.00     0.194 HD
ENDBRANCH  26  32
ENDBRANCH  20  21
ENDBRANCH  19  20
BRANCH  19  39
HETATM   39  O1  UNL     1     -26.355  34.592  -8.734  1.00  0.00    -0.310 OA
ATOM     40  H1  UNL     1     -25.944  34.445  -9.578  1.00  0.00     0.223 HD
ENDBRANCH  19  39
ENDBRANCH  18  19
ENDBRANCH   1  18
BRANCH  16  41
HETATM   41  C21 UNL     1     -22.756  33.878  -4.481  1.00  0.00    -0.025 A 
HETATM   42  C22 UNL     1     -22.676  34.636  -3.327  1.00  0.00     0.014 A 
HETATM   43  C23 UNL     1     -23.532  34.393  -2.242  1.00  0.00     0.037 A 
HETATM   44  C24 UNL     1     -24.473  33.394  -2.291  1.00  0.00     0.102 A 
HETATM   45  C25 UNL     1     -24.551  32.635  -3.443  1.00  0.00     0.037 A 
HETATM   46  C26 UNL     1     -23.710  32.884  -4.495  1.00  0.00     0.014 A 
BRANCH  44  47
HETATM   47  N6  UNL     1     -25.376  33.140  -1.203  1.00  0.00    -0.116 N 
HETATM   48  O6  UNL     1     -25.772  31.981  -0.998  1.00  0.00    -0.532 OA
HETATM   49  O7  UNL     1     -25.821  34.135  -0.378  1.00  0.00    -0.532 OA
ENDBRANCH  44  47
ENDBRANCH  16  41
BRANCH   4  50
HETATM   50  O3  UNL     1     -24.537  39.368  -7.084  1.00  0.00    -0.357 OA
ATOM     51  H3  UNL     1     -24.892  40.245  -7.180  1.00  0.00     0.218 HD
ENDBRANCH   4  50
TORSDOF 10
ENDMDL
