MODEL 1
REMARK VINA RESULT: -7.835751229      0.000      0.000
REMARK  6 active torsions:
REMARK  status: ('A' for Active; 'I' for Inactive)
REMARK       I    between atoms: N1_1  and  C1_5 
REMARK       I    between atoms: C1_5  and  N2_6 
REMARK       I    between atoms: C1_5  and  N3_10 
REMARK    1  A    between atoms: N3_10  and  C2_12 
REMARK    2  A    between atoms: C4_14  and  N4_15 
REMARK       I    between atoms: N4_15  and  C5_16 
REMARK       I    between atoms: C5_16  and  N5_18 
REMARK    3  A    between atoms: C10_26  and  C11_27 
REMARK    4  A    between atoms: C12_29  and  C13_30 
REMARK    5  A    between atoms: C16_33  and  N7_34 
REMARK    6  A    between atoms: C20_40  and  O5_41 
ROOT
HETATM    1  N4  UNL     1     -21.137  39.311 -11.335  1.00  0.00    -0.352 NA
HETATM    2  C5  UNL     1     -22.309  38.802 -10.898  1.00  0.00     0.396 C 
HETATM    3  O1  UNL     1     -23.334  38.485 -11.586  1.00  0.00    -0.230 OA
HETATM    4  N5  UNL     1     -22.535  38.539  -9.481  1.00  0.00    -0.318 N 
HETATM    5  C6  UNL     1     -21.442  38.877  -8.583  1.00  0.00     0.135 C 
HETATM    6  C7  UNL     1     -20.974  37.647  -7.851  1.00  0.00     0.077 C 
HETATM    7  C8  UNL     1     -22.097  36.782  -7.434  1.00  0.00     0.019 A 
HETATM    8  N6  UNL     1     -21.881  35.793  -6.519  1.00  0.00    -0.353 N 
ATOM      9  H6  UNL     1     -20.944  35.665  -6.137  1.00  0.00     0.166 HD
HETATM   10  C9  UNL     1     -22.884  34.969  -6.100  1.00  0.00     0.085 A 
HETATM   11  S1  UNL     1     -22.961  33.662  -4.997  1.00  0.00    -0.069 SA
HETATM   12  C10 UNL     1     -24.610  33.277  -5.143  1.00  0.00     0.044 A 
HETATM   13  C21 UNL     1     -25.061  34.189  -6.058  1.00  0.00     0.036 A 
HETATM   14  C22 UNL     1     -24.169  35.059  -6.549  1.00  0.00    -0.000 A 
HETATM   15  C23 UNL     1     -24.393  36.075  -7.489  1.00  0.00     0.025 A 
HETATM   16  C24 UNL     1     -23.366  36.890  -7.896  1.00  0.00    -0.017 A 
HETATM   17  C25 UNL     1     -23.693  37.964  -8.912  1.00  0.00     0.169 C 
ENDROOT
BRANCH   1  18
HETATM   18  C4  UNL     1     -19.954  39.824 -11.778  1.00  0.00     0.117 A 
HETATM   19  C3  UNL     1     -19.954  40.656 -12.917  1.00  0.00     0.093 A 
HETATM   20  C2  UNL     1     -18.840  41.255 -13.407  1.00  0.00     0.106 A 
HETATM   21  N8  UNL     1     -17.676  41.008 -12.722  1.00  0.00    -0.352 N 
HETATM   22  C27 UNL     1     -17.626  40.231 -11.640  1.00  0.00     0.093 A 
ATOM     23  H8  UNL     1     -16.814  41.439 -13.055  1.00  0.00     0.166 HD
HETATM   24  C26 UNL     1     -18.735  39.618 -11.133  1.00  0.00     0.062 A 
BRANCH  20  25
HETATM   25  N3  UNL     1     -18.780  42.022 -14.434  1.00  0.00    -0.327 N 
HETATM   26  C1  UNL     1     -19.264  43.343 -14.567  1.00  0.00     0.481 C 
HETATM   27  N1  UNL     1     -20.719  43.412 -14.670  1.00  0.00    -0.033 N 
HETATM   28  N2  UNL     1     -18.785  44.214 -13.544  1.00  0.00    -0.033 N 
ATOM     29  H13 UNL     1     -21.170  43.225 -13.775  1.00  0.00     0.278 HD
ATOM     30  H12 UNL     1     -21.041  44.370 -14.809  1.00  0.00     0.278 HD
ATOM     31  H11 UNL     1     -21.061  42.790 -15.402  1.00  0.00     0.278 HD
ATOM     32  H23 UNL     1     -19.107  45.172 -13.683  1.00  0.00     0.278 HD
ATOM     33  H22 UNL     1     -19.236  44.027 -12.649  1.00  0.00     0.278 HD
ATOM     34  H21 UNL     1     -17.768  44.166 -13.471  1.00  0.00     0.278 HD
ATOM     35  H3  UNL     1     -18.327  41.629 -15.258  1.00  0.00     0.164 HD
ENDBRANCH  20  25
ENDBRANCH   1  18
BRANCH  12  36
HETATM   36  C11 UNL     1     -25.399  32.218  -4.465  1.00  0.00     0.126 A 
HETATM   37  O2  UNL     1     -25.620  31.011  -4.887  1.00  0.00    -0.306 OA
HETATM   38  C12 UNL     1     -26.352  30.321  -4.060  1.00  0.00     0.089 A 
HETATM   39  C19 UNL     1     -26.661  31.124  -2.978  1.00  0.00     0.077 A 
HETATM   40  C20 UNL     1     -26.037  32.346  -3.257  1.00  0.00     0.103 A 
BRANCH  38  41
HETATM   41  C13 UNL     1     -26.807  28.944  -4.186  1.00  0.00    -0.002 A 
HETATM   42  C14 UNL     1     -26.333  27.966  -3.347  1.00  0.00     0.017 A 
HETATM   43  C15 UNL     1     -26.744  26.663  -3.451  1.00  0.00     0.037 A 
HETATM   44  C16 UNL     1     -27.653  26.293  -4.410  1.00  0.00     0.102 A 
HETATM   45  C17 UNL     1     -28.142  27.258  -5.264  1.00  0.00     0.037 A 
HETATM   46  C18 UNL     1     -27.719  28.583  -5.151  1.00  0.00     0.017 A 
BRANCH  44  47
HETATM   47  N7  UNL     1     -28.102  24.933  -4.539  1.00  0.00    -0.116 N 
HETATM   48  O3  UNL     1     -27.661  24.269  -5.516  1.00  0.00    -0.532 OA
HETATM   49  O4  UNL     1     -28.977  24.417  -3.624  1.00  0.00    -0.532 OA
ENDBRANCH  44  47
ENDBRANCH  38  41
BRANCH  40  50
HETATM   50  O5  UNL     1     -26.104  33.413  -2.420  1.00  0.00    -0.358 OA
ATOM     51  H5  UNL     1     -26.857  33.923  -2.147  1.00  0.00     0.217 HD
ENDBRANCH  40  50
ENDBRANCH  12  36
TORSDOF 6
ENDMDL
MODEL 2
REMARK VINA RESULT: -7.667697490      7.353     10.260
REMARK  6 active torsions:
REMARK  status: ('A' for Active; 'I' for Inactive)
REMARK       I    between atoms: N1_1  and  C1_5 
REMARK       I    between atoms: C1_5  and  N2_6 
REMARK       I    between atoms: C1_5  and  N3_10 
REMARK    1  A    between atoms: N3_10  and  C2_12 
REMARK    2  A    between atoms: C4_14  and  N4_15 
REMARK       I    between atoms: N4_15  and  C5_16 
REMARK       I    between atoms: C5_16  and  N5_18 
REMARK    3  A    between atoms: C10_26  and  C11_27 
REMARK    4  A    between atoms: C12_29  and  C13_30 
REMARK    5  A    between atoms: C16_33  and  N7_34 
REMARK    6  A    between atoms: C20_40  and  O5_41 
ROOT
HETATM    1  N4  UNL     1     -28.438  42.950  -7.664  1.00  0.00    -0.352 NA
HETATM    2  C5  UNL     1     -27.113  42.761  -7.844  1.00  0.00     0.396 C 
HETATM    3  O1  UNL     1     -26.162  43.575  -7.604  1.00  0.00    -0.230 OA
HETATM    4  N5  UNL     1     -26.596  41.502  -8.370  1.00  0.00    -0.318 N 
HETATM    5  C6  UNL     1     -27.587  40.492  -8.704  1.00  0.00     0.135 C 
HETATM    6  C7  UNL     1     -27.353  39.249  -7.886  1.00  0.00     0.077 C 
HETATM    7  C8  UNL     1     -25.917  38.929  -7.749  1.00  0.00     0.019 A 
HETATM    8  N6  UNL     1     -25.541  37.697  -7.299  1.00  0.00    -0.353 N 
ATOM      9  H6  UNL     1     -26.261  37.014  -7.061  1.00  0.00     0.166 HD
HETATM   10  C9  UNL     1     -24.229  37.353  -7.157  1.00  0.00     0.085 A 
HETATM   11  S1  UNL     1     -23.427  35.934  -6.632  1.00  0.00    -0.069 SA
HETATM   12  C10 UNL     1     -21.817  36.453  -6.799  1.00  0.00     0.044 A 
HETATM   13  C21 UNL     1     -21.950  37.731  -7.265  1.00  0.00     0.036 A 
HETATM   14  C22 UNL     1     -23.195  38.192  -7.448  1.00  0.00    -0.000 A 
HETATM   15  C23 UNL     1     -23.579  39.459  -7.912  1.00  0.00     0.025 A 
HETATM   16  C24 UNL     1     -24.907  39.782  -8.044  1.00  0.00    -0.017 A 
HETATM   17  C25 UNL     1     -25.236  41.169  -8.554  1.00  0.00     0.169 C 
ENDROOT
BRANCH   1  18
HETATM   18  C4  UNL     1     -29.775  43.143  -7.480  1.00  0.00     0.117 A 
HETATM   19  C3  UNL     1     -30.466  42.314  -6.571  1.00  0.00     0.093 A 
HETATM   20  C2  UNL     1     -31.783  42.456  -6.281  1.00  0.00     0.106 A 
HETATM   21  N8  UNL     1     -32.434  43.476  -6.930  1.00  0.00    -0.352 N 
HETATM   22  C27 UNL     1     -31.824  44.286  -7.796  1.00  0.00     0.093 A 
ATOM     23  H8  UNL     1     -33.425  43.620  -6.742  1.00  0.00     0.166 HD
HETATM   24  C26 UNL     1     -30.500  44.158  -8.103  1.00  0.00     0.062 A 
BRANCH  20  25
HETATM   25  N3  UNL     1     -32.462  41.737  -5.462  1.00  0.00    -0.327 N 
HETATM   26  C1  UNL     1     -32.383  41.709  -4.052  1.00  0.00     0.481 C 
HETATM   27  N1  UNL     1     -31.183  41.037  -3.559  1.00  0.00    -0.033 N 
HETATM   28  N2  UNL     1     -32.520  43.001  -3.463  1.00  0.00    -0.033 N 
ATOM     29  H13 UNL     1     -30.348  41.605  -3.699  1.00  0.00     0.278 HD
ATOM     30  H12 UNL     1     -31.170  40.990  -2.540  1.00  0.00     0.278 HD
ATOM     31  H11 UNL     1     -31.085  40.113  -3.980  1.00  0.00     0.278 HD
ATOM     32  H23 UNL     1     -32.507  42.954  -2.444  1.00  0.00     0.278 HD
ATOM     33  H22 UNL     1     -31.685  43.569  -3.603  1.00  0.00     0.278 HD
ATOM     34  H21 UNL     1     -33.358  43.470  -3.806  1.00  0.00     0.278 HD
ATOM     35  H3  UNL     1     -33.144  41.107  -5.883  1.00  0.00     0.164 HD
ENDBRANCH  20  25
ENDBRANCH   1  18
BRANCH  12  36
HETATM   36  C11 UNL     1     -20.553  35.726  -6.516  1.00  0.00     0.126 A 
HETATM   37  O2  UNL     1     -20.339  34.862  -5.571  1.00  0.00    -0.306 OA
HETATM   38  C12 UNL     1     -19.122  34.400  -5.587  1.00  0.00     0.089 A 
HETATM   39  C19 UNL     1     -18.442  34.999  -6.631  1.00  0.00     0.077 A 
HETATM   40  C20 UNL     1     -19.383  35.853  -7.220  1.00  0.00     0.103 A 
BRANCH  38  41
HETATM   41  C13 UNL     1     -18.512  33.425  -4.695  1.00  0.00    -0.002 A 
HETATM   42  C14 UNL     1     -17.629  32.489  -5.172  1.00  0.00     0.017 A 
HETATM   43  C15 UNL     1     -17.047  31.558  -4.351  1.00  0.00     0.037 A 
HETATM   44  C16 UNL     1     -17.335  31.536  -3.010  1.00  0.00     0.102 A 
HETATM   45  C17 UNL     1     -18.219  32.466  -2.508  1.00  0.00     0.037 A 
HETATM   46  C18 UNL     1     -18.807  33.411  -3.351  1.00  0.00     0.017 A 
BRANCH  44  47
HETATM   47  N7  UNL     1     -16.737  30.573  -2.126  1.00  0.00    -0.116 N 
HETATM   48  O3  UNL     1     -17.507  29.935  -1.358  1.00  0.00    -0.532 OA
HETATM   49  O4  UNL     1     -15.382  30.386  -2.140  1.00  0.00    -0.532 OA
ENDBRANCH  44  47
ENDBRANCH  38  41
BRANCH  40  50
HETATM   50  O5  UNL     1     -19.097  36.631  -8.295  1.00  0.00    -0.358 OA
ATOM     51  H5  UNL     1     -19.285  36.488  -9.215  1.00  0.00     0.217 HD
ENDBRANCH  40  50
ENDBRANCH  12  36
TORSDOF 6
ENDMDL
MODEL 3
REMARK VINA RESULT: -7.535960133      7.147      9.902
REMARK  6 active torsions:
REMARK  status: ('A' for Active; 'I' for Inactive)
REMARK       I    between atoms: N1_1  and  C1_5 
REMARK       I    between atoms: C1_5  and  N2_6 
REMARK       I    between atoms: C1_5  and  N3_10 
REMARK    1  A    between atoms: N3_10  and  C2_12 
REMARK    2  A    between atoms: C4_14  and  N4_15 
REMARK       I    between atoms: N4_15  and  C5_16 
REMARK       I    between atoms: C5_16  and  N5_18 
REMARK    3  A    between atoms: C10_26  and  C11_27 
REMARK    4  A    between atoms: C12_29  and  C13_30 
REMARK    5  A    between atoms: C16_33  and  N7_34 
REMARK    6  A    between atoms: C20_40  and  O5_41 
ROOT
HETATM    1  N4  UNL     1     -27.486  43.694  -8.134  1.00  0.00    -0.352 NA
HETATM    2  C5  UNL     1     -26.171  43.401  -8.231  1.00  0.00     0.396 C 
HETATM    3  O1  UNL     1     -25.177  44.133  -7.915  1.00  0.00    -0.230 OA
HETATM    4  N5  UNL     1     -25.722  42.111  -8.744  1.00  0.00    -0.318 N 
HETATM    5  C6  UNL     1     -26.767  41.188  -9.160  1.00  0.00     0.135 C 
HETATM    6  C7  UNL     1     -26.687  39.920  -8.351  1.00  0.00     0.077 C 
HETATM    7  C8  UNL     1     -25.294  39.484  -8.127  1.00  0.00     0.019 A 
HETATM    8  N6  UNL     1     -25.048  38.220  -7.675  1.00  0.00    -0.353 N 
ATOM      9  H6  UNL     1     -25.834  37.594  -7.497  1.00  0.00     0.166 HD
HETATM   10  C9  UNL     1     -23.780  37.769  -7.454  1.00  0.00     0.085 A 
HETATM   11  S1  UNL     1     -23.130  36.284  -6.903  1.00  0.00    -0.069 SA
HETATM   12  C10 UNL     1     -21.476  36.673  -6.955  1.00  0.00     0.044 A 
HETATM   13  C21 UNL     1     -21.476  37.964  -7.406  1.00  0.00     0.036 A 
HETATM   14  C22 UNL     1     -22.665  38.526  -7.661  1.00  0.00    -0.000 A 
HETATM   15  C23 UNL     1     -22.915  39.825  -8.127  1.00  0.00     0.025 A 
HETATM   16  C24 UNL     1     -24.201  40.256  -8.340  1.00  0.00    -0.017 A 
HETATM   17  C25 UNL     1     -24.384  41.672  -8.845  1.00  0.00     0.169 C 
ENDROOT
BRANCH   1  18
HETATM   18  C4  UNL     1     -28.813  43.991  -8.035  1.00  0.00     0.117 A 
HETATM   19  C3  UNL     1     -29.635  43.186  -7.218  1.00  0.00     0.093 A 
HETATM   20  C2  UNL     1     -30.953  43.427  -7.013  1.00  0.00     0.106 A 
HETATM   21  N8  UNL     1     -31.469  44.525  -7.655  1.00  0.00    -0.352 N 
HETATM   22  C27 UNL     1     -30.733  45.317  -8.436  1.00  0.00     0.093 A 
ATOM     23  H8  UNL     1     -32.457  44.745  -7.530  1.00  0.00     0.166 HD
HETATM   24  C26 UNL     1     -29.405  45.090  -8.656  1.00  0.00     0.062 A 
BRANCH  20  25
HETATM   25  N3  UNL     1     -31.747  42.733  -6.281  1.00  0.00    -0.327 N 
HETATM   26  C1  UNL     1     -31.958  42.831  -4.887  1.00  0.00     0.481 C 
HETATM   27  N1  UNL     1     -30.851  42.290  -4.101  1.00  0.00    -0.033 N 
HETATM   28  N2  UNL     1     -32.282  44.155  -4.466  1.00  0.00    -0.033 N 
ATOM     29  H13 UNL     1     -30.037  42.903  -4.126  1.00  0.00     0.278 HD
ATOM     30  H12 UNL     1     -31.045  42.331  -3.100  1.00  0.00     0.278 HD
ATOM     31  H11 UNL     1     -30.620  41.343  -4.402  1.00  0.00     0.278 HD
ATOM     32  H23 UNL     1     -32.475  44.196  -3.466  1.00  0.00     0.278 HD
ATOM     33  H22 UNL     1     -31.467  44.767  -4.492  1.00  0.00     0.278 HD
ATOM     34  H21 UNL     1     -33.054  44.532  -5.015  1.00  0.00     0.278 HD
ATOM     35  H3  UNL     1     -32.293  42.022  -6.765  1.00  0.00     0.164 HD
ENDBRANCH  20  25
ENDBRANCH   1  18
BRANCH  12  36
HETATM   36  C11 UNL     1     -20.296  35.843  -6.603  1.00  0.00     0.126 A 
HETATM   37  O2  UNL     1     -20.205  34.974  -5.643  1.00  0.00    -0.306 OA
HETATM   38  C12 UNL     1     -19.033  34.409  -5.594  1.00  0.00     0.089 A 
HETATM   39  C19 UNL     1     -18.252  34.936  -6.605  1.00  0.00     0.077 A 
HETATM   40  C20 UNL     1     -19.085  35.862  -7.248  1.00  0.00     0.103 A 
BRANCH  38  41
HETATM   41  C13 UNL     1     -18.555  33.395  -4.665  1.00  0.00    -0.002 A 
HETATM   42  C14 UNL     1     -18.977  33.382  -3.359  1.00  0.00     0.017 A 
HETATM   43  C15 UNL     1     -18.535  32.440  -2.466  1.00  0.00     0.037 A 
HETATM   44  C16 UNL     1     -17.647  31.470  -2.859  1.00  0.00     0.102 A 
HETATM   45  C17 UNL     1     -17.210  31.464  -4.165  1.00  0.00     0.037 A 
HETATM   46  C18 UNL     1     -17.665  32.427  -5.068  1.00  0.00     0.017 A 
BRANCH  44  47
HETATM   47  N7  UNL     1     -17.171  30.469  -1.943  1.00  0.00    -0.116 N 
HETATM   48  O3  UNL     1     -17.996  30.009  -1.109  1.00  0.00    -0.532 OA
HETATM   49  O4  UNL     1     -15.867  30.061  -2.001  1.00  0.00    -0.532 OA
ENDBRANCH  44  47
ENDBRANCH  38  41
BRANCH  40  50
HETATM   50  O5  UNL     1     -18.679  36.600  -8.312  1.00  0.00    -0.358 OA
ATOM     51  H5  UNL     1     -19.131  36.792  -9.125  1.00  0.00     0.217 HD
ENDBRANCH  40  50
ENDBRANCH  12  36
TORSDOF 6
ENDMDL
MODEL 4
REMARK VINA RESULT: -7.230206429      1.421      2.169
REMARK  6 active torsions:
REMARK  status: ('A' for Active; 'I' for Inactive)
REMARK       I    between atoms: N1_1  and  C1_5 
REMARK       I    between atoms: C1_5  and  N2_6 
REMARK       I    between atoms: C1_5  and  N3_10 
REMARK    1  A    between atoms: N3_10  and  C2_12 
REMARK    2  A    between atoms: C4_14  and  N4_15 
REMARK       I    between atoms: N4_15  and  C5_16 
REMARK       I    between atoms: C5_16  and  N5_18 
REMARK    3  A    between atoms: C10_26  and  C11_27 
REMARK    4  A    between atoms: C12_29  and  C13_30 
REMARK    5  A    between atoms: C16_33  and  N7_34 
REMARK    6  A    between atoms: C20_40  and  O5_41 
ROOT
HETATM    1  N4  UNL     1     -23.296  40.010 -12.159  1.00  0.00    -0.352 NA
HETATM    2  C5  UNL     1     -24.278  39.183 -11.737  1.00  0.00     0.396 C 
HETATM    3  O1  UNL     1     -25.046  38.451 -12.442  1.00  0.00    -0.230 OA
HETATM    4  N5  UNL     1     -24.576  39.031 -10.317  1.00  0.00    -0.318 N 
HETATM    5  C6  UNL     1     -23.777  39.833  -9.404  1.00  0.00     0.135 C 
HETATM    6  C7  UNL     1     -23.021  38.938  -8.457  1.00  0.00     0.077 C 
HETATM    7  C8  UNL     1     -23.835  37.795  -7.995  1.00  0.00     0.019 A 
HETATM    8  N6  UNL     1     -23.417  37.060  -6.924  1.00  0.00    -0.353 N 
ATOM      9  H6  UNL     1     -22.545  37.312  -6.458  1.00  0.00     0.166 HD
HETATM   10  C9  UNL     1     -24.133  35.997  -6.458  1.00  0.00     0.085 A 
HETATM   11  S1  UNL     1     -23.907  34.887  -5.174  1.00  0.00    -0.069 SA
HETATM   12  C10 UNL     1     -25.303  33.940  -5.381  1.00  0.00     0.044 A 
HETATM   13  C21 UNL     1     -25.915  34.522  -6.457  1.00  0.00     0.036 A 
HETATM   14  C22 UNL     1     -25.309  35.581  -7.009  1.00  0.00    -0.000 A 
HETATM   15  C23 UNL     1     -25.741  36.336  -8.110  1.00  0.00     0.025 A 
HETATM   16  C24 UNL     1     -25.001  37.401  -8.561  1.00  0.00    -0.017 A 
HETATM   17  C25 UNL     1     -25.538  38.164  -9.753  1.00  0.00     0.169 C 
ENDROOT
BRANCH   1  18
HETATM   18  C4  UNL     1     -22.305  40.843 -12.587  1.00  0.00     0.117 A 
HETATM   19  C3  UNL     1     -20.995  40.337 -12.716  1.00  0.00     0.093 A 
HETATM   20  C2  UNL     1     -19.952  41.068 -13.180  1.00  0.00     0.106 A 
HETATM   21  N8  UNL     1     -20.238  42.365 -13.531  1.00  0.00    -0.352 N 
HETATM   22  C27 UNL     1     -21.459  42.888 -13.427  1.00  0.00     0.093 A 
ATOM     23  H8  UNL     1     -19.483  42.952 -13.885  1.00  0.00     0.166 HD
HETATM   24  C26 UNL     1     -22.522  42.169 -12.961  1.00  0.00     0.062 A 
BRANCH  20  25
HETATM   25  N3  UNL     1     -18.743  40.661 -13.323  1.00  0.00    -0.327 N 
HETATM   26  C1  UNL     1     -17.671  40.768 -12.409  1.00  0.00     0.481 C 
HETATM   27  N1  UNL     1     -17.141  42.125 -12.303  1.00  0.00    -0.033 N 
HETATM   28  N2  UNL     1     -17.988  40.244 -11.120  1.00  0.00    -0.033 N 
ATOM     29  H13 UNL     1     -17.776  42.739 -11.793  1.00  0.00     0.278 HD
ATOM     30  H12 UNL     1     -16.342  42.169 -11.672  1.00  0.00     0.278 HD
ATOM     31  H11 UNL     1     -16.915  42.499 -13.225  1.00  0.00     0.278 HD
ATOM     32  H23 UNL     1     -17.188  40.288 -10.489  1.00  0.00     0.278 HD
ATOM     33  H22 UNL     1     -18.622  40.858 -10.610  1.00  0.00     0.278 HD
ATOM     34  H21 UNL     1     -18.358  39.296 -11.193  1.00  0.00     0.278 HD
ATOM     35  H3  UNL     1     -18.529  40.203 -14.208  1.00  0.00     0.164 HD
ENDBRANCH  20  25
ENDBRANCH   1  18
BRANCH  12  36
HETATM   36  C11 UNL     1     -25.773  32.764  -4.607  1.00  0.00     0.126 A 
HETATM   37  O2  UNL     1     -25.928  31.549  -5.039  1.00  0.00    -0.306 OA
HETATM   38  C12 UNL     1     -26.356  30.743  -4.112  1.00  0.00     0.089 A 
HETATM   39  C19 UNL     1     -26.511  31.464  -2.943  1.00  0.00     0.077 A 
HETATM   40  C20 UNL     1     -26.129  32.769  -3.282  1.00  0.00     0.103 A 
BRANCH  38  41
HETATM   41  C13 UNL     1     -26.646  29.320  -4.213  1.00  0.00    -0.002 A 
HETATM   42  C14 UNL     1     -26.251  28.448  -3.229  1.00  0.00     0.017 A 
HETATM   43  C15 UNL     1     -26.509  27.104  -3.307  1.00  0.00     0.037 A 
HETATM   44  C16 UNL     1     -27.179  26.585  -4.386  1.00  0.00     0.102 A 
HETATM   45  C17 UNL     1     -27.585  27.441  -5.386  1.00  0.00     0.037 A 
HETATM   46  C18 UNL     1     -27.319  28.808  -5.300  1.00  0.00     0.017 A 
BRANCH  44  47
HETATM   47  N7  UNL     1     -27.464  25.179  -4.491  1.00  0.00    -0.116 N 
HETATM   48  O3  UNL     1     -26.519  24.422  -4.841  1.00  0.00    -0.532 OA
HETATM   49  O4  UNL     1     -28.723  24.720  -4.221  1.00  0.00    -0.532 OA
ENDBRANCH  44  47
ENDBRANCH  38  41
BRANCH  40  50
HETATM   50  O5  UNL     1     -26.141  33.792  -2.391  1.00  0.00    -0.358 OA
ATOM     51  H5  UNL     1     -25.441  34.379  -2.130  1.00  0.00     0.217 HD
ENDBRANCH  40  50
ENDBRANCH  12  36
TORSDOF 6
ENDMDL
MODEL 5
REMARK VINA RESULT: -7.144853273      7.124      9.543
REMARK  6 active torsions:
REMARK  status: ('A' for Active; 'I' for Inactive)
REMARK       I    between atoms: N1_1  and  C1_5 
REMARK       I    between atoms: C1_5  and  N2_6 
REMARK       I    between atoms: C1_5  and  N3_10 
REMARK    1  A    between atoms: N3_10  and  C2_12 
REMARK    2  A    between atoms: C4_14  and  N4_15 
REMARK       I    between atoms: N4_15  and  C5_16 
REMARK       I    between atoms: C5_16  and  N5_18 
REMARK    3  A    between atoms: C10_26  and  C11_27 
REMARK    4  A    between atoms: C12_29  and  C13_30 
REMARK    5  A    between atoms: C16_33  and  N7_34 
REMARK    6  A    between atoms: C20_40  and  O5_41 
ROOT
HETATM    1  N4  UNL     1     -27.298  43.928  -8.174  1.00  0.00    -0.352 NA
HETATM    2  C5  UNL     1     -25.991  43.604  -8.279  1.00  0.00     0.396 C 
HETATM    3  O1  UNL     1     -24.978  44.316  -7.976  1.00  0.00    -0.230 OA
HETATM    4  N5  UNL     1     -25.576  42.301  -8.787  1.00  0.00    -0.318 N 
HETATM    5  C6  UNL     1     -26.644  41.399  -9.187  1.00  0.00     0.135 C 
HETATM    6  C7  UNL     1     -26.587  40.135  -8.370  1.00  0.00     0.077 C 
HETATM    7  C8  UNL     1     -25.202  39.669  -8.154  1.00  0.00     0.019 A 
HETATM    8  N6  UNL     1     -24.981  38.403  -7.695  1.00  0.00    -0.353 N 
ATOM      9  H6  UNL     1     -25.780  37.797  -7.506  1.00  0.00     0.166 HD
HETATM   10  C9  UNL     1     -23.723  37.925  -7.480  1.00  0.00     0.085 A 
HETATM   11  S1  UNL     1     -23.102  36.430  -6.924  1.00  0.00    -0.069 SA
HETATM   12  C10 UNL     1     -21.440  36.780  -6.992  1.00  0.00     0.044 A 
HETATM   13  C21 UNL     1     -21.414  38.068  -7.452  1.00  0.00     0.036 A 
HETATM   14  C22 UNL     1     -22.592  38.655  -7.702  1.00  0.00    -0.000 A 
HETATM   15  C23 UNL     1     -22.816  39.956  -8.175  1.00  0.00     0.025 A 
HETATM   16  C24 UNL     1     -24.094  40.415  -8.381  1.00  0.00    -0.017 A 
HETATM   17  C25 UNL     1     -24.249  41.831  -8.895  1.00  0.00     0.169 C 
ENDROOT
BRANCH   1  18
HETATM   18  C4  UNL     1     -28.618  44.256  -8.067  1.00  0.00     0.117 A 
HETATM   19  C3  UNL     1     -29.484  43.962  -9.140  1.00  0.00     0.093 A 
HETATM   20  C2  UNL     1     -30.819  44.202  -9.112  1.00  0.00     0.106 A 
HETATM   21  N8  UNL     1     -31.303  44.760  -7.955  1.00  0.00    -0.352 N 
HETATM   22  C27 UNL     1     -30.525  45.056  -6.915  1.00  0.00     0.093 A 
ATOM     23  H8  UNL     1     -32.302  44.958  -7.890  1.00  0.00     0.166 HD
HETATM   24  C26 UNL     1     -29.180  44.824  -6.924  1.00  0.00     0.062 A 
BRANCH  20  25
HETATM   25  N3  UNL     1     -31.655  43.952 -10.053  1.00  0.00    -0.327 N 
HETATM   26  C1  UNL     1     -32.181  42.701 -10.445  1.00  0.00     0.481 C 
HETATM   27  N1  UNL     1     -31.215  41.871 -11.160  1.00  0.00    -0.033 N 
HETATM   28  N2  UNL     1     -32.765  41.981  -9.360  1.00  0.00    -0.033 N 
ATOM     29  H13 UNL     1     -30.504  41.494 -10.533  1.00  0.00     0.278 HD
ATOM     30  H12 UNL     1     -31.629  40.992 -11.471  1.00  0.00     0.278 HD
ATOM     31  H11 UNL     1     -30.798  42.386 -11.936  1.00  0.00     0.278 HD
ATOM     32  H23 UNL     1     -33.180  41.102  -9.671  1.00  0.00     0.278 HD
ATOM     33  H22 UNL     1     -32.055  41.604  -8.733  1.00  0.00     0.278 HD
ATOM     34  H21 UNL     1     -33.440  42.560  -8.861  1.00  0.00     0.278 HD
ATOM     35  H3  UNL     1     -31.980  44.758 -10.586  1.00  0.00     0.164 HD
ENDBRANCH  20  25
ENDBRANCH   1  18
BRANCH  12  36
HETATM   36  C11 UNL     1     -20.277  35.927  -6.643  1.00  0.00     0.126 A 
HETATM   37  O2  UNL     1     -20.192  35.073  -5.668  1.00  0.00    -0.306 OA
HETATM   38  C12 UNL     1     -19.035  34.479  -5.627  1.00  0.00     0.089 A 
HETATM   39  C19 UNL     1     -18.257  34.966  -6.660  1.00  0.00     0.077 A 
HETATM   40  C20 UNL     1     -19.076  35.901  -7.307  1.00  0.00     0.103 A 
BRANCH  38  41
HETATM   41  C13 UNL     1     -18.569  33.470  -4.688  1.00  0.00    -0.002 A 
HETATM   42  C14 UNL     1     -17.697  32.486  -5.084  1.00  0.00     0.017 A 
HETATM   43  C15 UNL     1     -17.250  31.523  -4.218  1.00  0.00     0.037 A 
HETATM   44  C16 UNL     1     -17.667  31.515  -2.910  1.00  0.00     0.102 A 
HETATM   45  C17 UNL     1     -18.541  32.492  -2.489  1.00  0.00     0.037 A 
HETATM   46  C18 UNL     1     -18.992  33.470  -3.378  1.00  0.00     0.017 A 
BRANCH  44  47
HETATM   47  N7  UNL     1     -17.210  30.518  -1.980  1.00  0.00    -0.116 N 
HETATM   48  O3  UNL     1     -15.993  30.192  -2.033  1.00  0.00    -0.532 OA
HETATM   49  O4  UNL     1     -18.090  29.963  -1.093  1.00  0.00    -0.532 OA
ENDBRANCH  44  47
ENDBRANCH  38  41
BRANCH  40  50
HETATM   50  O5  UNL     1     -18.669  36.609  -8.391  1.00  0.00    -0.358 OA
ATOM     51  H5  UNL     1     -17.840  36.587  -8.854  1.00  0.00     0.217 HD
ENDBRANCH  40  50
ENDBRANCH  12  36
TORSDOF 6
ENDMDL
