MODEL 1
REMARK VINA RESULT: -7.819804895      0.000      0.000
REMARK  10 active torsions:
REMARK  status: ('A' for Active; 'I' for Inactive)
REMARK    1  A    between atoms: S1_2  and  C2_3 
REMARK    2  A    between atoms: C5_6  and  C6_7 
REMARK    3  A    between atoms: C9_12  and  N2_13 
REMARK    4  A    between atoms: C13_22  and  O2_23 
REMARK    5  A    between atoms: C14_25  and  O3_26 
REMARK    6  A    between atoms: N4_30  and  N5_31 
REMARK    7  A    between atoms: N6_33  and  C17_35 
REMARK    8  A    between atoms: C17_35  and  N7_37 
REMARK    9  A    between atoms: N7_37  and  C18_39 
REMARK   10  A    between atoms: C25_46  and  N8_47 
ROOT
HETATM    1  C6  UNL     1     -22.168  34.058  -5.932  1.00  0.00     0.184 C 
HETATM    2  C7  UNL     1     -21.446  34.111  -4.662  1.00  0.00     0.068 A 
HETATM    3  C8  UNL     1     -21.996  33.665  -3.489  1.00  0.00     0.076 A 
HETATM    4  N1  UNL     1     -21.287  33.659  -2.331  1.00  0.00    -0.190 N 
ATOM      5  H1  UNL     1     -21.724  33.319  -1.475  1.00  0.00     0.184 HD
HETATM    6  C9  UNL     1     -20.021  34.094  -2.300  1.00  0.00     0.679 A 
HETATM    7  N3  UNL     1     -19.466  34.535  -3.433  1.00  0.00    -0.156 N 
ATOM      8  H3  UNL     1     -18.502  34.868  -3.415  1.00  0.00     0.187 HD
HETATM    9  C10 UNL     1     -20.149  34.555  -4.613  1.00  0.00     0.270 A 
HETATM   10  O1  UNL     1     -19.489  34.997  -5.581  1.00  0.00    -0.267 OA
HETATM   11  C11 UNL     1     -23.413  33.258  -3.481  1.00  0.00     0.023 A 
HETATM   12  C12 UNL     1     -23.965  32.719  -2.335  1.00  0.00     0.055 A 
HETATM   13  C13 UNL     1     -25.273  32.250  -2.323  1.00  0.00     0.099 A 
HETATM   14  C14 UNL     1     -26.012  32.333  -3.477  1.00  0.00     0.101 A 
HETATM   15  C15 UNL     1     -25.457  32.872  -4.616  1.00  0.00     0.071 A 
HETATM   16  C16 UNL     1     -24.156  33.344  -4.644  1.00  0.00     0.068 A 
HETATM   17  N4  UNL     1     -23.610  33.956  -5.803  1.00  0.00    -0.263 N 
ENDROOT
BRANCH  17  18
HETATM   18  N5  UNL     1     -24.412  34.432  -6.786  1.00  0.00    -0.237 N 
HETATM   19  N6  UNL     1     -25.242  35.276  -6.951  1.00  0.00    -0.261 N 
ATOM     20  H6  UNL     1     -25.571  35.241  -7.915  1.00  0.00     0.191 HD
ATOM     21  H5  UNL     1     -24.261  33.911  -7.649  1.00  0.00     0.208 HD
BRANCH  19  22
HETATM   22  C17 UNL     1     -25.897  36.269  -6.287  1.00  0.00     0.192 C 
HETATM   23  S2  UNL     1     -27.527  36.508  -6.559  1.00  0.00    -0.039 SA
BRANCH  22  24
HETATM   24  N7  UNL     1     -25.313  37.141  -5.354  1.00  0.00    -0.332 N 
ATOM     25  H7  UNL     1     -25.088  38.087  -5.662  1.00  0.00     0.168 HD
BRANCH  24  26
HETATM   26  C18 UNL     1     -25.017  36.795  -4.022  1.00  0.00     0.034 A 
HETATM   27  C19 UNL     1     -25.885  36.293  -3.110  1.00  0.00     0.029 A 
HETATM   28  C20 UNL     1     -25.493  36.008  -1.789  1.00  0.00     0.002 A 
HETATM   29  C21 UNL     1     -24.202  36.231  -1.381  1.00  0.00     0.000 A 
HETATM   30  C22 UNL     1     -23.302  36.739  -2.291  1.00  0.00     0.002 A 
HETATM   31  C23 UNL     1     -23.703  37.011  -3.573  1.00  0.00     0.029 A 
ENDBRANCH  24  26
ENDBRANCH  22  24
ENDBRANCH  19  22
ENDBRANCH  17  18
BRANCH   1  32
HETATM   32  C5  UNL     1     -21.785  35.093  -6.921  1.00  0.00    -0.026 A 
HETATM   33  C4  UNL     1     -21.047  34.812  -8.054  1.00  0.00     0.011 A 
HETATM   34  C3  UNL     1     -20.669  35.810  -8.944  1.00  0.00     0.021 A 
HETATM   35  C2  UNL     1     -21.019  37.108  -8.728  1.00  0.00     0.033 A 
HETATM   36  C25 UNL     1     -21.766  37.439  -7.597  1.00  0.00     0.120 A 
HETATM   37  C24 UNL     1     -22.118  36.428  -6.744  1.00  0.00     0.047 A 
BRANCH  35  38
HETATM   38  S1  UNL     1     -20.527  38.379  -9.882  1.00  0.00    -0.132 SA
HETATM   39  C1  UNL     1     -21.288  37.968 -11.498  1.00  0.00     0.095 C 
ENDBRANCH  35  38
BRANCH  36  40
HETATM   40  N8  UNL     1     -22.126  38.788  -7.379  1.00  0.00    -0.114 N 
HETATM   41  O4  UNL     1     -23.201  39.202  -7.845  1.00  0.00    -0.532 OA
HETATM   42  O5  UNL     1     -21.339  39.660  -6.675  1.00  0.00    -0.532 OA
ENDBRANCH  36  40
ENDBRANCH   1  32
BRANCH  14  43
HETATM   43  O3  UNL     1     -27.315  31.856  -3.438  1.00  0.00    -0.358 OA
ATOM     44  H3  UNL     1     -27.983  32.435  -3.090  1.00  0.00     0.217 HD
ENDBRANCH  14  43
BRANCH  13  45
HETATM   45  O2  UNL     1     -25.837  31.701  -1.154  1.00  0.00    -0.358 OA
ATOM     46  H2  UNL     1     -26.775  31.571  -1.077  1.00  0.00     0.217 HD
ENDBRANCH  13  45
BRANCH   6  47
HETATM   47  N2  UNL     1     -19.356  34.078  -1.172  1.00  0.00    -0.234 N 
ATOM     48  H22 UNL     1     -19.368  33.265  -0.556  1.00  0.00     0.174 HD
ATOM     49  H21 UNL     1     -18.810  34.893  -0.895  1.00  0.00     0.174 HD
ENDBRANCH   6  47
TORSDOF 10
ENDMDL
MODEL 2
REMARK VINA RESULT: -7.006067108      2.580      7.328
REMARK  10 active torsions:
REMARK  status: ('A' for Active; 'I' for Inactive)
REMARK    1  A    between atoms: S1_2  and  C2_3 
REMARK    2  A    between atoms: C5_6  and  C6_7 
REMARK    3  A    between atoms: C9_12  and  N2_13 
REMARK    4  A    between atoms: C13_22  and  O2_23 
REMARK    5  A    between atoms: C14_25  and  O3_26 
REMARK    6  A    between atoms: N4_30  and  N5_31 
REMARK    7  A    between atoms: N6_33  and  C17_35 
REMARK    8  A    between atoms: C17_35  and  N7_37 
REMARK    9  A    between atoms: N7_37  and  C18_39 
REMARK   10  A    between atoms: C25_46  and  N8_47 
ROOT
HETATM    1  C6  UNL     1     -25.130  33.764  -6.174  1.00  0.00     0.184 C 
HETATM    2  C7  UNL     1     -25.838  35.004  -5.857  1.00  0.00     0.068 A 
HETATM    3  C8  UNL     1     -25.275  36.237  -6.052  1.00  0.00     0.076 A 
HETATM    4  N1  UNL     1     -25.971  37.379  -5.817  1.00  0.00    -0.190 N 
ATOM      5  H1  UNL     1     -25.524  38.282  -5.973  1.00  0.00     0.184 HD
HETATM    6  C9  UNL     1     -27.237  37.333  -5.382  1.00  0.00     0.679 A 
HETATM    7  N3  UNL     1     -27.804  36.139  -5.183  1.00  0.00    -0.156 N 
ATOM      8  H3  UNL     1     -28.767  36.099  -4.851  1.00  0.00     0.187 HD
HETATM    9  C10 UNL     1     -27.134  34.974  -5.410  1.00  0.00     0.270 A 
HETATM   10  O1  UNL     1     -27.805  33.942  -5.176  1.00  0.00    -0.267 OA
HETATM   11  C11 UNL     1     -23.858  36.314  -6.453  1.00  0.00     0.023 A 
HETATM   12  C12 UNL     1     -23.293  37.540  -6.744  1.00  0.00     0.055 A 
HETATM   13  C13 UNL     1     -21.985  37.635  -7.204  1.00  0.00     0.099 A 
HETATM   14  C14 UNL     1     -21.260  36.481  -7.363  1.00  0.00     0.101 A 
HETATM   15  C15 UNL     1     -21.827  35.261  -7.071  1.00  0.00     0.071 A 
HETATM   16  C16 UNL     1     -23.128  35.151  -6.611  1.00  0.00     0.068 A 
HETATM   17  N4  UNL     1     -23.687  33.896  -6.251  1.00  0.00    -0.263 N 
ENDROOT
BRANCH  17  18
HETATM   18  N5  UNL     1     -22.896  32.827  -5.991  1.00  0.00    -0.237 N 
HETATM   19  N6  UNL     1     -21.920  32.553  -5.358  1.00  0.00    -0.261 N 
ATOM     20  H6  UNL     1     -21.699  31.566  -5.489  1.00  0.00     0.191 HD
ATOM     21  H5  UNL     1     -23.238  32.005  -6.487  1.00  0.00     0.208 HD
BRANCH  19  22
HETATM   22  C17 UNL     1     -21.003  33.112  -4.520  1.00  0.00     0.192 C 
HETATM   23  S2  UNL     1     -19.398  33.180  -4.977  1.00  0.00    -0.039 SA
BRANCH  22  24
HETATM   24  N7  UNL     1     -21.288  33.666  -3.261  1.00  0.00    -0.332 N 
ATOM     25  H7  UNL     1     -20.855  33.238  -2.443  1.00  0.00     0.168 HD
BRANCH  24  26
HETATM   26  C18 UNL     1     -22.134  34.772  -3.055  1.00  0.00     0.034 A 
HETATM   27  C19 UNL     1     -23.420  34.732  -2.629  1.00  0.00     0.029 A 
HETATM   28  C20 UNL     1     -24.191  35.900  -2.483  1.00  0.00     0.002 A 
HETATM   29  C21 UNL     1     -23.656  37.131  -2.769  1.00  0.00     0.000 A 
HETATM   30  C22 UNL     1     -22.350  37.196  -3.202  1.00  0.00     0.002 A 
HETATM   31  C23 UNL     1     -21.615  36.047  -3.338  1.00  0.00     0.029 A 
ENDBRANCH  24  26
ENDBRANCH  22  24
ENDBRANCH  19  22
ENDBRANCH  17  18
BRANCH   1  32
HETATM   32  C5  UNL     1     -25.524  32.587  -5.365  1.00  0.00    -0.026 A 
HETATM   33  C4  UNL     1     -26.141  31.476  -5.907  1.00  0.00     0.011 A 
HETATM   34  C3  UNL     1     -26.534  30.402  -5.117  1.00  0.00     0.021 A 
HETATM   35  C2  UNL     1     -26.320  30.409  -3.773  1.00  0.00     0.033 A 
HETATM   36  C25 UNL     1     -25.700  31.509  -3.181  1.00  0.00     0.120 A 
HETATM   37  C24 UNL     1     -25.328  32.548  -3.992  1.00  0.00     0.047 A 
BRANCH  35  38
HETATM   38  S1  UNL     1     -26.830  29.021  -2.771  1.00  0.00    -0.132 SA
HETATM   39  C1  UNL     1     -26.770  27.531  -3.838  1.00  0.00     0.095 C 
ENDBRANCH  35  38
BRANCH  36  40
HETATM   40  N8  UNL     1     -25.481  31.510  -1.784  1.00  0.00    -0.114 N 
HETATM   41  O4  UNL     1     -24.880  30.550  -1.274  1.00  0.00    -0.532 OA
HETATM   42  O5  UNL     1     -25.904  32.525  -0.969  1.00  0.00    -0.532 OA
ENDBRANCH  36  40
ENDBRANCH   1  32
BRANCH  14  43
HETATM   43  O3  UNL     1     -19.956  36.603  -7.825  1.00  0.00    -0.358 OA
ATOM     44  H3  UNL     1     -19.562  35.840  -8.231  1.00  0.00     0.217 HD
ENDBRANCH  14  43
BRANCH  13  45
HETATM   45  O2  UNL     1     -21.408  38.886  -7.501  1.00  0.00    -0.358 OA
ATOM     46  H2  UNL     1     -20.589  38.947  -7.978  1.00  0.00     0.217 HD
ENDBRANCH  13  45
BRANCH   6  47
HETATM   47  N2  UNL     1     -27.889  38.447  -5.162  1.00  0.00    -0.234 N 
ATOM     48  H22 UNL     1     -27.543  39.148  -4.508  1.00  0.00     0.174 HD
ATOM     49  H21 UNL     1     -28.765  38.626  -5.653  1.00  0.00     0.174 HD
ENDBRANCH   6  47
TORSDOF 10
ENDMDL
MODEL 3
REMARK VINA RESULT: -6.971236714      2.849      5.821
REMARK  10 active torsions:
REMARK  status: ('A' for Active; 'I' for Inactive)
REMARK    1  A    between atoms: S1_2  and  C2_3 
REMARK    2  A    between atoms: C5_6  and  C6_7 
REMARK    3  A    between atoms: C9_12  and  N2_13 
REMARK    4  A    between atoms: C13_22  and  O2_23 
REMARK    5  A    between atoms: C14_25  and  O3_26 
REMARK    6  A    between atoms: N4_30  and  N5_31 
REMARK    7  A    between atoms: N6_33  and  C17_35 
REMARK    8  A    between atoms: C17_35  and  N7_37 
REMARK    9  A    between atoms: N7_37  and  C18_39 
REMARK   10  A    between atoms: C25_46  and  N8_47 
ROOT
HETATM    1  C6  UNL     1     -22.955  36.461  -4.916  1.00  0.00     0.184 C 
HETATM    2  C7  UNL     1     -23.549  36.291  -3.590  1.00  0.00     0.068 A 
HETATM    3  C8  UNL     1     -22.975  35.502  -2.628  1.00  0.00     0.076 A 
HETATM    4  N1  UNL     1     -23.503  35.410  -1.381  1.00  0.00    -0.190 N 
ATOM      5  H1  UNL     1     -23.052  34.816  -0.686  1.00  0.00     0.184 HD
HETATM    6  C9  UNL     1     -24.610  36.089  -1.052  1.00  0.00     0.679 A 
HETATM    7  N3  UNL     1     -25.187  36.861  -1.978  1.00  0.00    -0.156 N 
ATOM      8  H3  UNL     1     -26.030  37.380  -1.733  1.00  0.00     0.187 HD
HETATM    9  C10 UNL     1     -24.683  36.978  -3.239  1.00  0.00     0.270 A 
HETATM   10  O1  UNL     1     -25.339  37.740  -3.985  1.00  0.00    -0.267 OA
HETATM   11  C11 UNL     1     -21.804  34.684  -2.989  1.00  0.00     0.023 A 
HETATM   12  C12 UNL     1     -21.152  33.952  -2.016  1.00  0.00     0.055 A 
HETATM   13  C13 UNL     1     -19.998  33.237  -2.309  1.00  0.00     0.099 A 
HETATM   14  C14 UNL     1     -19.513  33.270  -3.593  1.00  0.00     0.101 A 
HETATM   15  C15 UNL     1     -20.167  34.001  -4.561  1.00  0.00     0.071 A 
HETATM   16  C16 UNL     1     -21.319  34.717  -4.283  1.00  0.00     0.068 A 
HETATM   17  N4  UNL     1     -22.023  35.416  -5.298  1.00  0.00    -0.263 N 
ENDROOT
BRANCH  17  18
HETATM   18  N5  UNL     1     -21.830  35.129  -6.608  1.00  0.00    -0.237 N 
HETATM   19  N6  UNL     1     -21.098  35.428  -7.504  1.00  0.00    -0.261 N 
ATOM     20  H6  UNL     1     -21.369  34.918  -8.345  1.00  0.00     0.191 HD
ATOM     21  H5  UNL     1     -22.521  34.451  -6.927  1.00  0.00     0.208 HD
BRANCH  19  22
HETATM   22  C17 UNL     1     -20.025  36.220  -7.784  1.00  0.00     0.192 C 
HETATM   23  S2  UNL     1     -18.480  35.621  -7.574  1.00  0.00    -0.039 SA
BRANCH  22  24
HETATM   24  N7  UNL     1     -20.094  37.540  -8.257  1.00  0.00    -0.332 N 
ATOM     25  H7  UNL     1     -19.811  38.288  -7.624  1.00  0.00     0.168 HD
BRANCH  24  26
HETATM   26  C18 UNL     1     -20.530  37.899  -9.547  1.00  0.00     0.034 A 
HETATM   27  C19 UNL     1     -21.594  37.382 -10.209  1.00  0.00     0.029 A 
HETATM   28  C20 UNL     1     -21.927  37.791 -11.513  1.00  0.00     0.002 A 
HETATM   29  C21 UNL     1     -21.176  38.738 -12.161  1.00  0.00     0.000 A 
HETATM   30  C22 UNL     1     -20.091  39.279 -11.508  1.00  0.00     0.002 A 
HETATM   31  C23 UNL     1     -19.782  38.868 -10.237  1.00  0.00     0.029 A 
ENDBRANCH  24  26
ENDBRANCH  22  24
ENDBRANCH  19  22
ENDBRANCH  17  18
BRANCH   1  32
HETATM   32  C5  UNL     1     -23.916  36.755  -6.005  1.00  0.00    -0.026 A 
HETATM   33  C4  UNL     1     -24.828  35.830  -6.472  1.00  0.00     0.011 A 
HETATM   34  C3  UNL     1     -25.691  36.121  -7.522  1.00  0.00     0.021 A 
HETATM   35  C2  UNL     1     -25.666  37.340  -8.128  1.00  0.00     0.033 A 
HETATM   36  C25 UNL     1     -24.761  38.308  -7.690  1.00  0.00     0.120 A 
HETATM   37  C24 UNL     1     -23.928  37.982  -6.654  1.00  0.00     0.047 A 
BRANCH  35  38
HETATM   38  S1  UNL     1     -26.781  37.700  -9.476  1.00  0.00    -0.132 SA
HETATM   39  C1  UNL     1     -25.884  37.343 -11.033  1.00  0.00     0.095 C 
ENDBRANCH  35  38
BRANCH  36  40
HETATM   40  N8  UNL     1     -24.740  39.571  -8.324  1.00  0.00    -0.114 N 
HETATM   41  O4  UNL     1     -25.512  40.456  -7.916  1.00  0.00    -0.532 OA
HETATM   42  O5  UNL     1     -23.905  39.861  -9.368  1.00  0.00    -0.532 OA
ENDBRANCH  36  40
ENDBRANCH   1  32
BRANCH  14  43
HETATM   43  O3  UNL     1     -18.357  32.549  -3.860  1.00  0.00    -0.358 OA
ATOM     44  H3  UNL     1     -17.529  32.941  -3.610  1.00  0.00     0.217 HD
ENDBRANCH  14  43
BRANCH  13  45
HETATM   45  O2  UNL     1     -19.332  32.490  -1.317  1.00  0.00    -0.358 OA
ATOM     46  H2  UNL     1     -19.784  31.814  -0.827  1.00  0.00     0.217 HD
ENDBRANCH  13  45
BRANCH   6  47
HETATM   47  N2  UNL     1     -25.101  35.984   0.157  1.00  0.00    -0.234 N 
ATOM     48  H22 UNL     1     -24.503  35.801   0.963  1.00  0.00     0.174 HD
ATOM     49  H21 UNL     1     -26.105  36.087   0.306  1.00  0.00     0.174 HD
ENDBRANCH   6  47
TORSDOF 10
ENDMDL
MODEL 4
REMARK VINA RESULT: -6.922136289      2.903      6.478
REMARK  10 active torsions:
REMARK  status: ('A' for Active; 'I' for Inactive)
REMARK    1  A    between atoms: S1_2  and  C2_3 
REMARK    2  A    between atoms: C5_6  and  C6_7 
REMARK    3  A    between atoms: C9_12  and  N2_13 
REMARK    4  A    between atoms: C13_22  and  O2_23 
REMARK    5  A    between atoms: C14_25  and  O3_26 
REMARK    6  A    between atoms: N4_30  and  N5_31 
REMARK    7  A    between atoms: N6_33  and  C17_35 
REMARK    8  A    between atoms: C17_35  and  N7_37 
REMARK    9  A    between atoms: N7_37  and  C18_39 
REMARK   10  A    between atoms: C25_46  and  N8_47 
ROOT
HETATM    1  C6  UNL     1     -22.626  35.668  -7.414  1.00  0.00     0.184 C 
HETATM    2  C7  UNL     1     -21.752  36.639  -8.070  1.00  0.00     0.068 A 
HETATM    3  C8  UNL     1     -20.387  36.574  -7.975  1.00  0.00     0.076 A 
HETATM    4  N1  UNL     1     -19.588  37.443  -8.646  1.00  0.00    -0.190 N 
ATOM      5  H1  UNL     1     -18.575  37.368  -8.556  1.00  0.00     0.184 HD
HETATM    6  C9  UNL     1     -20.115  38.397  -9.425  1.00  0.00     0.679 A 
HETATM    7  N3  UNL     1     -21.444  38.478  -9.529  1.00  0.00    -0.156 N 
ATOM      8  H3  UNL     1     -21.850  39.204 -10.120  1.00  0.00     0.187 HD
HETATM    9  C10 UNL     1     -22.275  37.623  -8.870  1.00  0.00     0.270 A 
HETATM   10  O1  UNL     1     -23.493  37.831  -9.073  1.00  0.00    -0.267 OA
HETATM   11  C11 UNL     1     -19.786  35.585  -7.062  1.00  0.00     0.023 A 
HETATM   12  C12 UNL     1     -18.414  35.437  -7.016  1.00  0.00     0.055 A 
HETATM   13  C13 UNL     1     -17.824  34.458  -6.227  1.00  0.00     0.099 A 
HETATM   14  C14 UNL     1     -18.635  33.634  -5.488  1.00  0.00     0.101 A 
HETATM   15  C15 UNL     1     -20.003  33.785  -5.536  1.00  0.00     0.071 A 
HETATM   16  C16 UNL     1     -20.605  34.757  -6.316  1.00  0.00     0.068 A 
HETATM   17  N4  UNL     1     -22.012  34.949  -6.313  1.00  0.00    -0.263 N 
ENDROOT
BRANCH  17  18
HETATM   18  N5  UNL     1     -22.781  34.465  -5.308  1.00  0.00    -0.237 N 
HETATM   19  N6  UNL     1     -22.959  34.634  -4.139  1.00  0.00    -0.261 N 
ATOM     20  H6  UNL     1     -23.683  33.995  -3.812  1.00  0.00     0.191 HD
ATOM     21  H5  UNL     1     -23.398  33.732  -5.657  1.00  0.00     0.208 HD
BRANCH  19  22
HETATM   22  C17 UNL     1     -22.521  35.392  -3.094  1.00  0.00     0.192 C 
HETATM   23  S2  UNL     1     -22.562  37.058  -3.208  1.00  0.00    -0.039 SA
BRANCH  22  24
HETATM   24  N7  UNL     1     -22.028  34.889  -1.880  1.00  0.00    -0.332 N 
ATOM     25  H7  UNL     1     -22.689  34.755  -1.116  1.00  0.00     0.168 HD
BRANCH  24  26
HETATM   26  C18 UNL     1     -20.679  34.557  -1.649  1.00  0.00     0.034 A 
HETATM   27  C19 UNL     1     -19.680  35.421  -1.345  1.00  0.00     0.029 A 
HETATM   28  C20 UNL     1     -18.354  34.989  -1.161  1.00  0.00     0.002 A 
HETATM   29  C21 UNL     1     -18.029  33.661  -1.284  1.00  0.00     0.000 A 
HETATM   30  C22 UNL     1     -19.028  32.764  -1.590  1.00  0.00     0.002 A 
HETATM   31  C23 UNL     1     -20.314  33.205  -1.766  1.00  0.00     0.029 A 
ENDBRANCH  24  26
ENDBRANCH  22  24
ENDBRANCH  19  22
ENDBRANCH  17  18
BRANCH   1  32
HETATM   32  C5  UNL     1     -23.970  36.174  -7.047  1.00  0.00    -0.026 A 
HETATM   33  C4  UNL     1     -24.162  37.289  -6.255  1.00  0.00     0.011 A 
HETATM   34  C3  UNL     1     -25.433  37.719  -5.895  1.00  0.00     0.021 A 
HETATM   35  C2  UNL     1     -26.541  37.050  -6.317  1.00  0.00     0.033 A 
HETATM   36  C25 UNL     1     -26.397  35.919  -7.120  1.00  0.00     0.120 A 
HETATM   37  C24 UNL     1     -25.128  35.527  -7.452  1.00  0.00     0.047 A 
BRANCH  35  38
HETATM   38  S1  UNL     1     -28.169  37.615  -5.847  1.00  0.00    -0.132 SA
HETATM   39  C1  UNL     1     -28.487  39.172  -6.759  1.00  0.00     0.095 C 
ENDBRANCH  35  38
BRANCH  36  40
HETATM   40  N8  UNL     1     -27.552  35.229  -7.555  1.00  0.00    -0.114 N 
HETATM   41  O4  UNL     1     -27.964  34.270  -6.879  1.00  0.00    -0.532 OA
HETATM   42  O5  UNL     1     -28.237  35.572  -8.689  1.00  0.00    -0.532 OA
ENDBRANCH  36  40
ENDBRANCH   1  32
BRANCH  14  43
HETATM   43  O3  UNL     1     -18.022  32.662  -4.709  1.00  0.00    -0.358 OA
ATOM     44  H3  UNL     1     -17.811  32.888  -3.811  1.00  0.00     0.217 HD
ENDBRANCH  14  43
BRANCH  13  45
HETATM   45  O2  UNL     1     -16.424  34.307  -6.181  1.00  0.00    -0.358 OA
ATOM     46  H2  UNL     1     -16.015  33.469  -6.360  1.00  0.00     0.217 HD
ENDBRANCH  13  45
BRANCH   6  47
HETATM   47  N2  UNL     1     -19.325  39.224 -10.063  1.00  0.00    -0.234 N 
ATOM     48  H22 UNL     1     -18.329  39.033 -10.173  1.00  0.00     0.174 HD
ATOM     49  H21 UNL     1     -19.706  40.080 -10.463  1.00  0.00     0.174 HD
ENDBRANCH   6  47
TORSDOF 10
ENDMDL
MODEL 5
REMARK VINA RESULT: -6.788303893      2.512      6.802
REMARK  10 active torsions:
REMARK  status: ('A' for Active; 'I' for Inactive)
REMARK    1  A    between atoms: S1_2  and  C2_3 
REMARK    2  A    between atoms: C5_6  and  C6_7 
REMARK    3  A    between atoms: C9_12  and  N2_13 
REMARK    4  A    between atoms: C13_22  and  O2_23 
REMARK    5  A    between atoms: C14_25  and  O3_26 
REMARK    6  A    between atoms: N4_30  and  N5_31 
REMARK    7  A    between atoms: N6_33  and  C17_35 
REMARK    8  A    between atoms: C17_35  and  N7_37 
REMARK    9  A    between atoms: N7_37  and  C18_39 
REMARK   10  A    between atoms: C25_46  and  N8_47 
ROOT
HETATM    1  C6  UNL     1     -22.100  34.995  -4.566  1.00  0.00     0.184 C 
HETATM    2  C7  UNL     1     -21.236  34.257  -3.646  1.00  0.00     0.068 A 
HETATM    3  C8  UNL     1     -19.900  34.073  -3.887  1.00  0.00     0.076 A 
HETATM    4  N1  UNL     1     -19.098  33.445  -2.990  1.00  0.00    -0.190 N 
ATOM      5  H1  UNL     1     -18.107  33.324  -3.197  1.00  0.00     0.184 HD
HETATM    6  C9  UNL     1     -19.593  32.981  -1.834  1.00  0.00     0.679 A 
HETATM    7  N3  UNL     1     -20.894  33.149  -1.581  1.00  0.00    -0.156 N 
ATOM      8  H3  UNL     1     -21.276  32.797  -0.703  1.00  0.00     0.187 HD
HETATM    9  C10 UNL     1     -21.728  33.775  -2.459  1.00  0.00     0.270 A 
HETATM   10  O1  UNL     1     -22.917  33.852  -2.074  1.00  0.00    -0.267 OA
HETATM   11  C11 UNL     1     -19.349  34.502  -5.185  1.00  0.00     0.023 A 
HETATM   12  C12 UNL     1     -17.990  34.411  -5.418  1.00  0.00     0.055 A 
HETATM   13  C13 UNL     1     -17.432  34.884  -6.599  1.00  0.00     0.099 A 
HETATM   14  C14 UNL     1     -18.261  35.446  -7.537  1.00  0.00     0.101 A 
HETATM   15  C15 UNL     1     -19.615  35.534  -7.302  1.00  0.00     0.071 A 
HETATM   16  C16 UNL     1     -20.185  35.066  -6.130  1.00  0.00     0.068 A 
HETATM   17  N4  UNL     1     -21.589  35.102  -5.920  1.00  0.00    -0.263 N 
ENDROOT
BRANCH  17  18
HETATM   18  N5  UNL     1     -22.448  35.243  -6.958  1.00  0.00    -0.237 N 
HETATM   19  N6  UNL     1     -23.045  36.104  -7.531  1.00  0.00    -0.261 N 
ATOM     20  H6  UNL     1     -23.591  35.691  -8.287  1.00  0.00     0.191 HD
ATOM     21  H5  UNL     1     -22.647  34.335  -7.378  1.00  0.00     0.208 HD
BRANCH  19  22
HETATM   22  C17 UNL     1     -23.244  37.453  -7.517  1.00  0.00     0.192 C 
HETATM   23  S2  UNL     1     -24.768  38.059  -7.205  1.00  0.00    -0.039 SA
BRANCH  22  24
HETATM   24  N7  UNL     1     -22.251  38.419  -7.741  1.00  0.00    -0.332 N 
ATOM     25  H7  UNL     1     -22.015  39.047  -6.972  1.00  0.00     0.168 HD
BRANCH  24  26
HETATM   26  C18 UNL     1     -21.560  38.580  -8.957  1.00  0.00     0.034 A 
HETATM   27  C19 UNL     1     -20.223  38.747  -9.106  1.00  0.00     0.029 A 
HETATM   28  C20 UNL     1     -19.633  38.930 -10.370  1.00  0.00     0.002 A 
HETATM   29  C21 UNL     1     -20.404  38.942 -11.505  1.00  0.00     0.000 A 
HETATM   30  C22 UNL     1     -21.765  38.773 -11.378  1.00  0.00     0.002 A 
HETATM   31  C23 UNL     1     -22.321  38.597 -10.138  1.00  0.00     0.029 A 
ENDBRANCH  24  26
ENDBRANCH  22  24
ENDBRANCH  19  22
ENDBRANCH  17  18
BRANCH   1  32
HETATM   32  C5  UNL     1     -23.526  34.590  -4.556  1.00  0.00    -0.026 A 
HETATM   33  C4  UNL     1     -24.543  35.435  -4.159  1.00  0.00     0.011 A 
HETATM   34  C3  UNL     1     -25.868  35.016  -4.123  1.00  0.00     0.021 A 
HETATM   35  C2  UNL     1     -26.209  33.748  -4.483  1.00  0.00     0.033 A 
HETATM   36  C25 UNL     1     -25.214  32.859  -4.892  1.00  0.00     0.120 A 
HETATM   37  C24 UNL     1     -23.922  33.309  -4.913  1.00  0.00     0.047 A 
BRANCH  35  38
HETATM   38  S1  UNL     1     -27.915  33.224  -4.432  1.00  0.00    -0.132 SA
HETATM   39  C1  UNL     1     -28.644  33.589  -6.074  1.00  0.00     0.095 C 
ENDBRANCH  35  38
BRANCH  36  40
HETATM   40  N8  UNL     1     -25.575  31.543  -5.264  1.00  0.00    -0.114 N 
HETATM   41  O4  UNL     1     -25.794  31.302  -6.463  1.00  0.00    -0.532 OA
HETATM   42  O5  UNL     1     -25.693  30.524  -4.359  1.00  0.00    -0.532 OA
ENDBRANCH  36  40
ENDBRANCH   1  32
BRANCH  14  43
HETATM   43  O3  UNL     1     -17.678  35.912  -8.708  1.00  0.00    -0.358 OA
ATOM     44  H3  UNL     1     -18.049  36.694  -9.101  1.00  0.00     0.217 HD
ENDBRANCH  14  43
BRANCH  13  45
HETATM   45  O2  UNL     1     -16.047  34.791  -6.836  1.00  0.00    -0.358 OA
ATOM     46  H2  UNL     1     -15.711  34.392  -7.630  1.00  0.00     0.217 HD
ENDBRANCH  13  45
BRANCH   6  47
HETATM   47  N2  UNL     1     -18.801  32.379  -0.983  1.00  0.00    -0.234 N 
ATOM     48  H22 UNL     1     -18.652  31.370  -1.014  1.00  0.00     0.174 HD
ATOM     49  H21 UNL     1     -18.318  32.924  -0.269  1.00  0.00     0.174 HD
ENDBRANCH   6  47
TORSDOF 10
ENDMDL
