MODEL 1
REMARK VINA RESULT: -9.235255511      0.000      0.000
REMARK  6 active torsions:
REMARK  status: ('A' for Active; 'I' for Inactive)
REMARK    1  A    between atoms: C6_10  and  N2_11 
REMARK       I    between atoms: N2_11  and  C7_13 
REMARK    2  A    between atoms: C7_13  and  C8_15 
REMARK    3  A    between atoms: C11_18  and  N3_19 
REMARK    4  A    between atoms: N3_19  and  C12_21 
REMARK    5  A    between atoms: C17_31  and  N7_32 
REMARK       I    between atoms: N7_32  and  C18_34 
REMARK       I    between atoms: C18_34  and  N8_36 
REMARK    6  A    between atoms: N8_36  and  C19_38 
ROOT
HETATM    1  C1  UNL     1     -23.466  38.753 -12.820  1.00  0.00     0.071 C 
HETATM    2  C2  UNL     1     -22.091  39.122 -12.434  1.00  0.00     0.040 A 
HETATM    3  N1  UNL     1     -21.323  39.968 -13.185  1.00  0.00    -0.261 N 
ATOM      4  H1  UNL     1     -21.698  40.365 -14.046  1.00  0.00     0.194 HD
HETATM    5  O1  UNL     1     -20.116  40.268 -12.806  1.00  0.00    -0.195 OA
HETATM    6  C3  UNL     1     -19.550  39.808 -11.719  1.00  0.00     0.316 A 
HETATM    7  O2  UNL     1     -18.398  40.117 -11.395  1.00  0.00    -0.257 OA
HETATM    8  C4  UNL     1     -20.300  38.939 -10.921  1.00  0.00     0.056 A 
HETATM    9  C5  UNL     1     -19.779  38.413  -9.767  1.00  0.00     0.050 A 
HETATM   10  C6  UNL     1     -20.469  37.561  -8.954  1.00  0.00     0.063 A 
HETATM   11  C17 UNL     1     -21.804  37.196  -9.316  1.00  0.00     0.064 A 
HETATM   12  C26 UNL     1     -22.299  37.731 -10.469  1.00  0.00     0.046 A 
HETATM   13  C27 UNL     1     -21.560  38.603 -11.281  1.00  0.00     0.007 A 
ENDROOT
BRANCH  10  14
HETATM   14  N2  UNL     1     -19.917  36.946  -7.812  1.00  0.00    -0.321 N 
HETATM   15  C7  UNL     1     -19.638  35.584  -7.687  1.00  0.00     0.256 C 
HETATM   16  O3  UNL     1     -19.836  34.747  -8.589  1.00  0.00    -0.267 OA
ATOM     17  H2  UNL     1     -19.705  37.544  -7.014  1.00  0.00     0.169 HD
BRANCH  15  18
HETATM   18  C8  UNL     1     -19.069  35.038  -6.429  1.00  0.00     0.034 A 
HETATM   19  C9  UNL     1     -17.731  34.770  -6.305  1.00  0.00     0.019 A 
HETATM   20  C10 UNL     1     -17.219  34.244  -5.114  1.00  0.00     0.032 A 
HETATM   21  C11 UNL     1     -18.042  33.984  -4.041  1.00  0.00     0.059 A 
HETATM   22  C15 UNL     1     -19.390  34.260  -4.180  1.00  0.00     0.074 A 
HETATM   23  N6  UNL     1     -20.242  33.994  -3.077  1.00  0.00    -0.100 NA
HETATM   24  C16 UNL     1     -19.903  34.787  -5.376  1.00  0.00     0.045 A 
BRANCH  21  25
HETATM   25  N3  UNL     1     -17.551  33.450  -2.821  1.00  0.00    -0.327 N 
ATOM     26  H3  UNL     1     -17.349  34.076  -2.041  1.00  0.00     0.169 HD
BRANCH  25  27
HETATM   27  C12 UNL     1     -17.338  32.044  -2.672  1.00  0.00     0.175 C 
HETATM   28  N4  UNL     1     -16.368  31.414  -3.219  1.00  0.00    -0.361 N 
HETATM   29  C13 UNL     1     -16.372  30.005  -2.916  1.00  0.00     0.142 C 
ATOM     30  H4  UNL     1     -15.666  31.862  -3.808  1.00  0.00     0.162 HD
HETATM   31  C14 UNL     1     -17.362  29.930  -1.757  1.00  0.00     0.142 C 
HETATM   32  N5  UNL     1     -18.128  31.138  -1.924  1.00  0.00    -0.361 N 
ATOM     33  H5  UNL     1     -19.068  31.309  -1.568  1.00  0.00     0.162 HD
ENDBRANCH  25  27
ENDBRANCH  21  25
ENDBRANCH  15  18
ENDBRANCH  10  14
BRANCH  11  34
HETATM   34  N7  UNL     1     -22.577  36.395  -8.464  1.00  0.00    -0.306 N 
HETATM   35  C18 UNL     1     -23.408  36.838  -7.416  1.00  0.00     0.326 C 
HETATM   36  O4  UNL     1     -23.545  38.036  -7.148  1.00  0.00    -0.247 OA
HETATM   37  N8  UNL     1     -24.120  35.910  -6.630  1.00  0.00    -0.288 N 
ATOM     38  H8  UNL     1     -24.541  35.124  -7.125  1.00  0.00     0.172 HD
ATOM     39  H7  UNL     1     -22.534  35.388  -8.618  1.00  0.00     0.170 HD
BRANCH  37  40
HETATM   40  C19 UNL     1     -24.297  35.945  -5.347  1.00  0.00     0.153 A 
HETATM   41  N9  UNL     1     -23.558  35.442  -4.362  1.00  0.00    -0.335 N 
HETATM   42  C20 UNL     1     -23.941  35.611  -3.121  1.00  0.00     0.051 A 
ATOM     43  H9  UNL     1     -22.702  34.929  -4.571  1.00  0.00     0.168 HD
HETATM   44  C21 UNL     1     -23.292  35.152  -1.957  1.00  0.00     0.031 A 
HETATM   45  C25 UNL     1     -25.096  36.304  -2.897  1.00  0.00     0.035 A 
HETATM   46  C22 UNL     1     -23.772  35.379  -0.712  1.00  0.00     0.002 A 
HETATM   47  C23 UNL     1     -24.928  36.074  -0.491  1.00  0.00     0.002 A 
HETATM   48  C24 UNL     1     -25.592  36.538  -1.603  1.00  0.00     0.021 A 
HETATM   49  S1  UNL     1     -25.595  36.692  -4.481  1.00  0.00    -0.052 SA
ENDBRANCH  37  40
ENDBRANCH  11  34
TORSDOF 6
ENDMDL
MODEL 2
REMARK VINA RESULT: -8.980517568      1.936      2.636
REMARK  6 active torsions:
REMARK  status: ('A' for Active; 'I' for Inactive)
REMARK    1  A    between atoms: C6_10  and  N2_11 
REMARK       I    between atoms: N2_11  and  C7_13 
REMARK    2  A    between atoms: C7_13  and  C8_15 
REMARK    3  A    between atoms: C11_18  and  N3_19 
REMARK    4  A    between atoms: N3_19  and  C12_21 
REMARK    5  A    between atoms: C17_31  and  N7_32 
REMARK       I    between atoms: N7_32  and  C18_34 
REMARK       I    between atoms: C18_34  and  N8_36 
REMARK    6  A    between atoms: N8_36  and  C19_38 
ROOT
HETATM    1  C1  UNL     1     -22.071  41.296 -13.913  1.00  0.00     0.071 C 
HETATM    2  C2  UNL     1     -20.695  41.101 -13.417  1.00  0.00     0.040 A 
HETATM    3  N1  UNL     1     -19.613  41.684 -14.015  1.00  0.00    -0.261 N 
ATOM      4  H1  UNL     1     -19.744  42.277 -14.834  1.00  0.00     0.194 HD
HETATM    5  O1  UNL     1     -18.418  41.486 -13.542  1.00  0.00    -0.195 OA
HETATM    6  C3  UNL     1     -18.153  40.742 -12.499  1.00  0.00     0.316 A 
HETATM    7  O2  UNL     1     -17.000  40.577 -12.082  1.00  0.00    -0.257 OA
HETATM    8  C4  UNL     1     -19.231  40.125 -11.858  1.00  0.00     0.056 A 
HETATM    9  C5  UNL     1     -19.037  39.329 -10.758  1.00  0.00     0.050 A 
HETATM   10  C6  UNL     1     -20.055  38.704 -10.096  1.00  0.00     0.063 A 
HETATM   11  C17 UNL     1     -21.394  38.887 -10.566  1.00  0.00     0.064 A 
HETATM   12  C26 UNL     1     -21.560  39.682 -11.662  1.00  0.00     0.046 A 
HETATM   13  C27 UNL     1     -20.490  40.307 -12.318  1.00  0.00     0.007 A 
ENDROOT
BRANCH  10  14
HETATM   14  N2  UNL     1     -19.862  37.816  -9.019  1.00  0.00    -0.321 N 
HETATM   15  C7  UNL     1     -20.294  36.489  -8.984  1.00  0.00     0.256 C 
HETATM   16  O3  UNL     1     -20.894  35.927  -9.920  1.00  0.00    -0.267 OA
ATOM     17  H2  UNL     1     -19.369  38.172  -8.200  1.00  0.00     0.169 HD
BRANCH  15  18
HETATM   18  C8  UNL     1     -20.050  35.644  -7.788  1.00  0.00     0.034 A 
HETATM   19  C9  UNL     1     -21.080  35.038  -7.116  1.00  0.00     0.019 A 
HETATM   20  C10 UNL     1     -20.828  34.257  -5.984  1.00  0.00     0.032 A 
HETATM   21  C11 UNL     1     -19.545  34.076  -5.517  1.00  0.00     0.059 A 
HETATM   22  C15 UNL     1     -18.516  34.692  -6.205  1.00  0.00     0.074 A 
HETATM   23  N6  UNL     1     -17.192  34.508  -5.728  1.00  0.00    -0.100 NA
HETATM   24  C16 UNL     1     -18.769  35.478  -7.341  1.00  0.00     0.045 A 
BRANCH  21  25
HETATM   25  N3  UNL     1     -19.258  33.290  -4.370  1.00  0.00    -0.327 N 
ATOM     26  H3  UNL     1     -19.137  32.281  -4.467  1.00  0.00     0.169 HD
BRANCH  25  27
HETATM   27  C12 UNL     1     -19.137  33.894  -3.081  1.00  0.00     0.175 C 
HETATM   28  N4  UNL     1     -18.017  34.082  -2.490  1.00  0.00    -0.361 N 
HETATM   29  C13 UNL     1     -18.161  34.709  -1.200  1.00  0.00     0.142 C 
ATOM     30  H4  UNL     1     -17.118  33.815  -2.889  1.00  0.00     0.162 HD
HETATM   31  C14 UNL     1     -19.602  35.210  -1.248  1.00  0.00     0.142 C 
HETATM   32  N5  UNL     1     -20.189  34.374  -2.263  1.00  0.00    -0.361 N 
ATOM     33  H5  UNL     1     -21.181  34.165  -2.373  1.00  0.00     0.162 HD
ENDBRANCH  25  27
ENDBRANCH  21  25
ENDBRANCH  15  18
ENDBRANCH  10  14
BRANCH  11  34
HETATM   34  N7  UNL     1     -22.474  38.336  -9.863  1.00  0.00    -0.306 N 
HETATM   35  C18 UNL     1     -22.924  38.710  -8.581  1.00  0.00     0.326 C 
HETATM   36  O4  UNL     1     -22.383  39.612  -7.933  1.00  0.00    -0.247 OA
HETATM   37  N8  UNL     1     -24.022  38.054  -7.991  1.00  0.00    -0.288 N 
ATOM     38  H8  UNL     1     -24.807  37.839  -8.607  1.00  0.00     0.172 HD
ATOM     39  H7  UNL     1     -22.988  37.589 -10.327  1.00  0.00     0.170 HD
BRANCH  37  40
HETATM   40  C19 UNL     1     -24.145  37.693  -6.754  1.00  0.00     0.153 A 
HETATM   41  N9  UNL     1     -23.222  37.518  -5.812  1.00  0.00    -0.335 N 
HETATM   42  C20 UNL     1     -23.591  37.148  -4.611  1.00  0.00     0.051 A 
ATOM     43  H9  UNL     1     -22.236  37.670  -6.024  1.00  0.00     0.168 HD
HETATM   44  C21 UNL     1     -22.760  36.917  -3.496  1.00  0.00     0.031 A 
HETATM   45  C25 UNL     1     -24.923  36.957  -4.382  1.00  0.00     0.035 A 
HETATM   46  C22 UNL     1     -23.242  36.535  -2.291  1.00  0.00     0.002 A 
HETATM   47  C23 UNL     1     -24.576  36.344  -2.064  1.00  0.00     0.002 A 
HETATM   48  C24 UNL     1     -25.420  36.560  -3.129  1.00  0.00     0.021 A 
HETATM   49  S1  UNL     1     -25.604  37.316  -5.904  1.00  0.00    -0.052 SA
ENDBRANCH  37  40
ENDBRANCH  11  34
TORSDOF 6
ENDMDL
MODEL 3
REMARK VINA RESULT: -8.878602897      1.599      2.026
REMARK  6 active torsions:
REMARK  status: ('A' for Active; 'I' for Inactive)
REMARK    1  A    between atoms: C6_10  and  N2_11 
REMARK       I    between atoms: N2_11  and  C7_13 
REMARK    2  A    between atoms: C7_13  and  C8_15 
REMARK    3  A    between atoms: C11_18  and  N3_19 
REMARK    4  A    between atoms: N3_19  and  C12_21 
REMARK    5  A    between atoms: C17_31  and  N7_32 
REMARK       I    between atoms: N7_32  and  C18_34 
REMARK       I    between atoms: C18_34  and  N8_36 
REMARK    6  A    between atoms: N8_36  and  C19_38 
ROOT
HETATM    1  C1  UNL     1     -24.054  37.793 -11.144  1.00  0.00     0.071 C 
HETATM    2  C2  UNL     1     -22.659  38.187 -10.872  1.00  0.00     0.040 A 
HETATM    3  N1  UNL     1     -22.005  39.126 -11.621  1.00  0.00    -0.261 N 
ATOM      4  H1  UNL     1     -22.483  39.577 -12.400  1.00  0.00     0.194 HD
HETATM    5  O1  UNL     1     -20.775  39.444 -11.344  1.00  0.00    -0.195 OA
HETATM    6  C3  UNL     1     -20.080  38.918 -10.367  1.00  0.00     0.316 A 
HETATM    7  O2  UNL     1     -18.911  39.249 -10.138  1.00  0.00    -0.257 OA
HETATM    8  C4  UNL     1     -20.711  37.954  -9.576  1.00  0.00     0.056 A 
HETATM    9  C5  UNL     1     -20.051  37.355  -8.534  1.00  0.00     0.050 A 
HETATM   10  C6  UNL     1     -20.621  36.407  -7.732  1.00  0.00     0.063 A 
HETATM   11  C17 UNL     1     -21.974  36.017  -7.984  1.00  0.00     0.064 A 
HETATM   12  C26 UNL     1     -22.608  36.627  -9.028  1.00  0.00     0.046 A 
HETATM   13  C27 UNL     1     -21.990  37.595  -9.831  1.00  0.00     0.007 A 
ENDROOT
BRANCH  10  14
HETATM   14  N2  UNL     1     -19.929  35.723  -6.713  1.00  0.00    -0.321 N 
HETATM   15  C7  UNL     1     -19.750  34.340  -6.652  1.00  0.00     0.256 C 
HETATM   16  O3  UNL     1     -20.176  33.543  -7.511  1.00  0.00    -0.267 OA
ATOM     17  H2  UNL     1     -19.528  36.282  -5.960  1.00  0.00     0.169 HD
BRANCH  15  18
HETATM   18  C8  UNL     1     -19.015  33.719  -5.521  1.00  0.00     0.034 A 
HETATM   19  C9  UNL     1     -17.756  33.202  -5.682  1.00  0.00     0.019 A 
HETATM   20  C10 UNL     1     -17.087  32.611  -4.605  1.00  0.00     0.032 A 
HETATM   21  C11 UNL     1     -17.673  32.534  -3.361  1.00  0.00     0.059 A 
HETATM   22  C15 UNL     1     -18.944  33.060  -3.213  1.00  0.00     0.074 A 
HETATM   23  N6  UNL     1     -19.551  32.983  -1.933  1.00  0.00    -0.100 NA
HETATM   24  C16 UNL     1     -19.615  33.653  -4.295  1.00  0.00     0.045 A 
BRANCH  21  25
HETATM   25  N3  UNL     1     -17.020  31.939  -2.250  1.00  0.00    -0.327 N 
ATOM     26  H3  UNL     1     -17.217  32.278  -1.308  1.00  0.00     0.169 HD
BRANCH  25  27
HETATM   27  C12 UNL     1     -16.091  30.869  -2.435  1.00  0.00     0.175 C 
HETATM   28  N4  UNL     1     -16.441  29.650  -2.606  1.00  0.00    -0.361 N 
HETATM   29  C13 UNL     1     -15.318  28.761  -2.770  1.00  0.00     0.142 C 
ATOM     30  H4  UNL     1     -17.412  29.339  -2.624  1.00  0.00     0.162 HD
HETATM   31  C14 UNL     1     -14.172  29.737  -3.022  1.00  0.00     0.142 C 
HETATM   32  N5  UNL     1     -14.678  30.963  -2.461  1.00  0.00    -0.361 N 
ATOM     33  H5  UNL     1     -14.121  31.755  -2.141  1.00  0.00     0.162 HD
ENDBRANCH  25  27
ENDBRANCH  21  25
ENDBRANCH  15  18
ENDBRANCH  10  14
BRANCH  11  34
HETATM   34  N7  UNL     1     -22.624  35.115  -7.131  1.00  0.00    -0.306 N 
HETATM   35  C18 UNL     1     -23.686  35.403  -6.251  1.00  0.00     0.326 C 
HETATM   36  O4  UNL     1     -24.171  36.535  -6.156  1.00  0.00    -0.247 OA
HETATM   37  N8  UNL     1     -24.233  34.391  -5.439  1.00  0.00    -0.288 N 
ATOM     38  H8  UNL     1     -24.356  33.476  -5.874  1.00  0.00     0.172 HD
ATOM     39  H7  UNL     1     -22.295  34.151  -7.149  1.00  0.00     0.170 HD
BRANCH  37  40
HETATM   40  C19 UNL     1     -24.598  34.493  -4.200  1.00  0.00     0.153 A 
HETATM   41  N9  UNL     1     -24.784  35.571  -3.444  1.00  0.00    -0.335 N 
HETATM   42  C20 UNL     1     -25.164  35.425  -2.199  1.00  0.00     0.051 A 
ATOM     43  H9  UNL     1     -24.630  36.502  -3.829  1.00  0.00     0.168 HD
HETATM   44  C21 UNL     1     -25.409  36.443  -1.256  1.00  0.00     0.031 A 
HETATM   45  C25 UNL     1     -25.354  34.156  -1.734  1.00  0.00     0.035 A 
HETATM   46  C22 UNL     1     -25.801  36.188   0.014  1.00  0.00     0.002 A 
HETATM   47  C23 UNL     1     -25.991  34.916   0.477  1.00  0.00     0.002 A 
HETATM   48  C24 UNL     1     -25.762  33.893  -0.415  1.00  0.00     0.021 A 
HETATM   49  S1  UNL     1     -24.978  33.211  -3.103  1.00  0.00    -0.052 SA
ENDBRANCH  37  40
ENDBRANCH  11  34
TORSDOF 6
ENDMDL
MODEL 4
REMARK VINA RESULT: -8.874745608      2.214      2.772
REMARK  6 active torsions:
REMARK  status: ('A' for Active; 'I' for Inactive)
REMARK    1  A    between atoms: C6_10  and  N2_11 
REMARK       I    between atoms: N2_11  and  C7_13 
REMARK    2  A    between atoms: C7_13  and  C8_15 
REMARK    3  A    between atoms: C11_18  and  N3_19 
REMARK    4  A    between atoms: N3_19  and  C12_21 
REMARK    5  A    between atoms: C17_31  and  N7_32 
REMARK       I    between atoms: N7_32  and  C18_34 
REMARK       I    between atoms: C18_34  and  N8_36 
REMARK    6  A    between atoms: N8_36  and  C19_38 
ROOT
HETATM    1  C1  UNL     1     -25.393  41.315  -9.014  1.00  0.00     0.071 C 
HETATM    2  C2  UNL     1     -24.363  40.701  -9.873  1.00  0.00     0.040 A 
HETATM    3  N1  UNL     1     -24.312  40.919 -11.222  1.00  0.00    -0.261 N 
ATOM      4  H1  UNL     1     -25.004  41.524 -11.666  1.00  0.00     0.194 HD
HETATM    5  O1  UNL     1     -23.386  40.359 -11.941  1.00  0.00    -0.195 OA
HETATM    6  C3  UNL     1     -22.459  39.569 -11.463  1.00  0.00     0.316 A 
HETATM    7  O2  UNL     1     -21.595  39.054 -12.183  1.00  0.00    -0.257 OA
HETATM    8  C4  UNL     1     -22.475  39.318 -10.088  1.00  0.00     0.056 A 
HETATM    9  C5  UNL     1     -21.538  38.500  -9.509  1.00  0.00     0.050 A 
HETATM   10  C6  UNL     1     -21.510  38.223  -8.172  1.00  0.00     0.063 A 
HETATM   11  C17 UNL     1     -22.502  38.813  -7.327  1.00  0.00     0.064 A 
HETATM   12  C26 UNL     1     -23.423  39.622  -7.927  1.00  0.00     0.046 A 
HETATM   13  C27 UNL     1     -23.422  39.883  -9.304  1.00  0.00     0.007 A 
ENDROOT
BRANCH  10  14
HETATM   14  N2  UNL     1     -20.608  37.319  -7.577  1.00  0.00    -0.321 N 
HETATM   15  C7  UNL     1     -20.561  35.947  -7.828  1.00  0.00     0.256 C 
HETATM   16  O3  UNL     1     -21.313  35.359  -8.629  1.00  0.00    -0.267 OA
ATOM     17  H2  UNL     1     -19.936  37.698  -6.910  1.00  0.00     0.169 HD
BRANCH  15  18
HETATM   18  C8  UNL     1     -19.575  35.081  -7.132  1.00  0.00     0.034 A 
HETATM   19  C9  UNL     1     -19.970  34.121  -6.237  1.00  0.00     0.019 A 
HETATM   20  C10 UNL     1     -19.023  33.326  -5.584  1.00  0.00     0.032 A 
HETATM   21  C11 UNL     1     -17.676  33.486  -5.821  1.00  0.00     0.059 A 
HETATM   22  C15 UNL     1     -17.292  34.459  -6.726  1.00  0.00     0.074 A 
HETATM   23  N6  UNL     1     -15.904  34.627  -6.974  1.00  0.00    -0.100 NA
HETATM   24  C16 UNL     1     -18.243  35.257  -7.382  1.00  0.00     0.045 A 
BRANCH  21  25
HETATM   25  N3  UNL     1     -16.692  32.695  -5.172  1.00  0.00    -0.327 N 
ATOM     26  H3  UNL     1     -15.772  32.585  -5.599  1.00  0.00     0.169 HD
BRANCH  25  27
HETATM   27  C12 UNL     1     -16.975  32.053  -3.927  1.00  0.00     0.175 C 
HETATM   28  N4  UNL     1     -17.812  32.505  -3.071  1.00  0.00    -0.361 N 
HETATM   29  C13 UNL     1     -17.919  31.676  -1.898  1.00  0.00     0.142 C 
ATOM     30  H4  UNL     1     -18.347  33.363  -3.206  1.00  0.00     0.162 HD
HETATM   31  C14 UNL     1     -17.224  30.394  -2.347  1.00  0.00     0.142 C 
HETATM   32  N5  UNL     1     -16.405  30.852  -3.440  1.00  0.00    -0.361 N 
ATOM     33  H5  UNL     1     -15.566  30.395  -3.797  1.00  0.00     0.162 HD
ENDBRANCH  25  27
ENDBRANCH  21  25
ENDBRANCH  15  18
ENDBRANCH  10  14
BRANCH  11  34
HETATM   34  N7  UNL     1     -22.455  38.626  -5.938  1.00  0.00    -0.306 N 
HETATM   35  C18 UNL     1     -22.584  37.405  -5.248  1.00  0.00     0.326 C 
HETATM   36  O4  UNL     1     -22.749  36.332  -5.838  1.00  0.00    -0.247 OA
HETATM   37  N8  UNL     1     -22.530  37.372  -3.841  1.00  0.00    -0.288 N 
ATOM     38  H8  UNL     1     -21.831  37.970  -3.399  1.00  0.00     0.172 HD
ATOM     39  H7  UNL     1     -22.311  39.460  -5.369  1.00  0.00     0.170 HD
BRANCH  37  40
HETATM   40  C19 UNL     1     -23.270  36.667  -3.045  1.00  0.00     0.153 A 
HETATM   41  N9  UNL     1     -24.051  37.042  -2.037  1.00  0.00    -0.335 N 
HETATM   42  C20 UNL     1     -24.719  36.135  -1.369  1.00  0.00     0.051 A 
ATOM     43  H9  UNL     1     -24.130  38.028  -1.787  1.00  0.00     0.168 HD
HETATM   44  C21 UNL     1     -25.589  36.345  -0.280  1.00  0.00     0.031 A 
HETATM   45  C25 UNL     1     -24.576  34.831  -1.745  1.00  0.00     0.035 A 
HETATM   46  C22 UNL     1     -26.234  35.334   0.347  1.00  0.00     0.002 A 
HETATM   47  C23 UNL     1     -26.090  34.029  -0.032  1.00  0.00     0.002 A 
HETATM   48  C24 UNL     1     -25.248  33.784  -1.092  1.00  0.00     0.021 A 
HETATM   49  S1  UNL     1     -23.485  34.950  -3.050  1.00  0.00    -0.052 SA
ENDBRANCH  37  40
ENDBRANCH  11  34
TORSDOF 6
ENDMDL
MODEL 5
REMARK VINA RESULT: -8.831755862      3.956      8.717
REMARK  6 active torsions:
REMARK  status: ('A' for Active; 'I' for Inactive)
REMARK    1  A    between atoms: C6_10  and  N2_11 
REMARK       I    between atoms: N2_11  and  C7_13 
REMARK    2  A    between atoms: C7_13  and  C8_15 
REMARK    3  A    between atoms: C11_18  and  N3_19 
REMARK    4  A    between atoms: N3_19  and  C12_21 
REMARK    5  A    between atoms: C17_31  and  N7_32 
REMARK       I    between atoms: N7_32  and  C18_34 
REMARK       I    between atoms: C18_34  and  N8_36 
REMARK    6  A    between atoms: N8_36  and  C19_38 
ROOT
HETATM    1  C1  UNL     1     -17.569  32.062  -3.478  1.00  0.00     0.071 C 
HETATM    2  C2  UNL     1     -17.545  33.036  -4.587  1.00  0.00     0.040 A 
HETATM    3  N1  UNL     1     -16.413  33.290  -5.312  1.00  0.00    -0.261 N 
ATOM      4  H1  UNL     1     -15.548  32.798  -5.091  1.00  0.00     0.194 HD
HETATM    5  O1  UNL     1     -16.438  34.155  -6.282  1.00  0.00    -0.195 OA
HETATM    6  C3  UNL     1     -17.498  34.833  -6.637  1.00  0.00     0.316 A 
HETATM    7  O2  UNL     1     -17.479  35.649  -7.566  1.00  0.00    -0.257 OA
HETATM    8  C4  UNL     1     -18.677  34.605  -5.921  1.00  0.00     0.056 A 
HETATM    9  C5  UNL     1     -19.832  35.277  -6.231  1.00  0.00     0.050 A 
HETATM   10  C6  UNL     1     -21.009  35.092  -5.563  1.00  0.00     0.063 A 
HETATM   11  C17 UNL     1     -21.047  34.149  -4.488  1.00  0.00     0.064 A 
HETATM   12  C26 UNL     1     -19.885  33.495  -4.198  1.00  0.00     0.046 A 
HETATM   13  C27 UNL     1     -18.694  33.712  -4.905  1.00  0.00     0.007 A 
ENDROOT
BRANCH  10  14
HETATM   14  N2  UNL     1     -22.179  35.835  -5.814  1.00  0.00    -0.321 N 
HETATM   15  C7  UNL     1     -23.025  35.657  -6.910  1.00  0.00     0.256 C 
HETATM   16  O3  UNL     1     -22.846  34.800  -7.797  1.00  0.00    -0.267 OA
ATOM     17  H2  UNL     1     -22.428  36.560  -5.141  1.00  0.00     0.169 HD
BRANCH  15  18
HETATM   18  C8  UNL     1     -24.229  36.509  -7.085  1.00  0.00     0.034 A 
HETATM   19  C9  UNL     1     -24.128  37.864  -7.268  1.00  0.00     0.019 A 
HETATM   20  C10 UNL     1     -25.276  38.648  -7.418  1.00  0.00     0.032 A 
HETATM   21  C11 UNL     1     -26.531  38.083  -7.386  1.00  0.00     0.059 A 
HETATM   22  C15 UNL     1     -26.618  36.715  -7.200  1.00  0.00     0.074 A 
HETATM   23  N6  UNL     1     -27.910  36.128  -7.167  1.00  0.00    -0.100 NA
HETATM   24  C16 UNL     1     -25.465  35.928  -7.049  1.00  0.00     0.045 A 
BRANCH  21  25
HETATM   25  N3  UNL     1     -27.715  38.853  -7.534  1.00  0.00    -0.327 N 
ATOM     26  H3  UNL     1     -28.086  39.035  -8.467  1.00  0.00     0.169 HD
BRANCH  25  27
HETATM   27  C12 UNL     1     -28.393  39.378  -6.390  1.00  0.00     0.175 C 
HETATM   28  N4  UNL     1     -28.786  40.593  -6.296  1.00  0.00    -0.361 N 
HETATM   29  C13 UNL     1     -29.444  40.874  -5.046  1.00  0.00     0.142 C 
ATOM     30  H4  UNL     1     -28.646  41.288  -7.029  1.00  0.00     0.162 HD
HETATM   31  C14 UNL     1     -29.705  39.474  -4.499  1.00  0.00     0.142 C 
HETATM   32  N5  UNL     1     -28.738  38.677  -5.209  1.00  0.00    -0.361 N 
ATOM     33  H5  UNL     1     -28.368  37.774  -4.915  1.00  0.00     0.162 HD
ENDBRANCH  25  27
ENDBRANCH  21  25
ENDBRANCH  15  18
ENDBRANCH  10  14
BRANCH  11  34
HETATM   34  N7  UNL     1     -22.255  33.864  -3.836  1.00  0.00    -0.306 N 
HETATM   35  C18 UNL     1     -23.241  32.948  -4.252  1.00  0.00     0.326 C 
HETATM   36  O4  UNL     1     -23.117  32.272  -5.278  1.00  0.00    -0.247 OA
HETATM   37  N8  UNL     1     -24.418  32.776  -3.497  1.00  0.00    -0.288 N 
ATOM     38  H8  UNL     1     -24.309  32.762  -2.483  1.00  0.00     0.172 HD
ATOM     39  H7  UNL     1     -22.438  34.371  -2.971  1.00  0.00     0.170 HD
BRANCH  37  40
HETATM   40  C19 UNL     1     -25.624  32.635  -3.949  1.00  0.00     0.153 A 
HETATM   41  N9  UNL     1     -26.264  31.548  -4.369  1.00  0.00    -0.335 N 
HETATM   42  C20 UNL     1     -27.502  31.650  -4.783  1.00  0.00     0.051 A 
ATOM     43  H9  UNL     1     -25.795  30.642  -4.369  1.00  0.00     0.168 HD
HETATM   44  C21 UNL     1     -28.332  30.616  -5.260  1.00  0.00     0.031 A 
HETATM   45  C25 UNL     1     -28.082  32.886  -4.764  1.00  0.00     0.035 A 
HETATM   46  C22 UNL     1     -29.604  30.826  -5.668  1.00  0.00     0.002 A 
HETATM   47  C23 UNL     1     -30.183  32.064  -5.647  1.00  0.00     0.002 A 
HETATM   48  C24 UNL     1     -29.404  33.102  -5.188  1.00  0.00     0.021 A 
HETATM   49  S1  UNL     1     -26.826  33.863  -4.149  1.00  0.00    -0.052 SA
ENDBRANCH  37  40
ENDBRANCH  11  34
TORSDOF 6
ENDMDL
