MODEL 1
REMARK VINA RESULT: -6.809115737      0.000      0.000
REMARK  1 active torsions:
REMARK  status: ('A' for Active; 'I' for Inactive)
REMARK    1  A    between atoms: N1_6  and  O1_7 
ROOT
HETATM    1  C1  UNL     1       2.672  55.266  -1.425  1.00  0.00     0.073 C 
HETATM    2  C2  UNL     1       3.148  54.988  -2.840  1.00  0.00     0.063 A 
HETATM    3  C3  UNL     1       2.902  53.863  -3.522  1.00  0.00     0.051 A 
HETATM    4  C4  UNL     1       3.407  53.777  -4.790  1.00  0.00     0.079 A 
HETATM    5  S1  UNL     1       4.202  55.285  -4.954  1.00  0.00     0.025 SA
HETATM    6  N1  UNL     1       3.866  55.940  -3.445  1.00  0.00    -0.195 N 
HETATM    7  S2  UNL     1       3.201  52.367  -5.882  1.00  0.00    -0.120 SA
HETATM    8  C5  UNL     1       4.643  52.142  -6.950  1.00  0.00     0.082 C 
HETATM    9  C6  UNL     1       5.598  51.204  -6.260  1.00  0.00     0.038 C 
HETATM   10  C7  UNL     1       5.281  49.769  -6.684  1.00  0.00     0.233 C 
HETATM   11  N2  UNL     1       6.066  48.847  -5.891  1.00  0.00    -0.074 N 
ATOM     12  H21 UNL     1       6.580  49.331  -5.156  1.00  0.00     0.277 HD
ATOM     13  H22 UNL     1       6.856  48.479  -6.422  1.00  0.00     0.277 HD
HETATM   14  C8  UNL     1       5.254  47.786  -5.354  1.00  0.00     0.251 C 
HETATM   15  C9  UNL     1       5.008  47.924  -3.876  1.00  0.00     0.150 C 
HETATM   16  N3  UNL     1       3.585  47.741  -3.656  1.00  0.00    -0.359 N 
ATOM     17  H3  UNL     1       3.139  46.909  -4.043  1.00  0.00     0.162 HD
HETATM   18  C10 UNL     1       2.782  48.656  -2.933  1.00  0.00     0.217 C 
HETATM   19  O2  UNL     1       1.584  48.846  -3.271  1.00  0.00    -0.274 OA
HETATM   20  C11 UNL     1       3.344  49.406  -1.765  1.00  0.00     0.103 C 
HETATM   21  C12 UNL     1       2.324  50.340  -1.202  1.00  0.00     0.020 C 
HETATM   22  C13 UNL     1       2.642  51.787  -1.421  1.00  0.00     0.080 C 
HETATM   23  S3  UNL     1       1.968  52.394  -2.992  1.00  0.00    -0.126 SA
ENDROOT
BRANCH   6  24
HETATM   24  O1  UNL     1       4.276  57.180  -3.015  1.00  0.00    -0.276 OA
ATOM     25  H1  UNL     1       5.138  57.578  -2.977  1.00  0.00     0.246 HD
ENDBRANCH   6  24
TORSDOF 1
ENDMDL
MODEL 2
REMARK VINA RESULT: -6.753338637      2.048      2.351
REMARK  1 active torsions:
REMARK  status: ('A' for Active; 'I' for Inactive)
REMARK    1  A    between atoms: N1_6  and  O1_7 
ROOT
HETATM    1  C1  UNL     1       4.651  55.375  -1.297  1.00  0.00     0.073 C 
HETATM    2  C2  UNL     1       4.227  55.551  -2.744  1.00  0.00     0.063 A 
HETATM    3  C3  UNL     1       3.320  54.793  -3.373  1.00  0.00     0.051 A 
HETATM    4  C4  UNL     1       3.056  55.090  -4.682  1.00  0.00     0.079 A 
HETATM    5  S1  UNL     1       4.099  56.420  -4.957  1.00  0.00     0.025 SA
HETATM    6  N1  UNL     1       4.805  56.537  -3.439  1.00  0.00    -0.195 N 
HETATM    7  S2  UNL     1       1.882  54.209  -5.715  1.00  0.00    -0.120 SA
HETATM    8  C5  UNL     1       2.423  54.166  -7.441  1.00  0.00     0.082 C 
HETATM    9  C6  UNL     1       3.231  52.912  -7.649  1.00  0.00     0.038 C 
HETATM   10  C7  UNL     1       2.298  51.787  -8.098  1.00  0.00     0.233 C 
HETATM   11  N2  UNL     1       3.026  50.536  -8.124  1.00  0.00    -0.074 N 
ATOM     12  H21 UNL     1       3.966  50.644  -7.744  1.00  0.00     0.277 HD
ATOM     13  H22 UNL     1       3.271  50.268  -9.077  1.00  0.00     0.277 HD
HETATM   14  C8  UNL     1       2.304  49.488  -7.452  1.00  0.00     0.251 C 
HETATM   15  C9  UNL     1       2.897  49.126  -6.118  1.00  0.00     0.150 C 
HETATM   16  N3  UNL     1       1.811  49.092  -5.156  1.00  0.00    -0.359 N 
ATOM     17  H3  UNL     1       0.990  48.528  -5.375  1.00  0.00     0.162 HD
HETATM   18  C10 UNL     1       1.831  49.798  -3.929  1.00  0.00     0.217 C 
HETATM   19  O2  UNL     1       0.764  50.273  -3.458  1.00  0.00    -0.274 OA
HETATM   20  C11 UNL     1       3.114  49.990  -3.180  1.00  0.00     0.103 C 
HETATM   21  C12 UNL     1       2.886  50.804  -1.949  1.00  0.00     0.020 C 
HETATM   22  C13 UNL     1       3.499  52.169  -2.004  1.00  0.00     0.080 C 
HETATM   23  S3  UNL     1       2.364  53.389  -2.720  1.00  0.00    -0.126 SA
ENDROOT
BRANCH   6  24
HETATM   24  O1  UNL     1       5.753  57.467  -3.079  1.00  0.00    -0.276 OA
ATOM     25  H1  UNL     1       6.120  58.203  -3.553  1.00  0.00     0.246 HD
ENDBRANCH   6  24
TORSDOF 1
ENDMDL
MODEL 3
REMARK VINA RESULT: -6.624648895      2.963      6.393
REMARK  1 active torsions:
REMARK  status: ('A' for Active; 'I' for Inactive)
REMARK    1  A    between atoms: N1_6  and  O1_7 
ROOT
HETATM    1  C1  UNL     1       1.889  50.430  -0.779  1.00  0.00     0.073 C 
HETATM    2  C2  UNL     1       1.663  50.345  -2.278  1.00  0.00     0.063 A 
HETATM    3  C3  UNL     1       2.300  51.088  -3.191  1.00  0.00     0.051 A 
HETATM    4  C4  UNL     1       1.974  50.882  -4.504  1.00  0.00     0.079 A 
HETATM    5  S1  UNL     1       0.788  49.652  -4.382  1.00  0.00     0.025 SA
HETATM    6  N1  UNL     1       0.760  49.460  -2.715  1.00  0.00    -0.195 N 
HETATM    7  S2  UNL     1       2.699  51.762  -5.889  1.00  0.00    -0.120 SA
HETATM    8  C5  UNL     1       1.505  51.983  -7.230  1.00  0.00     0.082 C 
HETATM    9  C6  UNL     1       0.807  53.302  -7.026  1.00  0.00     0.038 C 
HETATM   10  C7  UNL     1       1.576  54.394  -7.769  1.00  0.00     0.233 C 
HETATM   11  N2  UNL     1       1.025  55.689  -7.433  1.00  0.00    -0.074 N 
ATOM     12  H21 UNL     1       0.318  55.614  -6.701  1.00  0.00     0.277 HD
ATOM     13  H22 UNL     1       0.438  56.050  -8.185  1.00  0.00     0.277 HD
HETATM   14  C8  UNL     1       2.056  56.627  -7.074  1.00  0.00     0.251 C 
HETATM   15  C9  UNL     1       2.100  56.918  -5.598  1.00  0.00     0.150 C 
HETATM   16  N3  UNL     1       3.483  56.800  -5.175  1.00  0.00    -0.359 N 
ATOM     17  H3  UNL     1       4.192  57.322  -5.690  1.00  0.00     0.162 HD
HETATM   18  C10 UNL     1       3.900  55.998  -4.085  1.00  0.00     0.217 C 
HETATM   19  O2  UNL     1       5.015  55.415  -4.123  1.00  0.00    -0.274 OA
HETATM   20  C11 UNL     1       3.025  55.834  -2.880  1.00  0.00     0.103 C 
HETATM   21  C12 UNL     1       3.659  54.908  -1.894  1.00  0.00     0.020 C 
HETATM   22  C13 UNL     1       2.950  53.597  -1.752  1.00  0.00     0.080 C 
HETATM   23  S3  UNL     1       3.569  52.366  -2.931  1.00  0.00    -0.126 SA
ENDROOT
BRANCH   6  24
HETATM   24  O1  UNL     1      -0.042  48.571  -2.037  1.00  0.00    -0.276 OA
ATOM     25  H1  UNL     1      -0.174  48.428  -1.108  1.00  0.00     0.246 HD
ENDBRANCH   6  24
TORSDOF 1
ENDMDL
MODEL 4
REMARK VINA RESULT: -6.422133078      2.692      6.767
REMARK  1 active torsions:
REMARK  status: ('A' for Active; 'I' for Inactive)
REMARK    1  A    between atoms: N1_6  and  O1_7 
ROOT
HETATM    1  C1  UNL     1       6.293  47.537  -4.772  1.00  0.00     0.073 C 
HETATM    2  C2  UNL     1       5.542  48.276  -3.679  1.00  0.00     0.063 A 
HETATM    3  C3  UNL     1       4.523  49.118  -3.886  1.00  0.00     0.051 A 
HETATM    4  C4  UNL     1       3.958  49.701  -2.785  1.00  0.00     0.079 A 
HETATM    5  S1  UNL     1       4.894  49.032  -1.516  1.00  0.00     0.025 SA
HETATM    6  N1  UNL     1       5.932  48.069  -2.416  1.00  0.00    -0.195 N 
HETATM    7  S2  UNL     1       2.586  50.857  -2.829  1.00  0.00    -0.120 SA
HETATM    8  C5  UNL     1       2.711  52.081  -1.502  1.00  0.00     0.082 C 
HETATM    9  C6  UNL     1       3.462  53.275  -2.032  1.00  0.00     0.038 C 
HETATM   10  C7  UNL     1       2.462  54.272  -2.619  1.00  0.00     0.233 C 
HETATM   11  N2  UNL     1       3.178  55.333  -3.294  1.00  0.00    -0.074 N 
ATOM     12  H21 UNL     1       4.179  55.143  -3.329  1.00  0.00     0.277 HD
ATOM     13  H22 UNL     1       3.197  56.185  -2.733  1.00  0.00     0.277 HD
HETATM   14  C8  UNL     1       2.644  55.581  -4.608  1.00  0.00     0.251 C 
HETATM   15  C9  UNL     1       3.535  55.079  -5.711  1.00  0.00     0.150 C 
HETATM   16  N3  UNL     1       2.703  54.325  -6.631  1.00  0.00    -0.359 N 
ATOM     17  H3  UNL     1       1.859  54.770  -6.993  1.00  0.00     0.162 HD
HETATM   18  C10 UNL     1       3.001  53.007  -7.053  1.00  0.00     0.217 C 
HETATM   19  O2  UNL     1       2.067  52.192  -7.276  1.00  0.00    -0.274 OA
HETATM   20  C11 UNL     1       4.420  52.567  -7.239  1.00  0.00     0.103 C 
HETATM   21  C12 UNL     1       4.476  51.130  -7.638  1.00  0.00     0.020 C 
HETATM   22  C13 UNL     1       5.045  50.230  -6.585  1.00  0.00     0.080 C 
HETATM   23  S3  UNL     1       3.760  49.612  -5.464  1.00  0.00    -0.126 SA
ENDROOT
BRANCH   6  24
HETATM   24  O1  UNL     1       6.927  47.277  -1.891  1.00  0.00    -0.276 OA
ATOM     25  H1  UNL     1       7.733  46.947  -2.271  1.00  0.00     0.246 HD
ENDBRANCH   6  24
TORSDOF 1
ENDMDL
MODEL 5
REMARK VINA RESULT: -6.321816722      1.699      1.796
REMARK  1 active torsions:
REMARK  status: ('A' for Active; 'I' for Inactive)
REMARK    1  A    between atoms: N1_6  and  O1_7 
ROOT
HETATM    1  C1  UNL     1       3.600  55.528  -1.532  1.00  0.00     0.073 C 
HETATM    2  C2  UNL     1       3.331  55.375  -3.019  1.00  0.00     0.063 A 
HETATM    3  C3  UNL     1       2.576  54.414  -3.564  1.00  0.00     0.051 A 
HETATM    4  C4  UNL     1       2.439  54.422  -4.925  1.00  0.00     0.079 A 
HETATM    5  S1  UNL     1       3.380  55.784  -5.364  1.00  0.00     0.025 SA
HETATM    6  N1  UNL     1       3.892  56.268  -3.841  1.00  0.00    -0.195 N 
HETATM    7  S2  UNL     1       1.478  53.233  -5.865  1.00  0.00    -0.120 SA
HETATM    8  C5  UNL     1       2.215  52.922  -7.487  1.00  0.00     0.082 C 
HETATM    9  C6  UNL     1       3.153  51.750  -7.361  1.00  0.00     0.038 C 
HETATM   10  C7  UNL     1       2.386  50.462  -7.658  1.00  0.00     0.233 C 
HETATM   11  N2  UNL     1       3.223  49.320  -7.362  1.00  0.00    -0.074 N 
ATOM     12  H21 UNL     1       4.099  49.605  -6.924  1.00  0.00     0.277 HD
ATOM     13  H22 UNL     1       3.600  48.904  -8.214  1.00  0.00     0.277 HD
HETATM   14  C8  UNL     1       2.528  48.345  -6.563  1.00  0.00     0.251 C 
HETATM   15  C9  UNL     1       2.995  48.315  -5.133  1.00  0.00     0.150 C 
HETATM   16  N3  UNL     1       1.813  48.343  -4.291  1.00  0.00    -0.359 N 
ATOM     17  H3  UNL     1       1.077  47.659  -4.469  1.00  0.00     0.162 HD
HETATM   18  C10 UNL     1       1.626  49.269  -3.237  1.00  0.00     0.217 C 
HETATM   19  O2  UNL     1       0.473  49.702  -2.975  1.00  0.00    -0.274 OA
HETATM   20  C11 UNL     1       2.792  49.744  -2.424  1.00  0.00     0.103 C 
HETATM   21  C12 UNL     1       2.350  50.748  -1.411  1.00  0.00     0.020 C 
HETATM   22  C13 UNL     1       2.837  52.137  -1.682  1.00  0.00     0.080 C 
HETATM   23  S3  UNL     1       1.684  53.061  -2.734  1.00  0.00    -0.126 SA
ENDROOT
BRANCH   6  24
HETATM   24  O1  UNL     1       4.703  57.351  -3.589  1.00  0.00    -0.276 OA
ATOM     25  H1  UNL     1       4.773  58.196  -4.017  1.00  0.00     0.246 HD
ENDBRANCH   6  24
TORSDOF 1
ENDMDL
