MODEL 1
REMARK VINA RESULT: -9.350376194      0.000      0.000
REMARK  5 active torsions:
REMARK  status: ('A' for Active; 'I' for Inactive)
REMARK    1  A    between atoms: N1_1  and  C1_4 
REMARK    2  A    between atoms: C4_12  and  N4_13 
REMARK    3  A    between atoms: N4_13  and  N5_15 
REMARK    4  A    between atoms: N5_15  and  C5_17 
REMARK    5  A    between atoms: N8_26  and  N9_27 
ROOT
HETATM    1  N5  UNL     1      12.409  -8.314  12.132  1.00  0.00    -0.129 N 
ATOM      2  H5  UNL     1      12.254  -8.878  11.297  1.00  0.00     0.205 HD
ENDROOT
BRANCH   1   3
HETATM    3  N4  UNL     1      12.982  -8.977  13.196  1.00  0.00    -0.281 N 
ATOM      4  H4  UNL     1      12.418  -9.426  13.918  1.00  0.00     0.187 HD
BRANCH   3   5
HETATM    5  C4  UNL     1      14.415  -9.000  13.230  1.00  0.00     0.107 A 
HETATM    6  C1  UNL     1      15.179  -8.174  14.000  1.00  0.00     0.132 A 
HETATM    7  N2  UNL     1      16.509  -8.262  13.917  1.00  0.00    -0.293 N 
HETATM    8  C2  UNL     1      17.086  -9.160  13.076  1.00  0.00     0.325 A 
ATOM      9  H2  UNL     1      17.095  -7.651  14.488  1.00  0.00     0.172 HD
HETATM   10  O1  UNL     1      18.347  -9.208  13.025  1.00  0.00    -0.247 OA
HETATM   11  N3  UNL     1      16.369  -9.984  12.305  1.00  0.00    -0.316 N 
HETATM   12  C3  UNL     1      15.037  -9.901  12.387  1.00  0.00     0.127 A 
ATOM     13  H3  UNL     1      16.821 -10.651  11.678  1.00  0.00     0.170 HD
BRANCH   6  14
HETATM   14  N1  UNL     1      14.630  -7.333  14.783  1.00  0.00    -0.383 N 
ATOM     15  H12 UNL     1      15.201  -6.679  15.319  1.00  0.00     0.157 HD
ATOM     16  H11 UNL     1      13.616  -7.302  14.887  1.00  0.00     0.157 HD
ENDBRANCH   6  14
ENDBRANCH   3   5
ENDBRANCH   1   3
BRANCH   1  17
HETATM   17  C5  UNL     1      12.007  -6.969  12.033  1.00  0.00     0.726 A 
HETATM   18  N6  UNL     1      12.904  -5.962  12.210  1.00  0.00    -0.138 N 
HETATM   19  C6  UNL     1      12.581  -4.664  12.155  1.00  0.00     0.342 A 
ATOM     20  H6  UNL     1      13.876  -6.209  12.397  1.00  0.00     0.189 HD
HETATM   21  O2  UNL     1      13.480  -3.776  12.331  1.00  0.00    -0.246 OA
HETATM   22  N7  UNL     1      11.303  -4.350  11.915  1.00  0.00    -0.258 N 
HETATM   23  C7  UNL     1      10.384  -5.312  11.735  1.00  0.00     0.363 A 
ATOM     24  H7  UNL     1      11.025  -3.370  11.867  1.00  0.00     0.175 HD
HETATM   25  O3  UNL     1       9.166  -5.032  11.507  1.00  0.00    -0.244 OA
HETATM   26  N8  UNL     1      10.737  -6.642  11.794  1.00  0.00    -0.036 N 
BRANCH  26  27
HETATM   27  N9  UNL     1       9.782  -7.622  11.603  1.00  0.00    -0.320 N 
ATOM     28  H92 UNL     1      10.044  -8.607  11.641  1.00  0.00     0.178 HD
ATOM     29  H91 UNL     1       8.809  -7.371  11.426  1.00  0.00     0.178 HD
ENDBRANCH  26  27
ENDBRANCH   1  17
TORSDOF 5
ENDMDL
MODEL 2
REMARK VINA RESULT: -9.012340222      1.247      1.713
REMARK  5 active torsions:
REMARK  status: ('A' for Active; 'I' for Inactive)
REMARK    1  A    between atoms: N1_1  and  C1_4 
REMARK    2  A    between atoms: C4_12  and  N4_13 
REMARK    3  A    between atoms: N4_13  and  N5_15 
REMARK    4  A    between atoms: N5_15  and  C5_17 
REMARK    5  A    between atoms: N8_26  and  N9_27 
ROOT
HETATM    1  N5  UNL     1      12.314  -7.974  12.699  1.00  0.00    -0.129 N 
ATOM      2  H5  UNL     1      11.719  -8.713  12.325  1.00  0.00     0.205 HD
ENDROOT
BRANCH   1   3
HETATM    3  N4  UNL     1      13.381  -8.403  13.460  1.00  0.00    -0.281 N 
ATOM      4  H4  UNL     1      13.423  -8.247  14.467  1.00  0.00     0.187 HD
BRANCH   3   5
HETATM    5  C4  UNL     1      14.429  -9.081  12.755  1.00  0.00     0.107 A 
HETATM    6  C1  UNL     1      14.555 -10.437  12.680  1.00  0.00     0.132 A 
HETATM    7  N2  UNL     1      15.599 -10.954  12.026  1.00  0.00    -0.293 N 
HETATM    8  C2  UNL     1      16.518 -10.137  11.448  1.00  0.00     0.325 A 
ATOM      9  H2  UNL     1      15.706 -11.967  11.961  1.00  0.00     0.172 HD
HETATM   10  O1  UNL     1      17.492 -10.666  10.843  1.00  0.00    -0.247 OA
HETATM   11  N3  UNL     1      16.429  -8.804  11.502  1.00  0.00    -0.316 N 
HETATM   12  C3  UNL     1      15.384  -8.283  12.154  1.00  0.00     0.127 A 
ATOM     13  H3  UNL     1      17.131  -8.208  11.063  1.00  0.00     0.170 HD
BRANCH   6  14
HETATM   14  N1  UNL     1      13.690 -11.195  13.228  1.00  0.00    -0.383 N 
ATOM     15  H12 UNL     1      12.826 -10.804  13.602  1.00  0.00     0.157 HD
ATOM     16  H11 UNL     1      13.849 -12.200  13.301  1.00  0.00     0.157 HD
ENDBRANCH   6  14
ENDBRANCH   3   5
ENDBRANCH   1   3
BRANCH   1  17
HETATM   17  C5  UNL     1      11.930  -6.663  12.365  1.00  0.00     0.726 A 
HETATM   18  N6  UNL     1      12.817  -5.636  12.450  1.00  0.00    -0.138 N 
HETATM   19  C6  UNL     1      12.508  -4.364  12.172  1.00  0.00     0.342 A 
ATOM     20  H6  UNL     1      13.772  -5.846  12.744  1.00  0.00     0.189 HD
HETATM   21  O2  UNL     1      13.396  -3.454  12.274  1.00  0.00    -0.246 OA
HETATM   22  N7  UNL     1      11.253  -4.097  11.792  1.00  0.00    -0.258 N 
HETATM   23  C7  UNL     1      10.343  -5.080  11.696  1.00  0.00     0.363 A 
ATOM     24  H7  UNL     1      10.985  -3.138  11.574  1.00  0.00     0.175 HD
HETATM   25  O3  UNL     1       9.147  -4.845  11.339  1.00  0.00    -0.244 OA
HETATM   26  N8  UNL     1      10.682  -6.383  11.985  1.00  0.00    -0.036 N 
BRANCH  26  27
HETATM   27  N9  UNL     1       9.738  -7.386  11.878  1.00  0.00    -0.320 N 
ATOM     28  H92 UNL     1       9.577  -8.023  12.658  1.00  0.00     0.178 HD
ATOM     29  H91 UNL     1       9.193  -7.496  11.023  1.00  0.00     0.178 HD
ENDBRANCH  26  27
ENDBRANCH   1  17
TORSDOF 5
ENDMDL
MODEL 3
REMARK VINA RESULT: -9.002420380      2.065      3.178
REMARK  5 active torsions:
REMARK  status: ('A' for Active; 'I' for Inactive)
REMARK    1  A    between atoms: N1_1  and  C1_4 
REMARK    2  A    between atoms: C4_12  and  N4_13 
REMARK    3  A    between atoms: N4_13  and  N5_15 
REMARK    4  A    between atoms: N5_15  and  C5_17 
REMARK    5  A    between atoms: N8_26  and  N9_27 
ROOT
HETATM    1  N5  UNL     1      12.140  -8.547  12.977  1.00  0.00    -0.129 N 
ATOM      2  H5  UNL     1      12.514  -7.612  13.135  1.00  0.00     0.205 HD
ENDROOT
BRANCH   1   3
HETATM    3  N4  UNL     1      12.959  -9.585  13.369  1.00  0.00    -0.281 N 
ATOM      4  H4  UNL     1      12.583 -10.451  13.755  1.00  0.00     0.187 HD
BRANCH   3   5
HETATM    5  C4  UNL     1      14.367  -9.378  13.202  1.00  0.00     0.107 A 
HETATM    6  C1  UNL     1      15.060  -8.334  13.738  1.00  0.00     0.132 A 
HETATM    7  N2  UNL     1      16.366  -8.224  13.479  1.00  0.00    -0.293 N 
HETATM    8  C2  UNL     1      16.988  -9.142  12.693  1.00  0.00     0.325 A 
ATOM      9  H2  UNL     1      16.899  -7.448  13.874  1.00  0.00     0.172 HD
HETATM   10  O1  UNL     1      18.224  -9.000  12.471  1.00  0.00    -0.247 OA
HETATM   11  N3  UNL     1      16.342 -10.178  12.149  1.00  0.00    -0.316 N 
HETATM   12  C3  UNL     1      15.034 -10.292  12.408  1.00  0.00     0.127 A 
ATOM     13  H3  UNL     1      16.826 -10.856  11.560  1.00  0.00     0.170 HD
BRANCH   6  14
HETATM   14  N1  UNL     1      14.468  -7.476  14.471  1.00  0.00    -0.383 N 
ATOM     15  H12 UNL     1      13.599  -7.044  14.158  1.00  0.00     0.157 HD
ATOM     16  H11 UNL     1      14.854  -7.210  15.376  1.00  0.00     0.157 HD
ENDBRANCH   6  14
ENDBRANCH   3   5
ENDBRANCH   1   3
BRANCH   1  17
HETATM   17  C5  UNL     1      10.862  -8.593  12.391  1.00  0.00     0.726 A 
HETATM   18  N6  UNL     1      10.095  -9.712  12.486  1.00  0.00    -0.138 N 
HETATM   19  C6  UNL     1       8.883  -9.829  11.930  1.00  0.00     0.342 A 
ATOM     20  H6  UNL     1      10.463 -10.507  13.010  1.00  0.00     0.189 HD
HETATM   21  O2  UNL     1       8.222 -10.912  12.064  1.00  0.00    -0.246 OA
HETATM   22  N7  UNL     1       8.411  -8.784  11.242  1.00  0.00    -0.258 N 
HETATM   23  C7  UNL     1       9.134  -7.660  11.120  1.00  0.00     0.363 A 
ATOM     24  H7  UNL     1       7.491  -8.843  10.805  1.00  0.00     0.175 HD
HETATM   25  O3  UNL     1       8.702  -6.658  10.469  1.00  0.00    -0.244 OA
HETATM   26  N8  UNL     1      10.379  -7.559  11.702  1.00  0.00    -0.036 N 
BRANCH  26  27
HETATM   27  N9  UNL     1      11.112  -6.395  11.573  1.00  0.00    -0.320 N 
ATOM     28  H92 UNL     1      11.792  -6.299  10.819  1.00  0.00     0.178 HD
ATOM     29  H91 UNL     1      10.979  -5.623  12.227  1.00  0.00     0.178 HD
ENDBRANCH  26  27
ENDBRANCH   1  17
TORSDOF 5
ENDMDL
MODEL 4
REMARK VINA RESULT: -8.858886682      2.045      3.122
REMARK  5 active torsions:
REMARK  status: ('A' for Active; 'I' for Inactive)
REMARK    1  A    between atoms: N1_1  and  C1_4 
REMARK    2  A    between atoms: C4_12  and  N4_13 
REMARK    3  A    between atoms: N4_13  and  N5_15 
REMARK    4  A    between atoms: N5_15  and  C5_17 
REMARK    5  A    between atoms: N8_26  and  N9_27 
ROOT
HETATM    1  N5  UNL     1      12.346  -6.928  12.518  1.00  0.00    -0.129 N 
ATOM      2  H5  UNL     1      12.898  -6.184  12.090  1.00  0.00     0.205 HD
ENDROOT
BRANCH   1   3
HETATM    3  N4  UNL     1      13.002  -7.678  13.471  1.00  0.00    -0.281 N 
ATOM      4  H4  UNL     1      12.880  -7.507  14.469  1.00  0.00     0.187 HD
BRANCH   3   5
HETATM    5  C4  UNL     1      13.865  -8.712  12.979  1.00  0.00     0.107 A 
HETATM    6  C1  UNL     1      13.638 -10.046  13.141  1.00  0.00     0.132 A 
HETATM    7  N2  UNL     1      14.537 -10.916  12.673  1.00  0.00    -0.293 N 
HETATM    8  C2  UNL     1      15.659 -10.472  12.048  1.00  0.00     0.325 A 
ATOM      9  H2  UNL     1      14.380 -11.918  12.786  1.00  0.00     0.172 HD
HETATM   10  O1  UNL     1      16.485 -11.328  11.623  1.00  0.00    -0.247 OA
HETATM   11  N3  UNL     1      15.916  -9.173  11.872  1.00  0.00    -0.316 N 
HETATM   12  C3  UNL     1      15.017  -8.298  12.337  1.00  0.00     0.127 A 
ATOM     13  H3  UNL     1      16.765  -8.859  11.401  1.00  0.00     0.170 HD
BRANCH   6  14
HETATM   14  N1  UNL     1      12.585 -10.453  13.732  1.00  0.00    -0.383 N 
ATOM     15  H12 UNL     1      11.738 -10.650  13.199  1.00  0.00     0.157 HD
ATOM     16  H11 UNL     1      12.573 -10.585  14.744  1.00  0.00     0.157 HD
ENDBRANCH   6  14
ENDBRANCH   3   5
ENDBRANCH   1   3
BRANCH   1  17
HETATM   17  C5  UNL     1      11.025  -7.042  12.050  1.00  0.00     0.726 A 
HETATM   18  N6  UNL     1      10.406  -8.252  12.005  1.00  0.00    -0.138 N 
HETATM   19  C6  UNL     1       9.160  -8.431  11.547  1.00  0.00     0.342 A 
ATOM     20  H6  UNL     1      10.919  -9.069  12.338  1.00  0.00     0.189 HD
HETATM   21  O2  UNL     1       8.646  -9.599  11.537  1.00  0.00    -0.246 OA
HETATM   22  N7  UNL     1       8.498  -7.355  11.108  1.00  0.00    -0.258 N 
HETATM   23  C7  UNL     1       9.070  -6.141  11.132  1.00  0.00     0.363 A 
ATOM     24  H7  UNL     1       7.548  -7.459  10.752  1.00  0.00     0.175 HD
HETATM   25  O3  UNL     1       8.456  -5.109  10.719  1.00  0.00    -0.244 OA
HETATM   26  N8  UNL     1      10.352  -5.978  11.609  1.00  0.00    -0.036 N 
BRANCH  26  27
HETATM   27  N9  UNL     1      10.928  -4.723  11.633  1.00  0.00    -0.320 N 
ATOM     28  H92 UNL     1      11.058  -4.235  12.519  1.00  0.00     0.178 HD
ATOM     29  H91 UNL     1      11.231  -4.275  10.768  1.00  0.00     0.178 HD
ENDBRANCH  26  27
ENDBRANCH   1  17
TORSDOF 5
ENDMDL
MODEL 5
REMARK VINA RESULT: -8.768716833      1.696      2.028
REMARK  5 active torsions:
REMARK  status: ('A' for Active; 'I' for Inactive)
REMARK    1  A    between atoms: N1_1  and  C1_4 
REMARK    2  A    between atoms: C4_12  and  N4_13 
REMARK    3  A    between atoms: N4_13  and  N5_15 
REMARK    4  A    between atoms: N5_15  and  C5_17 
REMARK    5  A    between atoms: N8_26  and  N9_27 
ROOT
HETATM    1  N5  UNL     1      12.276 -10.023  12.850  1.00  0.00    -0.129 N 
ATOM      2  H5  UNL     1      12.090 -10.940  12.444  1.00  0.00     0.205 HD
ENDROOT
BRANCH   1   3
HETATM    3  N4  UNL     1      13.312  -9.977  13.759  1.00  0.00    -0.281 N 
ATOM      4  H4  UNL     1      13.172 -10.191  14.746  1.00  0.00     0.187 HD
BRANCH   3   5
HETATM    5  C4  UNL     1      14.596  -9.612  13.237  1.00  0.00     0.107 A 
HETATM    6  C1  UNL     1      15.257  -8.463  13.555  1.00  0.00     0.132 A 
HETATM    7  N2  UNL     1      16.433  -8.212  12.973  1.00  0.00    -0.293 N 
HETATM    8  C2  UNL     1      16.956  -9.091  12.078  1.00  0.00     0.325 A 
ATOM      9  H2  UNL     1      16.940  -7.356  13.201  1.00  0.00     0.172 HD
HETATM   10  O1  UNL     1      18.069  -8.814  11.548  1.00  0.00    -0.247 OA
HETATM   11  N3  UNL     1      16.336 -10.227  11.741  1.00  0.00    -0.316 N 
HETATM   12  C3  UNL     1      15.160 -10.482  12.324  1.00  0.00     0.127 A 
ATOM     13  H3  UNL     1      16.745 -10.873  11.066  1.00  0.00     0.170 HD
BRANCH   6  14
HETATM   14  N1  UNL     1      14.757  -7.643  14.392  1.00  0.00    -0.383 N 
ATOM     15  H12 UNL     1      15.196  -6.736  14.550  1.00  0.00     0.157 HD
ATOM     16  H11 UNL     1      13.915  -7.881  14.916  1.00  0.00     0.157 HD
ENDBRANCH   6  14
ENDBRANCH   3   5
ENDBRANCH   1   3
BRANCH   1  17
HETATM   17  C5  UNL     1      11.439  -8.985  12.402  1.00  0.00     0.726 A 
HETATM   18  N6  UNL     1      11.888  -7.702  12.355  1.00  0.00    -0.138 N 
HETATM   19  C6  UNL     1      11.134  -6.667  11.963  1.00  0.00     0.342 A 
ATOM     20  H6  UNL     1      12.852  -7.518  12.633  1.00  0.00     0.189 HD
HETATM   21  O2  UNL     1      11.627  -5.491  11.944  1.00  0.00    -0.246 OA
HETATM   22  N7  UNL     1       9.870  -6.918  11.605  1.00  0.00    -0.258 N 
HETATM   23  C7  UNL     1       9.384  -8.169  11.638  1.00  0.00     0.363 A 
ATOM     24  H7  UNL     1       9.270  -6.150  11.303  1.00  0.00     0.175 HD
HETATM   25  O3  UNL     1       8.186  -8.425  11.302  1.00  0.00    -0.244 OA
HETATM   26  N8  UNL     1      10.176  -9.221  12.042  1.00  0.00    -0.036 N 
BRANCH  26  27
HETATM   27  N9  UNL     1       9.666 -10.504  12.067  1.00  0.00    -0.320 N 
ATOM     28  H92 UNL     1      10.169 -11.246  12.554  1.00  0.00     0.178 HD
ATOM     29  H91 UNL     1       8.783 -10.720  11.604  1.00  0.00     0.178 HD
ENDBRANCH  26  27
ENDBRANCH   1  17
TORSDOF 5
ENDMDL
