MODEL 1
REMARK VINA RESULT: -8.872917000      0.000      0.000
REMARK  4 active torsions:
REMARK  status: ('A' for Active; 'I' for Inactive)
REMARK    1  A    between atoms: N1_1  and  C1_4 
REMARK    2  A    between atoms: C2_7  and  N3_8 
REMARK    3  A    between atoms: C4_10  and  C5_11 
REMARK       I    between atoms: C5_11  and  N4_13 
REMARK       I    between atoms: N4_13  and  C6_15 
REMARK       I    between atoms: C6_15  and  N5_16 
REMARK       I    between atoms: C6_15  and  N6_20 
REMARK    4  A    between atoms: C8_29  and  N9_30 
ROOT
HETATM    1  N3  UNL     1      14.153  -8.842  12.588  1.00  0.00    -0.096 N 
HETATM    2  C3  UNL     1      15.055  -8.294  13.404  1.00  0.00     0.153 A 
HETATM    3  C4  UNL     1      16.199  -9.035  13.336  1.00  0.00     0.067 A 
HETATM    4  C7  UNL     1      15.974 -10.058  12.450  1.00  0.00     0.126 A 
HETATM    5  N7  UNL     1      14.713  -9.893  12.024  1.00  0.00    -0.290 N 
ATOM      6  H7  UNL     1      14.248 -10.502  11.351  1.00  0.00     0.187 HD
ENDROOT
BRANCH   1   7
HETATM    7  C2  UNL     1      12.827  -8.349  12.388  1.00  0.00     0.732 A 
HETATM    8  N2  UNL     1      12.599  -7.053  12.125  1.00  0.00    -0.020 N 
HETATM    9  C1  UNL     1      11.333  -6.585  11.935  1.00  0.00     0.705 A 
ATOM     10  H2  UNL     1      13.386  -6.406  12.066  1.00  0.00     0.203 HD
HETATM   11  N10 UNL     1      10.276  -7.422  12.008  1.00  0.00    -0.022 N 
HETATM   12  C8  UNL     1      10.501  -8.718  12.271  1.00  0.00     0.705 A 
ATOM     13  H10 UNL     1       9.327  -7.076  11.866  1.00  0.00     0.203 HD
HETATM   14  N8  UNL     1      11.757  -9.160  12.455  1.00  0.00    -0.020 N 
ATOM     15  H8  UNL     1      11.904 -10.149  12.654  1.00  0.00     0.203 HD
BRANCH   9  16
HETATM   16  N1  UNL     1      11.123  -5.336  11.682  1.00  0.00    -0.234 N 
ATOM     17  H12 UNL     1      11.917  -4.695  11.671  1.00  0.00     0.174 HD
ATOM     18  H11 UNL     1      10.180  -4.993  11.496  1.00  0.00     0.174 HD
ENDBRANCH   9  16
BRANCH  12  19
HETATM   19  N9  UNL     1       9.493  -9.511  12.339  1.00  0.00    -0.234 N 
ATOM     20  H92 UNL     1       8.902  -9.473  13.170  1.00  0.00     0.174 HD
ATOM     21  H91 UNL     1       9.278 -10.167  11.589  1.00  0.00     0.174 HD
ENDBRANCH  12  19
ENDBRANCH   1   7
BRANCH   3  22
HETATM   22  C5  UNL     1      17.442  -8.777  14.078  1.00  0.00     0.257 C 
HETATM   23  O1  UNL     1      18.545  -8.832  13.478  1.00  0.00    -0.267 OA
HETATM   24  N4  UNL     1      17.409  -8.472  15.447  1.00  0.00    -0.307 N 
HETATM   25  C6  UNL     1      18.635  -8.223  16.156  1.00  0.00     0.483 C 
ATOM     26  H4  UNL     1      16.517  -8.428  15.939  1.00  0.00     0.166 HD
HETATM   27  N5  UNL     1      18.581  -6.850  16.648  1.00  0.00    -0.033 N 
HETATM   28  N6  UNL     1      18.738  -9.169  17.248  1.00  0.00    -0.033 N 
ATOM     29  H53 UNL     1      18.402  -6.169  15.911  1.00  0.00     0.278 HD
ATOM     30  H52 UNL     1      17.750  -6.660  17.209  1.00  0.00     0.278 HD
ATOM     31  H51 UNL     1      19.451  -6.673  17.152  1.00  0.00     0.278 HD
ATOM     32  H63 UNL     1      17.922  -9.150  17.859  1.00  0.00     0.278 HD
ATOM     33  H62 UNL     1      18.657 -10.137  16.935  1.00  0.00     0.278 HD
ATOM     34  H61 UNL     1      19.608  -8.992  17.751  1.00  0.00     0.278 HD
ENDBRANCH   3  22
TORSDOF 4
ENDMDL
MODEL 2
REMARK VINA RESULT: -8.866415502      0.030      1.810
REMARK  4 active torsions:
REMARK  status: ('A' for Active; 'I' for Inactive)
REMARK    1  A    between atoms: N1_1  and  C1_4 
REMARK    2  A    between atoms: C2_7  and  N3_8 
REMARK    3  A    between atoms: C4_10  and  C5_11 
REMARK       I    between atoms: C5_11  and  N4_13 
REMARK       I    between atoms: N4_13  and  C6_15 
REMARK       I    between atoms: C6_15  and  N5_16 
REMARK       I    between atoms: C6_15  and  N6_20 
REMARK    4  A    between atoms: C8_29  and  N9_30 
ROOT
HETATM    1  N3  UNL     1      14.155  -8.842  12.591  1.00  0.00    -0.096 N 
HETATM    2  C3  UNL     1      15.058  -8.295  13.405  1.00  0.00     0.153 A 
HETATM    3  C4  UNL     1      16.201  -9.038  13.337  1.00  0.00     0.067 A 
HETATM    4  C7  UNL     1      15.972 -10.063  12.453  1.00  0.00     0.126 A 
HETATM    5  N7  UNL     1      14.711  -9.896  12.029  1.00  0.00    -0.290 N 
ATOM      6  H7  UNL     1      14.244 -10.505  11.358  1.00  0.00     0.187 HD
ENDROOT
BRANCH   1   7
HETATM    7  C2  UNL     1      12.829  -8.346  12.392  1.00  0.00     0.732 A 
HETATM    8  N2  UNL     1      11.766  -9.164  12.435  1.00  0.00    -0.020 N 
HETATM    9  C1  UNL     1      10.503  -8.688  12.244  1.00  0.00     0.705 A 
ATOM     10  H2  UNL     1      11.905 -10.159  12.613  1.00  0.00     0.203 HD
HETATM   11  N10 UNL     1      10.296  -7.375  12.006  1.00  0.00    -0.022 N 
HETATM   12  C8  UNL     1      11.357  -6.555  11.963  1.00  0.00     0.705 A 
ATOM     13  H10 UNL     1       9.353  -7.014  11.863  1.00  0.00     0.203 HD
HETATM   14  N8  UNL     1      12.594  -7.044  12.154  1.00  0.00    -0.020 N 
ATOM     15  H8  UNL     1      13.386  -6.402  12.116  1.00  0.00     0.203 HD
BRANCH   9  16
HETATM   16  N1  UNL     1       9.486  -9.482  12.287  1.00  0.00    -0.234 N 
ATOM     17  H12 UNL     1       8.936  -9.533  13.145  1.00  0.00     0.174 HD
ATOM     18  H11 UNL     1       9.234 -10.050  11.478  1.00  0.00     0.174 HD
ENDBRANCH   9  16
BRANCH  12  19
HETATM   19  N9  UNL     1      11.155  -5.307  11.737  1.00  0.00    -0.234 N 
ATOM     20  H92 UNL     1      10.979  -4.692  12.532  1.00  0.00     0.174 HD
ATOM     21  H91 UNL     1      11.167  -4.927  10.790  1.00  0.00     0.174 HD
ENDBRANCH  12  19
ENDBRANCH   1   7
BRANCH   3  22
HETATM   22  C5  UNL     1      17.446  -8.782  14.077  1.00  0.00     0.257 C 
HETATM   23  O1  UNL     1      18.548  -8.845  13.477  1.00  0.00    -0.267 OA
HETATM   24  N4  UNL     1      17.415  -8.470  15.444  1.00  0.00    -0.307 N 
HETATM   25  C6  UNL     1      18.642  -8.222  16.151  1.00  0.00     0.483 C 
ATOM     26  H4  UNL     1      16.523  -8.419  15.936  1.00  0.00     0.166 HD
HETATM   27  N5  UNL     1      18.595  -6.847  16.636  1.00  0.00    -0.033 N 
HETATM   28  N6  UNL     1      18.742  -9.163  17.248  1.00  0.00    -0.033 N 
ATOM     29  H53 UNL     1      18.418  -6.168  15.896  1.00  0.00     0.278 HD
ATOM     30  H52 UNL     1      17.765  -6.650  17.197  1.00  0.00     0.278 HD
ATOM     31  H51 UNL     1      19.466  -6.671  17.138  1.00  0.00     0.278 HD
ATOM     32  H63 UNL     1      17.926  -9.137  17.860  1.00  0.00     0.278 HD
ATOM     33  H62 UNL     1      18.657 -10.132  16.941  1.00  0.00     0.278 HD
ATOM     34  H61 UNL     1      19.613  -8.987  17.750  1.00  0.00     0.278 HD
ENDBRANCH   3  22
TORSDOF 4
ENDMDL
MODEL 3
REMARK VINA RESULT: -8.603825345      1.207      2.197
REMARK  4 active torsions:
REMARK  status: ('A' for Active; 'I' for Inactive)
REMARK    1  A    between atoms: N1_1  and  C1_4 
REMARK    2  A    between atoms: C2_7  and  N3_8 
REMARK    3  A    between atoms: C4_10  and  C5_11 
REMARK       I    between atoms: C5_11  and  N4_13 
REMARK       I    between atoms: N4_13  and  C6_15 
REMARK       I    between atoms: C6_15  and  N5_16 
REMARK       I    between atoms: C6_15  and  N6_20 
REMARK    4  A    between atoms: C8_29  and  N9_30 
ROOT
HETATM    1  N3  UNL     1      13.610  -8.064  12.615  1.00  0.00    -0.096 N 
HETATM    2  C3  UNL     1      14.797  -7.695  13.098  1.00  0.00     0.153 A 
HETATM    3  C4  UNL     1      15.535  -8.820  13.327  1.00  0.00     0.067 A 
HETATM    4  C7  UNL     1      14.763  -9.897  12.969  1.00  0.00     0.126 A 
HETATM    5  N7  UNL     1      13.602  -9.380  12.542  1.00  0.00    -0.290 N 
ATOM      6  H7  UNL     1      12.815  -9.933  12.205  1.00  0.00     0.187 HD
ENDROOT
BRANCH   1   7
HETATM    7  C2  UNL     1      12.561  -7.164  12.254  1.00  0.00     0.732 A 
HETATM    8  N2  UNL     1      11.368  -7.617  11.837  1.00  0.00    -0.020 N 
HETATM    9  C1  UNL     1      10.369  -6.757  11.492  1.00  0.00     0.705 A 
ATOM     10  H2  UNL     1      11.207  -8.623  11.777  1.00  0.00     0.203 HD
HETATM   11  N10 UNL     1      10.561  -5.422  11.564  1.00  0.00    -0.022 N 
HETATM   12  C8  UNL     1      11.752  -4.966  11.981  1.00  0.00     0.705 A 
ATOM     13  H10 UNL     1       9.816  -4.774  11.308  1.00  0.00     0.203 HD
HETATM   14  N8  UNL     1      12.725  -5.831  12.316  1.00  0.00    -0.020 N 
ATOM     15  H8  UNL     1      13.622  -5.462  12.629  1.00  0.00     0.203 HD
BRANCH   9  16
HETATM   16  N1  UNL     1       9.224  -7.202  11.092  1.00  0.00    -0.234 N 
ATOM     17  H12 UNL     1       8.374  -6.783  11.470  1.00  0.00     0.174 HD
ATOM     18  H11 UNL     1       9.169  -7.959  10.411  1.00  0.00     0.174 HD
ENDBRANCH   9  16
BRANCH  12  19
HETATM   19  N9  UNL     1      11.930  -3.696  12.047  1.00  0.00    -0.234 N 
ATOM     20  H92 UNL     1      12.409  -3.232  11.275  1.00  0.00     0.174 HD
ATOM     21  H91 UNL     1      11.605  -3.152  12.847  1.00  0.00     0.174 HD
ENDBRANCH  12  19
ENDBRANCH   1   7
BRANCH   3  22
HETATM   22  C5  UNL     1      16.905  -8.863  13.860  1.00  0.00     0.257 C 
HETATM   23  O1  UNL     1      17.845  -9.254  13.122  1.00  0.00    -0.267 OA
HETATM   24  N4  UNL     1      17.173  -8.476  15.181  1.00  0.00    -0.307 N 
HETATM   25  C6  UNL     1      18.519  -8.524  15.684  1.00  0.00     0.483 C 
ATOM     26  H4  UNL     1      16.414  -8.160  15.784  1.00  0.00     0.166 HD
HETATM   27  N5  UNL     1      18.903  -7.161  16.034  1.00  0.00    -0.033 N 
HETATM   28  N6  UNL     1      18.548  -9.392  16.843  1.00  0.00    -0.033 N 
ATOM     29  H53 UNL     1      18.789  -6.504  15.262  1.00  0.00     0.278 HD
ATOM     30  H52 UNL     1      18.251  -6.717  16.681  1.00  0.00     0.278 HD
ATOM     31  H51 UNL     1      19.858  -7.195  16.391  1.00  0.00     0.278 HD
ATOM     32  H63 UNL     1      17.875  -9.114  17.556  1.00  0.00     0.278 HD
ATOM     33  H62 UNL     1      18.171 -10.319  16.647  1.00  0.00     0.278 HD
ATOM     34  H61 UNL     1      19.503  -9.427  17.200  1.00  0.00     0.278 HD
ENDBRANCH   3  22
TORSDOF 4
ENDMDL
MODEL 4
REMARK VINA RESULT: -8.506433221      2.099      3.609
REMARK  4 active torsions:
REMARK  status: ('A' for Active; 'I' for Inactive)
REMARK    1  A    between atoms: N1_1  and  C1_4 
REMARK    2  A    between atoms: C2_7  and  N3_8 
REMARK    3  A    between atoms: C4_10  and  C5_11 
REMARK       I    between atoms: C5_11  and  N4_13 
REMARK       I    between atoms: N4_13  and  C6_15 
REMARK       I    between atoms: C6_15  and  N5_16 
REMARK       I    between atoms: C6_15  and  N6_20 
REMARK    4  A    between atoms: C8_29  and  N9_30 
ROOT
HETATM    1  N3  UNL     1      11.693  -7.157  12.079  1.00  0.00    -0.096 N 
HETATM    2  C3  UNL     1      12.409  -8.209  12.477  1.00  0.00     0.153 A 
HETATM    3  C4  UNL     1      13.643  -7.767  12.859  1.00  0.00     0.067 A 
HETATM    4  C7  UNL     1      13.664  -6.406  12.683  1.00  0.00     0.126 A 
HETATM    5  N7  UNL     1      12.452  -6.087  12.207  1.00  0.00    -0.290 N 
ATOM      6  H7  UNL     1      12.156  -5.139  11.974  1.00  0.00     0.187 HD
ENDROOT
BRANCH   1   7
HETATM    7  C2  UNL     1      10.347  -7.218  11.605  1.00  0.00     0.732 A 
HETATM    8  N2  UNL     1       9.693  -8.387  11.514  1.00  0.00    -0.020 N 
HETATM    9  C1  UNL     1       8.409  -8.443  11.060  1.00  0.00     0.705 A 
ATOM     10  H2  UNL     1      10.165  -9.249  11.789  1.00  0.00     0.203 HD
HETATM   11  N10 UNL     1       7.765  -7.315  10.691  1.00  0.00    -0.022 N 
HETATM   12  C8  UNL     1       8.415  -6.145  10.781  1.00  0.00     0.705 A 
ATOM     13  H10 UNL     1       6.803  -7.352  10.352  1.00  0.00     0.203 HD
HETATM   14  N8  UNL     1       9.681  -6.111  11.230  1.00  0.00    -0.020 N 
ATOM     15  H8  UNL     1      10.156  -5.211  11.289  1.00  0.00     0.203 HD
BRANCH   9  16
HETATM   16  N1  UNL     1       7.788  -9.572  10.977  1.00  0.00    -0.234 N 
ATOM     17  H12 UNL     1       7.409  -9.861  10.074  1.00  0.00     0.174 HD
ATOM     18  H11 UNL     1       7.676 -10.167  11.798  1.00  0.00     0.174 HD
ENDBRANCH   9  16
BRANCH  12  19
HETATM   19  N9  UNL     1       7.798  -5.075  10.428  1.00  0.00    -0.234 N 
ATOM     20  H92 UNL     1       7.786  -4.287  11.076  1.00  0.00     0.174 HD
ATOM     21  H91 UNL     1       7.328  -5.003   9.526  1.00  0.00     0.174 HD
ENDBRANCH  12  19
ENDBRANCH   1   7
BRANCH   3  22
HETATM   22  C5  UNL     1      14.743  -8.602  13.364  1.00  0.00     0.257 C 
HETATM   23  O1  UNL     1      14.543  -9.823  13.586  1.00  0.00    -0.267 OA
HETATM   24  N4  UNL     1      16.010  -8.050  13.603  1.00  0.00    -0.307 N 
HETATM   25  C6  UNL     1      17.073  -8.883  14.097  1.00  0.00     0.483 C 
ATOM     26  H4  UNL     1      16.177  -7.060  13.426  1.00  0.00     0.166 HD
HETATM   27  N5  UNL     1      18.128  -8.886  13.089  1.00  0.00    -0.033 N 
HETATM   28  N6  UNL     1      17.546  -8.332  15.350  1.00  0.00    -0.033 N 
ATOM     29  H53 UNL     1      17.797  -9.168  12.166  1.00  0.00     0.278 HD
ATOM     30  H52 UNL     1      18.440  -7.948  12.835  1.00  0.00     0.278 HD
ATOM     31  H51 UNL     1      18.882  -9.476  13.440  1.00  0.00     0.278 HD
ATOM     32  H63 UNL     1      17.822  -7.353  15.268  1.00  0.00     0.278 HD
ATOM     33  H62 UNL     1      16.797  -8.210  16.032  1.00  0.00     0.278 HD
ATOM     34  H61 UNL     1      18.301  -8.922  15.701  1.00  0.00     0.278 HD
ENDBRANCH   3  22
TORSDOF 4
ENDMDL
MODEL 5
REMARK VINA RESULT: -8.501030401      2.102      3.163
REMARK  4 active torsions:
REMARK  status: ('A' for Active; 'I' for Inactive)
REMARK    1  A    between atoms: N1_1  and  C1_4 
REMARK    2  A    between atoms: C2_7  and  N3_8 
REMARK    3  A    between atoms: C4_10  and  C5_11 
REMARK       I    between atoms: C5_11  and  N4_13 
REMARK       I    between atoms: N4_13  and  C6_15 
REMARK       I    between atoms: C6_15  and  N5_16 
REMARK       I    between atoms: C6_15  and  N6_20 
REMARK    4  A    between atoms: C8_29  and  N9_30 
ROOT
HETATM    1  N3  UNL     1      11.688  -7.149  12.078  1.00  0.00    -0.096 N 
HETATM    2  C3  UNL     1      12.401  -8.202  12.478  1.00  0.00     0.153 A 
HETATM    3  C4  UNL     1      13.636  -7.763  12.859  1.00  0.00     0.067 A 
HETATM    4  C7  UNL     1      13.660  -6.402  12.681  1.00  0.00     0.126 A 
HETATM    5  N7  UNL     1      12.449  -6.081  12.204  1.00  0.00    -0.290 N 
ATOM      6  H7  UNL     1      12.156  -5.133  11.970  1.00  0.00     0.187 HD
ENDROOT
BRANCH   1   7
HETATM    7  C2  UNL     1      10.341  -7.207  11.603  1.00  0.00     0.732 A 
HETATM    8  N2  UNL     1       9.683  -6.097  11.237  1.00  0.00    -0.020 N 
HETATM    9  C1  UNL     1       8.398  -6.156  10.785  1.00  0.00     0.705 A 
ATOM     10  H2  UNL     1      10.152  -5.192  11.297  1.00  0.00     0.203 HD
HETATM   11  N10 UNL     1       7.758  -7.341  10.697  1.00  0.00    -0.022 N 
HETATM   12  C8  UNL     1       8.414  -8.453  11.062  1.00  0.00     0.705 A 
ATOM     13  H10 UNL     1       6.797  -7.390  10.358  1.00  0.00     0.203 HD
HETATM   14  N8  UNL     1       9.680  -8.374  11.506  1.00  0.00    -0.020 N 
ATOM     15  H8  UNL     1      10.158  -9.233  11.778  1.00  0.00     0.203 HD
BRANCH   9  16
HETATM   16  N1  UNL     1       7.773  -5.082  10.434  1.00  0.00    -0.234 N 
ATOM     17  H12 UNL     1       6.941  -4.803  10.956  1.00  0.00     0.174 HD
ATOM     18  H11 UNL     1       8.102  -4.520   9.649  1.00  0.00     0.174 HD
ENDBRANCH   9  16
BRANCH  12  19
HETATM   19  N9  UNL     1       7.801  -9.579  10.977  1.00  0.00    -0.234 N 
ATOM     20  H92 UNL     1       8.244 -10.334  10.454  1.00  0.00     0.174 HD
ATOM     21  H91 UNL     1       6.892  -9.727  11.416  1.00  0.00     0.174 HD
ENDBRANCH  12  19
ENDBRANCH   1   7
BRANCH   3  22
HETATM   22  C5  UNL     1      14.733  -8.600  13.367  1.00  0.00     0.257 C 
HETATM   23  O1  UNL     1      14.531  -9.821  13.587  1.00  0.00    -0.267 OA
HETATM   24  N4  UNL     1      16.001  -8.050  13.609  1.00  0.00    -0.307 N 
HETATM   25  C6  UNL     1      17.062  -8.884  14.105  1.00  0.00     0.483 C 
ATOM     26  H4  UNL     1      16.169  -7.060  13.433  1.00  0.00     0.166 HD
HETATM   27  N5  UNL     1      18.118  -8.889  13.099  1.00  0.00    -0.033 N 
HETATM   28  N6  UNL     1      17.533  -8.335  15.359  1.00  0.00    -0.033 N 
ATOM     29  H53 UNL     1      17.789  -9.170  12.175  1.00  0.00     0.278 HD
ATOM     30  H52 UNL     1      18.433  -7.951  12.847  1.00  0.00     0.278 HD
ATOM     31  H51 UNL     1      18.871  -9.480  13.451  1.00  0.00     0.278 HD
ATOM     32  H63 UNL     1      17.810  -7.357  15.278  1.00  0.00     0.278 HD
ATOM     33  H62 UNL     1      16.782  -8.212  16.039  1.00  0.00     0.278 HD
ATOM     34  H61 UNL     1      18.286  -8.927  15.711  1.00  0.00     0.278 HD
ENDBRANCH   3  22
TORSDOF 4
ENDMDL
