MODEL 1
REMARK VINA RESULT: -7.192145469      0.000      0.000
REMARK  5 active torsions:
REMARK  status: ('A' for Active; 'I' for Inactive)
REMARK    1  A    between atoms: O1_2  and  C2_3 
REMARK    2  A    between atoms: C2_3  and  O2_4 
REMARK    3  A    between atoms: N4_12  and  C5_13 
REMARK    4  A    between atoms: C6_16  and  N6_17 
REMARK    5  A    between atoms: C7_22  and  N8_23 
ROOT
HETATM    1  C5  UNL     1      13.359  -7.139  12.522  1.00  0.00     0.734 A 
HETATM    2  N5  UNL     1      13.372  -5.780  12.475  1.00  0.00    -0.020 N 
ATOM      3  H5  UNL     1      14.236  -5.295  12.716  1.00  0.00     0.203 HD
HETATM    4  C6  UNL     1      12.306  -5.046  12.128  1.00  0.00     0.705 A 
HETATM    5  N7  UNL     1      11.154  -5.663  11.806  1.00  0.00    -0.022 N 
ATOM      6  H7  UNL     1      10.332  -5.120  11.541  1.00  0.00     0.203 HD
HETATM    7  C7  UNL     1      11.103  -7.001  11.840  1.00  0.00     0.705 A 
HETATM    8  N9  UNL     1      12.189  -7.717  12.192  1.00  0.00    -0.020 N 
ATOM      9  H9  UNL     1      12.123  -8.735  12.210  1.00  0.00     0.203 HD
ENDROOT
BRANCH   1  10
HETATM   10  N4  UNL     1      14.514  -7.881  12.897  1.00  0.00    -0.037 N 
HETATM   11  C2  UNL     1      15.088  -9.070  12.255  1.00  0.00     0.377 C 
HETATM   12  N1  UNL     1      15.926  -9.613  13.294  1.00  0.00    -0.287 N 
HETATM   13  C4  UNL     1      16.164  -8.572  14.237  1.00  0.00     0.209 C 
ATOM     14  H1  UNL     1      16.282 -10.567  13.344  1.00  0.00     0.169 HD
HETATM   15  N2  UNL     1      17.159  -8.641  15.273  1.00  0.00    -0.062 NA
HETATM   16  N3  UNL     1      15.354  -7.627  13.978  1.00  0.00    -0.251 N 
ATOM     17  H3  UNL     1      15.323  -6.760  14.514  1.00  0.00     0.190 HD
BRANCH  11  18
HETATM   18  O1  UNL     1      14.104  -9.983  11.936  1.00  0.00    -0.324 OA
HETATM   19  C1  UNL     1      13.810 -10.838  12.987  1.00  0.00     0.209 C 
ENDBRANCH  11  18
BRANCH  11  20
HETATM   20  O2  UNL     1      15.778  -8.726  11.103  1.00  0.00    -0.324 OA
HETATM   21  C3  UNL     1      16.882  -9.519  10.869  1.00  0.00     0.209 C 
ENDBRANCH  11  20
ENDBRANCH   1  10
BRANCH   4  22
HETATM   22  N6  UNL     1      12.327  -3.752  12.087  1.00  0.00    -0.234 N 
ATOM     23  H62 UNL     1      13.171  -3.302  11.732  1.00  0.00     0.174 HD
ATOM     24  H61 UNL     1      11.542  -3.175  12.390  1.00  0.00     0.174 HD
ENDBRANCH   4  22
BRANCH   7  25
HETATM   25  N8  UNL     1       9.988  -7.566  11.527  1.00  0.00    -0.234 N 
ATOM     26  H82 UNL     1       9.237  -7.691  12.207  1.00  0.00     0.174 HD
ATOM     27  H81 UNL     1       9.874  -7.888  10.566  1.00  0.00     0.174 HD
ENDBRANCH   7  25
TORSDOF 5
ENDMDL
MODEL 2
REMARK VINA RESULT: -7.170721222      0.036      1.854
REMARK  5 active torsions:
REMARK  status: ('A' for Active; 'I' for Inactive)
REMARK    1  A    between atoms: O1_2  and  C2_3 
REMARK    2  A    between atoms: C2_3  and  O2_4 
REMARK    3  A    between atoms: N4_12  and  C5_13 
REMARK    4  A    between atoms: C6_16  and  N6_17 
REMARK    5  A    between atoms: C7_22  and  N8_23 
ROOT
HETATM    1  C5  UNL     1      13.371  -7.116  12.538  1.00  0.00     0.734 A 
HETATM    2  N5  UNL     1      12.198  -7.723  12.213  1.00  0.00    -0.020 N 
ATOM      3  H5  UNL     1      12.156  -8.741  12.241  1.00  0.00     0.203 HD
HETATM    4  C6  UNL     1      11.095  -7.050  11.860  1.00  0.00     0.705 A 
HETATM    5  N7  UNL     1      11.126  -5.705  11.817  1.00  0.00    -0.022 N 
ATOM      6  H7  UNL     1      10.296  -5.176  11.549  1.00  0.00     0.203 HD
HETATM    7  C7  UNL     1      12.264  -5.072  12.131  1.00  0.00     0.705 A 
HETATM    8  N9  UNL     1      13.360  -5.772  12.483  1.00  0.00    -0.020 N 
ATOM      9  H9  UNL     1      14.213  -5.264  12.718  1.00  0.00     0.203 HD
ENDROOT
BRANCH   1  10
HETATM   10  N4  UNL     1      14.521  -7.869  12.907  1.00  0.00    -0.037 N 
HETATM   11  C2  UNL     1      15.083  -9.061  12.263  1.00  0.00     0.377 C 
HETATM   12  N1  UNL     1      15.920  -9.612  13.298  1.00  0.00    -0.287 N 
HETATM   13  C4  UNL     1      16.169  -8.574  14.241  1.00  0.00     0.209 C 
ATOM     14  H1  UNL     1      16.268 -10.569  13.346  1.00  0.00     0.169 HD
HETATM   15  N2  UNL     1      17.167  -8.653  15.275  1.00  0.00    -0.062 NA
HETATM   16  N3  UNL     1      15.367  -7.622  13.986  1.00  0.00    -0.251 N 
ATOM     17  H3  UNL     1      15.345  -6.755  14.523  1.00  0.00     0.190 HD
BRANCH  11  18
HETATM   18  O1  UNL     1      14.091  -9.965  11.946  1.00  0.00    -0.324 OA
HETATM   19  C1  UNL     1      13.818 -10.843  12.985  1.00  0.00     0.209 C 
ENDBRANCH  11  18
BRANCH  11  20
HETATM   20  O2  UNL     1      15.772  -8.722  11.109  1.00  0.00    -0.324 OA
HETATM   21  C3  UNL     1      16.854  -9.540  10.857  1.00  0.00     0.209 C 
ENDBRANCH  11  20
ENDBRANCH   1  10
BRANCH   4  22
HETATM   22  N6  UNL     1       9.982  -7.636  11.552  1.00  0.00    -0.234 N 
ATOM     23  H62 UNL     1      10.030  -8.459  10.952  1.00  0.00     0.174 HD
ATOM     24  H61 UNL     1       9.074  -7.310  11.883  1.00  0.00     0.174 HD
ENDBRANCH   4  22
BRANCH   7  25
HETATM   25  N8  UNL     1      12.265  -3.783  12.082  1.00  0.00    -0.234 N 
ATOM     26  H82 UNL     1      11.550  -3.263  11.572  1.00  0.00     0.174 HD
ATOM     27  H81 UNL     1      13.010  -3.291  12.574  1.00  0.00     0.174 HD
ENDBRANCH   7  25
TORSDOF 5
ENDMDL
MODEL 3
REMARK VINA RESULT: -6.662710607      2.361      5.303
REMARK  5 active torsions:
REMARK  status: ('A' for Active; 'I' for Inactive)
REMARK    1  A    between atoms: O1_2  and  C2_3 
REMARK    2  A    between atoms: C2_3  and  O2_4 
REMARK    3  A    between atoms: N4_12  and  C5_13 
REMARK    4  A    between atoms: C6_16  and  N6_17 
REMARK    5  A    between atoms: C7_22  and  N8_23 
ROOT
HETATM    1  C5  UNL     1      14.287  -8.834  12.861  1.00  0.00     0.734 A 
HETATM    2  N5  UNL     1      14.966  -8.552  14.004  1.00  0.00    -0.020 N 
ATOM      3  H5  UNL     1      14.431  -8.390  14.858  1.00  0.00     0.203 HD
HETATM    4  C6  UNL     1      16.302  -8.478  14.067  1.00  0.00     0.705 A 
HETATM    5  N7  UNL     1      17.029  -8.689  12.955  1.00  0.00    -0.022 N 
ATOM      6  H7  UNL     1      18.047  -8.635  12.983  1.00  0.00     0.203 HD
HETATM    7  C7  UNL     1      16.395  -8.970  11.808  1.00  0.00     0.705 A 
HETATM    8  N9  UNL     1      15.050  -9.039  11.772  1.00  0.00    -0.020 N 
ATOM      9  H9  UNL     1      14.593  -9.255  10.886  1.00  0.00     0.203 HD
ENDROOT
BRANCH   1  10
HETATM   10  N4  UNL     1      12.865  -8.903  12.837  1.00  0.00    -0.037 N 
HETATM   11  C2  UNL     1      11.893  -7.805  12.787  1.00  0.00     0.377 C 
HETATM   12  N1  UNL     1      10.680  -8.439  13.231  1.00  0.00    -0.287 N 
HETATM   13  C4  UNL     1      10.853  -9.845  13.080  1.00  0.00     0.209 C 
ATOM     14  H1  UNL     1       9.849  -7.968  13.590  1.00  0.00     0.169 HD
HETATM   15  N2  UNL     1       9.780 -10.799  13.169  1.00  0.00    -0.062 NA
HETATM   16  N3  UNL     1      12.087 -10.058  12.861  1.00  0.00    -0.251 N 
ATOM     17  H3  UNL     1      12.472 -10.991  12.716  1.00  0.00     0.190 HD
BRANCH  11  18
HETATM   18  O1  UNL     1      12.237  -6.801  13.669  1.00  0.00    -0.324 OA
HETATM   19  C1  UNL     1      12.732  -5.675  13.028  1.00  0.00     0.209 C 
ENDBRANCH  11  18
BRANCH  11  20
HETATM   20  O2  UNL     1      11.812  -7.275  11.508  1.00  0.00    -0.324 OA
HETATM   21  C3  UNL     1      10.523  -6.964  11.126  1.00  0.00     0.209 C 
ENDBRANCH  11  20
ENDBRANCH   1  10
BRANCH   4  22
HETATM   22  N6  UNL     1      16.941  -8.209  15.161  1.00  0.00    -0.234 N 
ATOM     23  H62 UNL     1      17.231  -7.244  15.315  1.00  0.00     0.174 HD
ATOM     24  H61 UNL     1      17.160  -8.916  15.863  1.00  0.00     0.174 HD
ENDBRANCH   4  22
BRANCH   7  25
HETATM   25  N8  UNL     1      17.116  -9.167  10.758  1.00  0.00    -0.234 N 
ATOM     26  H82 UNL     1      17.199  -8.466  10.021  1.00  0.00     0.174 HD
ATOM     27  H81 UNL     1      17.610 -10.057  10.684  1.00  0.00     0.174 HD
ENDBRANCH   7  25
TORSDOF 5
ENDMDL
MODEL 4
REMARK VINA RESULT: -6.656670238      2.362      5.394
REMARK  5 active torsions:
REMARK  status: ('A' for Active; 'I' for Inactive)
REMARK    1  A    between atoms: O1_2  and  C2_3 
REMARK    2  A    between atoms: C2_3  and  O2_4 
REMARK    3  A    between atoms: N4_12  and  C5_13 
REMARK    4  A    between atoms: C6_16  and  N6_17 
REMARK    5  A    between atoms: C7_22  and  N8_23 
ROOT
HETATM    1  C5  UNL     1      14.278  -8.824  12.899  1.00  0.00     0.734 A 
HETATM    2  N5  UNL     1      15.033  -9.032  11.788  1.00  0.00    -0.020 N 
ATOM      3  H5  UNL     1      14.557  -9.244  10.911  1.00  0.00     0.203 HD
HETATM    4  C6  UNL     1      16.372  -8.972  11.787  1.00  0.00     0.705 A 
HETATM    5  N7  UNL     1      17.022  -8.693  12.932  1.00  0.00    -0.022 N 
ATOM      6  H7  UNL     1      18.041  -8.644  12.950  1.00  0.00     0.203 HD
HETATM    7  C7  UNL     1      16.311  -8.481  14.047  1.00  0.00     0.705 A 
HETATM    8  N9  UNL     1      14.965  -8.548  14.022  1.00  0.00    -0.020 N 
ATOM      9  H9  UNL     1      14.449  -8.382  14.886  1.00  0.00     0.203 HD
ENDROOT
BRANCH   1  10
HETATM   10  N4  UNL     1      12.857  -8.898  12.858  1.00  0.00    -0.037 N 
HETATM   11  C2  UNL     1      11.882  -7.802  12.793  1.00  0.00     0.377 C 
HETATM   12  N1  UNL     1      10.665  -8.439  13.223  1.00  0.00    -0.287 N 
HETATM   13  C4  UNL     1      10.844  -9.845  13.076  1.00  0.00     0.209 C 
ATOM     14  H1  UNL     1       9.828  -7.970  13.569  1.00  0.00     0.169 HD
HETATM   15  N2  UNL     1       9.773 -10.802  13.153  1.00  0.00    -0.062 NA
HETATM   16  N3  UNL     1      12.082 -10.055  12.874  1.00  0.00    -0.251 N 
ATOM     17  H3  UNL     1      12.471 -10.988  12.736  1.00  0.00     0.190 HD
BRANCH  11  18
HETATM   18  O1  UNL     1      12.211  -6.796  13.677  1.00  0.00    -0.324 OA
HETATM   19  C1  UNL     1      12.731  -5.678  13.042  1.00  0.00     0.209 C 
ENDBRANCH  11  18
BRANCH  11  20
HETATM   20  O2  UNL     1      11.816  -7.275  11.512  1.00  0.00    -0.324 OA
HETATM   21  C3  UNL     1      10.534  -6.947  11.122  1.00  0.00     0.209 C 
ENDBRANCH  11  20
ENDBRANCH   1  10
BRANCH   4  22
HETATM   22  N6  UNL     1      17.084  -9.171  10.724  1.00  0.00    -0.234 N 
ATOM     23  H62 UNL     1      17.453 -10.109  10.570  1.00  0.00     0.174 HD
ATOM     24  H61 UNL     1      17.285  -8.436  10.046  1.00  0.00     0.174 HD
ENDBRANCH   4  22
BRANCH   7  25
HETATM   25  N8  UNL     1      16.960  -8.216  15.129  1.00  0.00    -0.234 N 
ATOM     26  H82 UNL     1      16.483  -7.990  16.003  1.00  0.00     0.174 HD
ATOM     27  H81 UNL     1      17.979  -8.240  15.088  1.00  0.00     0.174 HD
ENDBRANCH   7  25
TORSDOF 5
ENDMDL
MODEL 5
REMARK VINA RESULT: -6.596091605      2.725      4.142
REMARK  5 active torsions:
REMARK  status: ('A' for Active; 'I' for Inactive)
REMARK    1  A    between atoms: O1_2  and  C2_3 
REMARK    2  A    between atoms: C2_3  and  O2_4 
REMARK    3  A    between atoms: N4_12  and  C5_13 
REMARK    4  A    between atoms: C6_16  and  N6_17 
REMARK    5  A    between atoms: C7_22  and  N8_23 
ROOT
HETATM    1  C5  UNL     1       9.938  -8.238  11.760  1.00  0.00     0.734 A 
HETATM    2  N5  UNL     1       9.708  -6.922  11.511  1.00  0.00    -0.020 N 
ATOM      3  H5  UNL     1      10.395  -6.240  11.833  1.00  0.00     0.203 HD
HETATM    4  C6  UNL     1       8.623  -6.474  10.864  1.00  0.00     0.705 A 
HETATM    5  N7  UNL     1       7.702  -7.354  10.429  1.00  0.00    -0.022 N 
ATOM      6  H7  UNL     1       6.870  -7.032   9.936  1.00  0.00     0.203 HD
HETATM    7  C7  UNL     1       7.896  -8.660  10.655  1.00  0.00     0.705 A 
HETATM    8  N9  UNL     1       8.995  -9.085  11.308  1.00  0.00    -0.020 N 
ATOM      9  H9  UNL     1       9.118 -10.085  11.466  1.00  0.00     0.203 HD
ENDROOT
BRANCH   1  10
HETATM   10  N4  UNL     1      11.104  -8.672  12.451  1.00  0.00    -0.037 N 
HETATM   11  C2  UNL     1      12.324  -7.915  12.758  1.00  0.00     0.377 C 
HETATM   12  N1  UNL     1      13.276  -8.957  13.043  1.00  0.00    -0.287 N 
HETATM   13  C4  UNL     1      12.539 -10.141  13.334  1.00  0.00     0.209 C 
ATOM     14  H1  UNL     1      14.292  -8.865  13.036  1.00  0.00     0.169 HD
HETATM   15  N2  UNL     1      13.116 -11.322  13.917  1.00  0.00    -0.062 NA
HETATM   16  N3  UNL     1      11.333  -9.936  12.988  1.00  0.00    -0.251 N 
ATOM     17  H3  UNL     1      10.598 -10.636  13.095  1.00  0.00     0.190 HD
BRANCH  11  18
HETATM   18  O1  UNL     1      12.747  -7.194  11.661  1.00  0.00    -0.324 OA
HETATM   19  C1  UNL     1      14.126  -7.211  11.513  1.00  0.00     0.209 C 
ENDBRANCH  11  18
BRANCH  11  20
HETATM   20  O2  UNL     1      12.113  -7.046  13.818  1.00  0.00    -0.324 OA
HETATM   21  C3  UNL     1      12.291  -5.720  13.481  1.00  0.00     0.209 C 
ENDBRANCH  11  20
ENDBRANCH   1  10
BRANCH   4  22
HETATM   22  N6  UNL     1       8.411  -5.218  10.632  1.00  0.00    -0.234 N 
ATOM     23  H62 UNL     1       9.142  -4.557  10.894  1.00  0.00     0.174 HD
ATOM     24  H61 UNL     1       7.553  -4.870  10.204  1.00  0.00     0.174 HD
ENDBRANCH   4  22
BRANCH   7  25
HETATM   25  N8  UNL     1       6.998  -9.481  10.227  1.00  0.00    -0.234 N 
ATOM     26  H82 UNL     1       6.111  -9.156   9.840  1.00  0.00     0.174 HD
ATOM     27  H81 UNL     1       7.202 -10.479  10.286  1.00  0.00     0.174 HD
ENDBRANCH   7  25
TORSDOF 5
ENDMDL
