MODEL 1
REMARK VINA RESULT: -8.767431272      0.000      0.000
REMARK  7 active torsions:
REMARK  status: ('A' for Active; 'I' for Inactive)
REMARK    1  A    between atoms: C6_7  and  S2_8 
REMARK    2  A    between atoms: S2_8  and  N1_11 
REMARK       I    between atoms: N1_11  and  C7_13 
REMARK    3  A    between atoms: C7_13  and  C8_15 
REMARK    4  A    between atoms: C8_15  and  C11_18 
REMARK    5  A    between atoms: C14_21  and  C15_22 
REMARK    6  A    between atoms: C15_22  and  O4_24 
REMARK    7  A    between atoms: C15_22  and  C17_26 
ROOT
HETATM    1  C8  UNL     1      18.150  82.302   1.987  1.00  0.00     0.061 C 
HETATM    2  C9  UNL     1      17.605  80.908   2.219  1.00  0.00     0.030 C 
HETATM    3  C10 UNL     1      17.218  82.967   0.941  1.00  0.00     0.030 C 
ENDROOT
BRANCH   1   4
HETATM    4  C7  UNL     1      19.430  82.121   1.237  1.00  0.00     0.243 C 
HETATM    5  N1  UNL     1      19.245  81.727  -0.109  1.00  0.00    -0.249 N 
ATOM      6  H1  UNL     1      18.275  81.619  -0.403  1.00  0.00     0.182 HD
HETATM    7  O3  UNL     1      20.515  82.293   1.731  1.00  0.00    -0.271 OA
BRANCH   5   8
HETATM    8  S2  UNL     1      20.405  81.410  -1.303  1.00  0.00     0.266 S 
HETATM    9  O1  UNL     1      19.794  80.654  -2.460  1.00  0.00    -0.200 OA
HETATM   10  O2  UNL     1      21.551  80.589  -0.801  1.00  0.00    -0.200 OA
BRANCH   8  11
HETATM   11  C6  UNL     1      21.099  82.959  -1.873  1.00  0.00     0.099 A 
HETATM   12  C2  UNL     1      22.311  83.403  -1.514  1.00  0.00    -0.031 A 
HETATM   13  C1  UNL     1      23.189  82.672  -0.498  1.00  0.00     0.050 C 
HETATM   14  C3  UNL     1      22.755  84.576  -2.067  1.00  0.00     0.058 A 
HETATM   15  S1  UNL     1      21.468  85.031  -3.079  1.00  0.00    -0.105 SA
HETATM   16  C4  UNL     1      20.395  83.719  -2.772  1.00  0.00     0.002 A 
HETATM   17  C5  UNL     1      19.034  83.485  -3.386  1.00  0.00     0.058 C 
ENDBRANCH   8  11
ENDBRANCH   5   8
ENDBRANCH   1   4
BRANCH   1  18
HETATM   18  C11 UNL     1      18.195  82.985   3.254  1.00  0.00    -0.041 A 
HETATM   19  C12 UNL     1      18.150  82.217   4.414  1.00  0.00     0.009 A 
HETATM   20  C13 UNL     1      18.181  82.768   5.683  1.00  0.00     0.011 A 
HETATM   21  C14 UNL     1      18.259  84.106   5.872  1.00  0.00    -0.016 A 
HETATM   22  C18 UNL     1      18.305  84.896   4.738  1.00  0.00     0.011 A 
HETATM   23  C19 UNL     1      18.273  84.343   3.452  1.00  0.00     0.009 A 
BRANCH  21  24
HETATM   24  C15 UNL     1      18.316  84.774   7.185  1.00  0.00     0.179 C 
HETATM   25  C16 UNL     1      17.629  83.863   8.206  1.00  0.00     0.061 C 
BRANCH  24  26
HETATM   26  O4  UNL     1      17.657  85.999   7.170  1.00  0.00    -0.376 OA
ATOM     27  H4  UNL     1      18.253  86.717   6.993  1.00  0.00     0.211 HD
ENDBRANCH  24  26
BRANCH  24  28
HETATM   28  C17 UNL     1      19.716  84.999   7.703  1.00  0.00     0.422 C 
HETATM   29  F1  UNL     1      20.667  84.439   6.883  1.00  0.00    -0.167 F 
HETATM   30  F2  UNL     1      19.935  86.387   7.566  1.00  0.00    -0.167 F 
HETATM   31  F3  UNL     1      19.884  84.754   9.036  1.00  0.00    -0.167 F 
ENDBRANCH  24  28
ENDBRANCH  21  24
ENDBRANCH   1  18
TORSDOF 7
ENDMDL
MODEL 2
REMARK VINA RESULT: -8.753662391      1.861      2.658
REMARK  7 active torsions:
REMARK  status: ('A' for Active; 'I' for Inactive)
REMARK    1  A    between atoms: C6_7  and  S2_8 
REMARK    2  A    between atoms: S2_8  and  N1_11 
REMARK       I    between atoms: N1_11  and  C7_13 
REMARK    3  A    between atoms: C7_13  and  C8_15 
REMARK    4  A    between atoms: C8_15  and  C11_18 
REMARK    5  A    between atoms: C14_21  and  C15_22 
REMARK    6  A    between atoms: C15_22  and  O4_24 
REMARK    7  A    between atoms: C15_22  and  C17_26 
ROOT
HETATM    1  C8  UNL     1      17.714  82.009   1.232  1.00  0.00     0.061 C 
HETATM    2  C9  UNL     1      16.749  80.846   1.331  1.00  0.00     0.030 C 
HETATM    3  C10 UNL     1      17.082  83.018   0.240  1.00  0.00     0.030 C 
ENDROOT
BRANCH   1   4
HETATM    4  C7  UNL     1      18.902  81.494   0.486  1.00  0.00     0.243 C 
HETATM    5  N1  UNL     1      19.988  82.398   0.459  1.00  0.00    -0.249 N 
ATOM      6  H1  UNL     1      19.835  83.280   0.950  1.00  0.00     0.182 HD
HETATM    7  O3  UNL     1      18.930  80.412  -0.044  1.00  0.00    -0.271 OA
BRANCH   5   8
HETATM    8  S2  UNL     1      21.510  82.228  -0.268  1.00  0.00     0.266 S 
HETATM    9  O1  UNL     1      21.497  82.774  -1.678  1.00  0.00    -0.200 OA
HETATM   10  O2  UNL     1      21.959  80.803  -0.355  1.00  0.00    -0.200 OA
BRANCH   8  11
HETATM   11  C6  UNL     1      22.731  83.088   0.718  1.00  0.00     0.099 A 
HETATM   12  C2  UNL     1      23.772  83.749   0.195  1.00  0.00    -0.031 A 
HETATM   13  C1  UNL     1      24.077  83.753  -1.303  1.00  0.00     0.050 C 
HETATM   14  C3  UNL     1      24.604  84.421   1.053  1.00  0.00     0.058 A 
HETATM   15  S1  UNL     1      23.910  84.114   2.574  1.00  0.00    -0.105 SA
HETATM   16  C4  UNL     1      22.580  83.137   2.081  1.00  0.00     0.002 A 
HETATM   17  C5  UNL     1      21.514  82.529   2.962  1.00  0.00     0.058 C 
ENDBRANCH   8  11
ENDBRANCH   5   8
ENDBRANCH   1   4
BRANCH   1  18
HETATM   18  C11 UNL     1      17.921  82.536   2.557  1.00  0.00    -0.041 A 
HETATM   19  C12 UNL     1      17.978  83.917   2.711  1.00  0.00     0.009 A 
HETATM   20  C13 UNL     1      18.178  84.531   3.935  1.00  0.00     0.011 A 
HETATM   21  C14 UNL     1      18.330  83.811   5.072  1.00  0.00    -0.016 A 
HETATM   22  C18 UNL     1      18.279  82.435   4.951  1.00  0.00     0.011 A 
HETATM   23  C19 UNL     1      18.078  81.810   3.714  1.00  0.00     0.009 A 
BRANCH  21  24
HETATM   24  C15 UNL     1      18.527  84.383   6.416  1.00  0.00     0.179 C 
HETATM   25  C16 UNL     1      18.041  83.354   7.441  1.00  0.00     0.061 C 
BRANCH  24  26
HETATM   26  O4  UNL     1      17.802  85.557   6.588  1.00  0.00    -0.376 OA
ATOM     27  H4  UNL     1      18.365  86.322   6.587  1.00  0.00     0.211 HD
ENDBRANCH  24  26
BRANCH  24  28
HETATM   28  C17 UNL     1      19.969  84.665   6.761  1.00  0.00     0.422 C 
HETATM   29  F1  UNL     1      20.777  84.664   5.649  1.00  0.00    -0.167 F 
HETATM   30  F2  UNL     1      19.984  86.014   7.181  1.00  0.00    -0.167 F 
HETATM   31  F3  UNL     1      20.454  83.967   7.830  1.00  0.00    -0.167 F 
ENDBRANCH  24  28
ENDBRANCH  21  24
ENDBRANCH   1  18
TORSDOF 7
ENDMDL
MODEL 3
REMARK VINA RESULT: -8.735281654      0.414      1.544
REMARK  7 active torsions:
REMARK  status: ('A' for Active; 'I' for Inactive)
REMARK    1  A    between atoms: C6_7  and  S2_8 
REMARK    2  A    between atoms: S2_8  and  N1_11 
REMARK       I    between atoms: N1_11  and  C7_13 
REMARK    3  A    between atoms: C7_13  and  C8_15 
REMARK    4  A    between atoms: C8_15  and  C11_18 
REMARK    5  A    between atoms: C14_21  and  C15_22 
REMARK    6  A    between atoms: C15_22  and  O4_24 
REMARK    7  A    between atoms: C15_22  and  C17_26 
ROOT
HETATM    1  C8  UNL     1      18.161  82.329   1.918  1.00  0.00     0.061 C 
HETATM    2  C9  UNL     1      17.586  80.946   2.148  1.00  0.00     0.030 C 
HETATM    3  C10 UNL     1      17.249  83.011   0.865  1.00  0.00     0.030 C 
ENDROOT
BRANCH   1   4
HETATM    4  C7  UNL     1      19.442  82.122   1.177  1.00  0.00     0.243 C 
HETATM    5  N1  UNL     1      19.259  81.701  -0.160  1.00  0.00    -0.249 N 
ATOM      6  H1  UNL     1      18.289  81.593  -0.456  1.00  0.00     0.182 HD
HETATM    7  O3  UNL     1      20.526  82.297   1.672  1.00  0.00    -0.271 OA
BRANCH   5   8
HETATM    8  S2  UNL     1      20.421  81.349  -1.343  1.00  0.00     0.266 S 
HETATM    9  O1  UNL     1      19.801  80.604  -2.503  1.00  0.00    -0.200 OA
HETATM   10  O2  UNL     1      21.541  80.501  -0.827  1.00  0.00    -0.200 OA
BRANCH   8  11
HETATM   11  C6  UNL     1      21.159  82.877  -1.912  1.00  0.00     0.099 A 
HETATM   12  C2  UNL     1      20.516  83.771  -2.675  1.00  0.00    -0.031 A 
HETATM   13  C1  UNL     1      19.108  83.527  -3.220  1.00  0.00     0.050 C 
HETATM   14  C3  UNL     1      21.169  84.933  -2.994  1.00  0.00     0.058 A 
HETATM   15  S1  UNL     1      22.670  84.750  -2.218  1.00  0.00    -0.105 SA
HETATM   16  C4  UNL     1      22.431  83.200  -1.509  1.00  0.00     0.002 A 
HETATM   17  C5  UNL     1      23.397  82.432  -0.638  1.00  0.00     0.058 C 
ENDBRANCH   8  11
ENDBRANCH   5   8
ENDBRANCH   1   4
BRANCH   1  18
HETATM   18  C11 UNL     1      18.210  83.012   3.185  1.00  0.00    -0.041 A 
HETATM   19  C12 UNL     1      18.175  82.244   4.345  1.00  0.00     0.009 A 
HETATM   20  C13 UNL     1      18.211  82.795   5.614  1.00  0.00     0.011 A 
HETATM   21  C14 UNL     1      18.285  84.134   5.803  1.00  0.00    -0.016 A 
HETATM   22  C18 UNL     1      18.320  84.923   4.669  1.00  0.00     0.011 A 
HETATM   23  C19 UNL     1      18.283  84.370   3.383  1.00  0.00     0.009 A 
BRANCH  21  24
HETATM   24  C15 UNL     1      18.347  84.801   7.116  1.00  0.00     0.179 C 
HETATM   25  C16 UNL     1      17.667  83.888   8.140  1.00  0.00     0.061 C 
BRANCH  24  26
HETATM   26  O4  UNL     1      17.684  86.024   7.104  1.00  0.00    -0.376 OA
ATOM     27  H4  UNL     1      18.285  86.749   6.977  1.00  0.00     0.211 HD
ENDBRANCH  24  26
BRANCH  24  28
HETATM   28  C17 UNL     1      19.748  85.030   7.626  1.00  0.00     0.422 C 
HETATM   29  F1  UNL     1      20.698  84.496   6.788  1.00  0.00    -0.167 F 
HETATM   30  F2  UNL     1      19.952  86.424   7.515  1.00  0.00    -0.167 F 
HETATM   31  F3  UNL     1      19.930  84.761   8.953  1.00  0.00    -0.167 F 
ENDBRANCH  24  28
ENDBRANCH  21  24
ENDBRANCH   1  18
TORSDOF 7
ENDMDL
MODEL 4
REMARK VINA RESULT: -8.722308724      1.879      2.665
REMARK  7 active torsions:
REMARK  status: ('A' for Active; 'I' for Inactive)
REMARK    1  A    between atoms: C6_7  and  S2_8 
REMARK    2  A    between atoms: S2_8  and  N1_11 
REMARK       I    between atoms: N1_11  and  C7_13 
REMARK    3  A    between atoms: C7_13  and  C8_15 
REMARK    4  A    between atoms: C8_15  and  C11_18 
REMARK    5  A    between atoms: C14_21  and  C15_22 
REMARK    6  A    between atoms: C15_22  and  O4_24 
REMARK    7  A    between atoms: C15_22  and  C17_26 
ROOT
HETATM    1  C8  UNL     1      17.672  81.995   1.198  1.00  0.00     0.061 C 
HETATM    2  C9  UNL     1      16.733  80.812   1.308  1.00  0.00     0.030 C 
HETATM    3  C10 UNL     1      17.004  82.994   0.218  1.00  0.00     0.030 C 
ENDROOT
BRANCH   1   4
HETATM    4  C7  UNL     1      18.858  81.506   0.432  1.00  0.00     0.243 C 
HETATM    5  N1  UNL     1      19.968  82.381   0.490  1.00  0.00    -0.249 N 
ATOM      6  H1  UNL     1      19.829  83.227   1.043  1.00  0.00     0.182 HD
HETATM    7  O3  UNL     1      18.868  80.467  -0.177  1.00  0.00    -0.271 OA
BRANCH   5   8
HETATM    8  S2  UNL     1      21.496  82.225  -0.226  1.00  0.00     0.266 S 
HETATM    9  O1  UNL     1      21.487  82.764  -1.638  1.00  0.00    -0.200 OA
HETATM   10  O2  UNL     1      21.963  80.805  -0.303  1.00  0.00    -0.200 OA
BRANCH   8  11
HETATM   11  C6  UNL     1      22.700  83.105   0.764  1.00  0.00     0.099 A 
HETATM   12  C2  UNL     1      22.631  83.203   2.099  1.00  0.00    -0.031 A 
HETATM   13  C1  UNL     1      21.456  82.651   2.905  1.00  0.00     0.050 C 
HETATM   14  C3  UNL     1      23.649  83.852   2.748  1.00  0.00     0.058 A 
HETATM   15  S1  UNL     1      24.681  84.309   1.478  1.00  0.00    -0.105 SA
HETATM   16  C4  UNL     1      23.793  83.666   0.151  1.00  0.00     0.002 A 
HETATM   17  C5  UNL     1      24.172  83.705  -1.311  1.00  0.00     0.058 C 
ENDBRANCH   8  11
ENDBRANCH   5   8
ENDBRANCH   1   4
BRANCH   1  18
HETATM   18  C11 UNL     1      17.888  82.523   2.521  1.00  0.00    -0.041 A 
HETATM   19  C12 UNL     1      17.909  83.904   2.680  1.00  0.00     0.009 A 
HETATM   20  C13 UNL     1      18.114  84.519   3.903  1.00  0.00     0.011 A 
HETATM   21  C14 UNL     1      18.307  83.799   5.033  1.00  0.00    -0.016 A 
HETATM   22  C18 UNL     1      18.293  82.423   4.907  1.00  0.00     0.011 A 
HETATM   23  C19 UNL     1      18.087  81.797   3.671  1.00  0.00     0.009 A 
BRANCH  21  24
HETATM   24  C15 UNL     1      18.513  84.371   6.376  1.00  0.00     0.179 C 
HETATM   25  C16 UNL     1      18.017  83.350   7.404  1.00  0.00     0.061 C 
BRANCH  24  26
HETATM   26  O4  UNL     1      17.800  85.554   6.547  1.00  0.00    -0.376 OA
ATOM     27  H4  UNL     1      16.864  85.417   6.461  1.00  0.00     0.211 HD
ENDBRANCH  24  26
BRANCH  24  28
HETATM   28  C17 UNL     1      19.958  84.640   6.718  1.00  0.00     0.422 C 
HETATM   29  F1  UNL     1      20.766  84.618   5.606  1.00  0.00    -0.167 F 
HETATM   30  F2  UNL     1      19.990  85.992   7.126  1.00  0.00    -0.167 F 
HETATM   31  F3  UNL     1      20.434  83.945   7.793  1.00  0.00    -0.167 F 
ENDBRANCH  24  28
ENDBRANCH  21  24
ENDBRANCH   1  18
TORSDOF 7
ENDMDL
MODEL 5
REMARK VINA RESULT: -8.663707001      0.980      1.911
REMARK  7 active torsions:
REMARK  status: ('A' for Active; 'I' for Inactive)
REMARK    1  A    between atoms: C6_7  and  S2_8 
REMARK    2  A    between atoms: S2_8  and  N1_11 
REMARK       I    between atoms: N1_11  and  C7_13 
REMARK    3  A    between atoms: C7_13  and  C8_15 
REMARK    4  A    between atoms: C8_15  and  C11_18 
REMARK    5  A    between atoms: C14_21  and  C15_22 
REMARK    6  A    between atoms: C15_22  and  O4_24 
REMARK    7  A    between atoms: C15_22  and  C17_26 
ROOT
HETATM    1  C8  UNL     1      18.276  82.225   2.363  1.00  0.00     0.061 C 
HETATM    2  C9  UNL     1      17.595  80.875   2.449  1.00  0.00     0.030 C 
HETATM    3  C10 UNL     1      17.527  83.023   1.265  1.00  0.00     0.030 C 
ENDROOT
BRANCH   1   4
HETATM    4  C7  UNL     1      19.614  81.970   1.748  1.00  0.00     0.243 C 
HETATM    5  N1  UNL     1      19.678  82.309   0.376  1.00  0.00    -0.249 N 
ATOM      6  H1  UNL     1      18.817  82.684  -0.022  1.00  0.00     0.182 HD
HETATM    7  O3  UNL     1      20.548  81.520   2.361  1.00  0.00    -0.271 OA
BRANCH   5   8
HETATM    8  S2  UNL     1      20.980  82.181  -0.701  1.00  0.00     0.266 S 
HETATM    9  O1  UNL     1      21.253  80.736  -1.048  1.00  0.00    -0.200 OA
HETATM   10  O2  UNL     1      22.252  82.746  -0.150  1.00  0.00    -0.200 OA
BRANCH   8  11
HETATM   11  C6  UNL     1      20.608  83.114  -2.183  1.00  0.00     0.099 A 
HETATM   12  C2  UNL     1      19.492  82.944  -2.904  1.00  0.00    -0.031 A 
HETATM   13  C1  UNL     1      18.463  81.860  -2.585  1.00  0.00     0.050 C 
HETATM   14  C3  UNL     1      19.294  83.763  -3.985  1.00  0.00     0.058 A 
HETATM   15  S1  UNL     1      20.673  84.756  -3.968  1.00  0.00    -0.105 SA
HETATM   16  C4  UNL     1      21.470  84.103  -2.588  1.00  0.00     0.002 A 
HETATM   17  C5  UNL     1      22.779  84.556  -1.985  1.00  0.00     0.058 C 
ENDBRANCH   8  11
ENDBRANCH   5   8
ENDBRANCH   1   4
BRANCH   1  18
HETATM   18  C11 UNL     1      18.233  82.835   3.668  1.00  0.00    -0.041 A 
HETATM   19  C12 UNL     1      18.047  82.008   4.771  1.00  0.00     0.009 A 
HETATM   20  C13 UNL     1      17.983  82.486   6.068  1.00  0.00     0.011 A 
HETATM   21  C14 UNL     1      18.102  83.807   6.342  1.00  0.00    -0.016 A 
HETATM   22  C18 UNL     1      18.287  84.654   5.265  1.00  0.00     0.011 A 
HETATM   23  C19 UNL     1      18.350  84.174   3.951  1.00  0.00     0.009 A 
BRANCH  21  24
HETATM   24  C15 UNL     1      18.065  84.398   7.692  1.00  0.00     0.179 C 
HETATM   25  C16 UNL     1      17.150  83.531   8.561  1.00  0.00     0.061 C 
BRANCH  24  26
HETATM   26  O4  UNL     1      17.561  85.695   7.673  1.00  0.00    -0.376 OA
ATOM     27  H4  UNL     1      18.104  86.291   8.176  1.00  0.00     0.211 HD
ENDBRANCH  24  26
BRANCH  24  28
HETATM   28  C17 UNL     1      19.402  84.423   8.391  1.00  0.00     0.422 C 
HETATM   29  F1  UNL     1      20.125  85.552   8.085  1.00  0.00    -0.167 F 
HETATM   30  F2  UNL     1      19.094  84.587   9.760  1.00  0.00    -0.167 F 
HETATM   31  F3  UNL     1      20.104  83.253   8.335  1.00  0.00    -0.167 F 
ENDBRANCH  24  28
ENDBRANCH  21  24
ENDBRANCH   1  18
TORSDOF 7
ENDMDL
