MODEL 1
REMARK VINA RESULT: -9.634875812      0.000      0.000
REMARK  7 active torsions:
REMARK  status: ('A' for Active; 'I' for Inactive)
REMARK       I    between atoms: N1_2  and  C2_4 
REMARK    1  A    between atoms: C2_4  and  C3_6 
REMARK    2  A    between atoms: N2_8  and  C5_9 
REMARK    3  A    between atoms: C8_12  and  N3_13 
REMARK    4  A    between atoms: C11_18  and  O2_19 
REMARK    5  A    between atoms: C12_21  and  C13_22 
REMARK    6  A    between atoms: C13_22  and  C14_23 
REMARK    7  A    between atoms: C14_23  and  C15_24 
ROOT
HETATM    1  C5  UNL     1      18.482  84.022   3.682  1.00  0.00     0.224 C 
HETATM    2  C6  UNL     1      19.553  85.008   3.422  1.00  0.00     0.041 C 
HETATM    3  C7  UNL     1      20.163  85.682   4.629  1.00  0.00     0.055 C 
HETATM    4  C8  UNL     1      20.478  84.558   5.628  1.00  0.00     0.002 C 
HETATM    5  C12 UNL     1      19.245  83.910   6.087  1.00  0.00     0.034 C 
HETATM    6  C16 UNL     1      18.732  83.102   4.846  1.00  0.00     0.046 C 
ENDROOT
BRANCH   1   7
HETATM    7  N2  UNL     1      18.362  83.177   2.498  1.00  0.00     0.094 N 
HETATM    8  C4  UNL     1      17.427  83.698   1.527  1.00  0.00     0.287 C 
HETATM    9  C3  UNL     1      17.652  82.856   0.260  1.00  0.00     0.110 C 
HETATM   10  C23 UNL     1      16.953  81.531   0.603  1.00  0.00     0.006 C 
HETATM   11  C18 UNL     1      17.827  80.935   1.680  1.00  0.00     0.019 C 
HETATM   12  C22 UNL     1      16.921  80.578  -0.560  1.00  0.00     0.006 C 
HETATM   13  C17 UNL     1      18.059  81.831   2.855  1.00  0.00     0.278 C 
HETATM   14  C19 UNL     1      17.300  79.598   2.136  1.00  0.00     0.007 C 
HETATM   15  C20 UNL     1      16.036  79.256   1.385  1.00  0.00     0.000 C 
HETATM   16  C21 UNL     1      16.235  79.298  -0.100  1.00  0.00     0.000 C 
BRANCH   9  17
HETATM   17  C2  UNL     1      17.133  83.523  -0.923  1.00  0.00     0.223 C 
HETATM   18  N1  UNL     1      17.933  83.661  -2.083  1.00  0.00    -0.365 N 
HETATM   19  C1  UNL     1      17.432  84.327  -3.279  1.00  0.00     0.149 C 
ATOM     20  H1  UNL     1      18.882  83.284  -2.082  1.00  0.00     0.161 HD
HETATM   21  O1  UNL     1      15.973  83.989  -0.936  1.00  0.00    -0.273 OA
ENDBRANCH   9  17
ENDBRANCH   1   7
BRANCH   5  22
HETATM   22  C13 UNL     1      18.090  84.701   6.522  1.00  0.00     0.019 C 
BRANCH  22  23
HETATM   23  C14 UNL     1      17.824  84.808   7.979  1.00  0.00     0.118 C 
BRANCH  23  24
HETATM   24  C15 UNL     1      17.428  83.546   8.676  1.00  0.00     0.387 C 
HETATM   25  F1  UNL     1      17.558  82.432   7.956  1.00  0.00    -0.171 F 
HETATM   26  F2  UNL     1      18.192  83.431   9.837  1.00  0.00    -0.171 F 
HETATM   27  F3  UNL     1      16.110  83.601   9.132  1.00  0.00    -0.171 F 
ENDBRANCH  23  24
ENDBRANCH  22  23
ENDBRANCH   5  22
BRANCH   4  28
HETATM   28  N3  UNL     1      21.573  84.828   6.473  1.00  0.00    -0.295 N 
HETATM   29  C9  UNL     1      21.540  84.952   7.837  1.00  0.00     0.190 A 
HETATM   30  N4  UNL     1      22.765  85.181   8.325  1.00  0.00    -0.358 N 
HETATM   31  C10 UNL     1      23.610  85.205   7.251  1.00  0.00     0.145 A 
ATOM     32  H4  UNL     1      23.018  85.311   9.304  1.00  0.00     0.166 HD
HETATM   33  C11 UNL     1      22.863  84.987   6.118  1.00  0.00     0.163 A 
BRANCH  33  34
HETATM   34  O2  UNL     1      23.361  84.939   4.840  1.00  0.00    -0.345 OA
ATOM     35  H2  UNL     1      23.272  85.616   4.179  1.00  0.00     0.219 HD
ENDBRANCH  33  34
ENDBRANCH   4  28
TORSDOF 7
ENDMDL
MODEL 2
REMARK VINA RESULT: -9.449476651      1.449      1.629
REMARK  7 active torsions:
REMARK  status: ('A' for Active; 'I' for Inactive)
REMARK       I    between atoms: N1_2  and  C2_4 
REMARK    1  A    between atoms: C2_4  and  C3_6 
REMARK    2  A    between atoms: N2_8  and  C5_9 
REMARK    3  A    between atoms: C8_12  and  N3_13 
REMARK    4  A    between atoms: C11_18  and  O2_19 
REMARK    5  A    between atoms: C12_21  and  C13_22 
REMARK    6  A    between atoms: C13_22  and  C14_23 
REMARK    7  A    between atoms: C14_23  and  C15_24 
ROOT
HETATM    1  C5  UNL     1      18.391  83.917   3.961  1.00  0.00     0.224 C 
HETATM    2  C6  UNL     1      19.425  84.955   3.769  1.00  0.00     0.041 C 
HETATM    3  C7  UNL     1      19.961  85.619   5.015  1.00  0.00     0.055 C 
HETATM    4  C8  UNL     1      20.291  84.481   5.994  1.00  0.00     0.002 C 
HETATM    5  C12 UNL     1      19.072  83.766   6.389  1.00  0.00     0.034 C 
HETATM    6  C16 UNL     1      18.640  82.974   5.107  1.00  0.00     0.046 C 
ENDROOT
BRANCH   1   7
HETATM    7  N2  UNL     1      18.351  83.102   2.750  1.00  0.00     0.094 N 
HETATM    8  C4  UNL     1      17.517  83.672   1.716  1.00  0.00     0.287 C 
HETATM    9  C3  UNL     1      17.828  82.853   0.452  1.00  0.00     0.110 C 
HETATM   10  C23 UNL     1      17.067  81.541   0.701  1.00  0.00     0.006 C 
HETATM   11  C18 UNL     1      17.829  80.896   1.834  1.00  0.00     0.019 C 
HETATM   12  C22 UNL     1      17.110  80.616  -0.484  1.00  0.00     0.006 C 
HETATM   13  C17 UNL     1      17.983  81.758   3.046  1.00  0.00     0.278 C 
HETATM   14  C19 UNL     1      17.230  79.565   2.209  1.00  0.00     0.007 C 
HETATM   15  C20 UNL     1      16.026  79.276   1.344  1.00  0.00     0.000 C 
HETATM   16  C21 UNL     1      16.353  79.346  -0.117  1.00  0.00     0.000 C 
BRANCH   9  17
HETATM   17  C2  UNL     1      17.431  83.562  -0.753  1.00  0.00     0.223 C 
HETATM   18  N1  UNL     1      18.390  83.906  -1.736  1.00  0.00    -0.365 N 
HETATM   19  C1  UNL     1      18.012  84.618  -2.952  1.00  0.00     0.149 C 
ATOM     20  H1  UNL     1      19.367  83.650  -1.592  1.00  0.00     0.161 HD
HETATM   21  O1  UNL     1      16.237  83.881  -0.942  1.00  0.00    -0.273 OA
ENDBRANCH   9  17
ENDBRANCH   1   7
BRANCH   5  22
HETATM   22  C13 UNL     1      17.868  84.493   6.803  1.00  0.00     0.019 C 
BRANCH  22  23
HETATM   23  C14 UNL     1      17.952  85.354   8.009  1.00  0.00     0.118 C 
BRANCH  23  24
HETATM   24  C15 UNL     1      17.927  86.831   7.774  1.00  0.00     0.387 C 
HETATM   25  F1  UNL     1      19.116  87.431   7.785  1.00  0.00    -0.171 F 
HETATM   26  F2  UNL     1      17.308  87.065   6.546  1.00  0.00    -0.171 F 
HETATM   27  F3  UNL     1      17.115  87.486   8.701  1.00  0.00    -0.171 F 
ENDBRANCH  23  24
ENDBRANCH  22  23
ENDBRANCH   5  22
BRANCH   4  28
HETATM   28  N3  UNL     1      21.342  84.773   6.886  1.00  0.00    -0.295 N 
HETATM   29  C9  UNL     1      21.241  84.925   8.244  1.00  0.00     0.190 A 
HETATM   30  N4  UNL     1      22.440  85.169   8.786  1.00  0.00    -0.358 N 
HETATM   31  C10 UNL     1      23.337  85.174   7.755  1.00  0.00     0.145 A 
ATOM     32  H4  UNL     1      22.644  85.320   9.773  1.00  0.00     0.166 HD
HETATM   33  C11 UNL     1      22.647  84.929   6.592  1.00  0.00     0.163 A 
BRANCH  33  34
HETATM   34  O2  UNL     1      23.208  84.858   5.340  1.00  0.00    -0.345 OA
ATOM     35  H2  UNL     1      24.037  84.449   5.121  1.00  0.00     0.219 HD
ENDBRANCH  33  34
ENDBRANCH   4  28
TORSDOF 7
ENDMDL
MODEL 3
REMARK VINA RESULT: -8.959204051      3.287      5.074
REMARK  7 active torsions:
REMARK  status: ('A' for Active; 'I' for Inactive)
REMARK       I    between atoms: N1_2  and  C2_4 
REMARK    1  A    between atoms: C2_4  and  C3_6 
REMARK    2  A    between atoms: N2_8  and  C5_9 
REMARK    3  A    between atoms: C8_12  and  N3_13 
REMARK    4  A    between atoms: C11_18  and  O2_19 
REMARK    5  A    between atoms: C12_21  and  C13_22 
REMARK    6  A    between atoms: C13_22  and  C14_23 
REMARK    7  A    between atoms: C14_23  and  C15_24 
ROOT
HETATM    1  C5  UNL     1      18.326  82.279   1.711  1.00  0.00     0.224 C 
HETATM    2  C6  UNL     1      18.567  81.167   2.655  1.00  0.00     0.041 C 
HETATM    3  C7  UNL     1      19.057  81.540   4.034  1.00  0.00     0.055 C 
HETATM    4  C8  UNL     1      18.141  82.676   4.516  1.00  0.00     0.002 C 
HETATM    5  C12 UNL     1      18.304  83.867   3.676  1.00  0.00     0.034 C 
HETATM    6  C16 UNL     1      17.646  83.483   2.307  1.00  0.00     0.046 C 
ENDROOT
BRANCH   1   7
HETATM    7  N2  UNL     1      17.449  81.782   0.655  1.00  0.00     0.094 N 
HETATM    8  C4  UNL     1      17.888  80.519   0.107  1.00  0.00     0.287 C 
HETATM    9  C3  UNL     1      16.714  80.025  -0.755  1.00  0.00     0.110 C 
HETATM   10  C23 UNL     1      16.822  80.902  -2.012  1.00  0.00     0.006 C 
HETATM   11  C18 UNL     1      16.449  82.279  -1.520  1.00  0.00     0.019 C 
HETATM   12  C22 UNL     1      15.843  80.500  -3.081  1.00  0.00     0.006 C 
HETATM   13  C17 UNL     1      17.260  82.763  -0.361  1.00  0.00     0.278 C 
HETATM   14  C19 UNL     1      16.480  83.288  -2.640  1.00  0.00     0.007 C 
HETATM   15  C20 UNL     1      16.894  82.619  -3.928  1.00  0.00     0.000 C 
HETATM   16  C21 UNL     1      16.020  81.447  -4.260  1.00  0.00     0.000 C 
BRANCH   9  17
HETATM   17  C2  UNL     1      16.802  78.596  -1.005  1.00  0.00     0.223 C 
HETATM   18  N1  UNL     1      16.439  77.664  -0.003  1.00  0.00    -0.365 N 
HETATM   19  C1  UNL     1      16.520  76.226  -0.234  1.00  0.00     0.149 C 
ATOM     20  H1  UNL     1      16.113  78.006   0.902  1.00  0.00     0.161 HD
HETATM   21  O1  UNL     1      17.200  78.164  -2.110  1.00  0.00    -0.273 OA
ENDBRANCH   9  17
ENDBRANCH   1   7
BRANCH   5  22
HETATM   22  C13 UNL     1      19.636  84.369   3.324  1.00  0.00     0.019 C 
BRANCH  22  23
HETATM   23  C14 UNL     1      20.190  85.495   4.116  1.00  0.00     0.118 C 
BRANCH  23  24
HETATM   24  C15 UNL     1      21.467  85.227   4.848  1.00  0.00     0.387 C 
HETATM   25  F1  UNL     1      21.327  84.838   6.114  1.00  0.00    -0.171 F 
HETATM   26  F2  UNL     1      22.174  84.252   4.145  1.00  0.00    -0.171 F 
HETATM   27  F3  UNL     1      22.309  86.340   4.839  1.00  0.00    -0.171 F 
ENDBRANCH  23  24
ENDBRANCH  22  23
ENDBRANCH   5  22
BRANCH   4  28
HETATM   28  N3  UNL     1      17.977  82.730   5.915  1.00  0.00    -0.295 N 
HETATM   29  C9  UNL     1      18.274  83.791   6.731  1.00  0.00     0.190 A 
HETATM   30  N4  UNL     1      17.967  83.512   8.003  1.00  0.00    -0.358 N 
HETATM   31  C10 UNL     1      17.461  82.243   8.011  1.00  0.00     0.145 A 
ATOM     32  H4  UNL     1      18.088  84.126   8.808  1.00  0.00     0.166 HD
HETATM   33  C11 UNL     1      17.473  81.774   6.719  1.00  0.00     0.163 A 
BRANCH  33  34
HETATM   34  O2  UNL     1      17.039  80.532   6.325  1.00  0.00    -0.345 OA
ATOM     35  H2  UNL     1      17.175  80.137   5.472  1.00  0.00     0.219 HD
ENDBRANCH  33  34
ENDBRANCH   4  28
TORSDOF 7
ENDMDL
MODEL 4
REMARK VINA RESULT: -8.601135472      3.166      4.747
REMARK  7 active torsions:
REMARK  status: ('A' for Active; 'I' for Inactive)
REMARK       I    between atoms: N1_2  and  C2_4 
REMARK    1  A    between atoms: C2_4  and  C3_6 
REMARK    2  A    between atoms: N2_8  and  C5_9 
REMARK    3  A    between atoms: C8_12  and  N3_13 
REMARK    4  A    between atoms: C11_18  and  O2_19 
REMARK    5  A    between atoms: C12_21  and  C13_22 
REMARK    6  A    between atoms: C13_22  and  C14_23 
REMARK    7  A    between atoms: C14_23  and  C15_24 
ROOT
HETATM    1  C5  UNL     1      18.481  82.871   2.365  1.00  0.00     0.224 C 
HETATM    2  C6  UNL     1      18.642  81.921   3.486  1.00  0.00     0.041 C 
HETATM    3  C7  UNL     1      19.116  82.495   4.801  1.00  0.00     0.055 C 
HETATM    4  C8  UNL     1      18.247  83.736   5.059  1.00  0.00     0.002 C 
HETATM    5  C12 UNL     1      18.492  84.763   4.040  1.00  0.00     0.034 C 
HETATM    6  C16 UNL     1      17.850  84.187   2.732  1.00  0.00     0.046 C 
ENDROOT
BRANCH   1   7
HETATM    7  N2  UNL     1      17.607  82.247   1.377  1.00  0.00     0.094 N 
HETATM    8  C4  UNL     1      17.780  80.814   1.297  1.00  0.00     0.287 C 
HETATM    9  C3  UNL     1      16.602  80.313   0.445  1.00  0.00     0.110 C 
HETATM   10  C23 UNL     1      17.023  80.703  -0.981  1.00  0.00     0.006 C 
HETATM   11  C18 UNL     1      16.945  82.211  -0.976  1.00  0.00     0.019 C 
HETATM   12  C22 UNL     1      16.073  80.184  -2.024  1.00  0.00     0.006 C 
HETATM   13  C17 UNL     1      17.744  82.869   0.103  1.00  0.00     0.278 C 
HETATM   14  C19 UNL     1      17.310  82.782  -2.323  1.00  0.00     0.007 C 
HETATM   15  C20 UNL     1      17.664  81.668  -3.279  1.00  0.00     0.000 C 
HETATM   16  C21 UNL     1      16.570  80.650  -3.387  1.00  0.00     0.000 C 
BRANCH   9  17
HETATM   17  C2  UNL     1      16.371  78.892   0.640  1.00  0.00     0.223 C 
HETATM   18  N1  UNL     1      17.098  77.934  -0.107  1.00  0.00    -0.365 N 
HETATM   19  C1  UNL     1      16.880  76.503   0.073  1.00  0.00     0.149 C 
ATOM     20  H1  UNL     1      17.790  78.251  -0.786  1.00  0.00     0.161 HD
HETATM   21  O1  UNL     1      15.525  78.490   1.469  1.00  0.00    -0.273 OA
ENDBRANCH   9  17
ENDBRANCH   1   7
BRANCH   5  22
HETATM   22  C13 UNL     1      19.856  85.137   3.654  1.00  0.00     0.019 C 
BRANCH  22  23
HETATM   23  C14 UNL     1      20.691  85.855   4.648  1.00  0.00     0.118 C 
BRANCH  23  24
HETATM   24  C15 UNL     1      21.993  85.214   5.009  1.00  0.00     0.387 C 
HETATM   25  F1  UNL     1      22.071  84.741   6.252  1.00  0.00    -0.171 F 
HETATM   26  F2  UNL     1      22.231  84.175   4.109  1.00  0.00    -0.171 F 
HETATM   27  F3  UNL     1      23.067  86.086   4.822  1.00  0.00    -0.171 F 
ENDBRANCH  23  24
ENDBRANCH  22  23
ENDBRANCH   5  22
BRANCH   4  28
HETATM   28  N3  UNL     1      18.052  84.030   6.424  1.00  0.00    -0.295 N 
HETATM   29  C9  UNL     1      18.169  85.259   7.019  1.00  0.00     0.190 A 
HETATM   30  N4  UNL     1      17.886  85.183   8.325  1.00  0.00    -0.358 N 
HETATM   31  C10 UNL     1      17.579  83.876   8.580  1.00  0.00     0.145 A 
ATOM     32  H4  UNL     1      17.897  85.950   8.996  1.00  0.00     0.166 HD
HETATM   33  C11 UNL     1      17.685  83.178   7.401  1.00  0.00     0.163 A 
BRANCH  33  34
HETATM   34  O2  UNL     1      17.452  81.833   7.255  1.00  0.00    -0.345 OA
ATOM     35  H2  UNL     1      17.099  81.251   7.918  1.00  0.00     0.219 HD
ENDBRANCH  33  34
ENDBRANCH   4  28
TORSDOF 7
ENDMDL
MODEL 5
REMARK VINA RESULT: -8.457182043      3.156      7.752
REMARK  7 active torsions:
REMARK  status: ('A' for Active; 'I' for Inactive)
REMARK       I    between atoms: N1_2  and  C2_4 
REMARK    1  A    between atoms: C2_4  and  C3_6 
REMARK    2  A    between atoms: N2_8  and  C5_9 
REMARK    3  A    between atoms: C8_12  and  N3_13 
REMARK    4  A    between atoms: C11_18  and  O2_19 
REMARK    5  A    between atoms: C12_21  and  C13_22 
REMARK    6  A    between atoms: C13_22  and  C14_23 
REMARK    7  A    between atoms: C14_23  and  C15_24 
ROOT
HETATM    1  C5  UNL     1      18.489  81.566   2.016  1.00  0.00     0.224 C 
HETATM    2  C6  UNL     1      19.899  81.797   1.637  1.00  0.00     0.041 C 
HETATM    3  C7  UNL     1      20.269  81.529   0.197  1.00  0.00     0.055 C 
HETATM    4  C8  UNL     1      19.196  82.229  -0.653  1.00  0.00     0.002 C 
HETATM    5  C12 UNL     1      17.880  81.617  -0.436  1.00  0.00     0.034 C 
HETATM    6  C16 UNL     1      17.474  82.049   1.015  1.00  0.00     0.046 C 
ENDROOT
BRANCH   1   7
HETATM    7  N2  UNL     1      18.237  82.297   3.254  1.00  0.00     0.094 N 
HETATM    8  C4  UNL     1      19.419  82.945   3.775  1.00  0.00     0.287 C 
HETATM    9  C3  UNL     1      18.909  83.882   4.883  1.00  0.00     0.110 C 
HETATM   10  C23 UNL     1      18.616  82.913   6.040  1.00  0.00     0.006 C 
HETATM   11  C18 UNL     1      17.423  82.126   5.553  1.00  0.00     0.019 C 
HETATM   12  C22 UNL     1      18.227  83.627   7.305  1.00  0.00     0.006 C 
HETATM   13  C17 UNL     1      17.618  81.462   4.228  1.00  0.00     0.278 C 
HETATM   14  C19 UNL     1      16.972  81.122   6.583  1.00  0.00     0.007 C 
HETATM   15  C20 UNL     1      17.865  81.191   7.799  1.00  0.00     0.000 C 
HETATM   16  C21 UNL     1      17.936  82.575   8.368  1.00  0.00     0.000 C 
BRANCH   9  17
HETATM   17  C2  UNL     1      19.879  84.918   5.194  1.00  0.00     0.223 C 
HETATM   18  N1  UNL     1      21.208  84.829   4.713  1.00  0.00    -0.365 N 
HETATM   19  C1  UNL     1      22.196  85.859   5.014  1.00  0.00     0.149 C 
ATOM     20  H1  UNL     1      21.480  84.028   4.144  1.00  0.00     0.161 HD
HETATM   21  O1  UNL     1      19.558  85.906   5.891  1.00  0.00    -0.273 OA
ENDBRANCH   9  17
ENDBRANCH   1   7
BRANCH   5  22
HETATM   22  C13 UNL     1      17.710  80.161  -0.455  1.00  0.00     0.019 C 
BRANCH  22  23
HETATM   23  C14 UNL     1      16.354  79.613  -0.197  1.00  0.00     0.118 C 
BRANCH  23  24
HETATM   24  C15 UNL     1      16.214  78.719   0.993  1.00  0.00     0.387 C 
HETATM   25  F1  UNL     1      15.299  79.096   1.885  1.00  0.00    -0.171 F 
HETATM   26  F2  UNL     1      15.910  77.435   0.541  1.00  0.00    -0.171 F 
HETATM   27  F3  UNL     1      17.425  78.569   1.671  1.00  0.00    -0.171 F 
ENDBRANCH  23  24
ENDBRANCH  22  23
ENDBRANCH   5  22
BRANCH   4  28
HETATM   28  N3  UNL     1      19.651  82.661  -1.914  1.00  0.00    -0.295 N 
HETATM   29  C9  UNL     1      20.524  81.999  -2.738  1.00  0.00     0.190 A 
HETATM   30  N4  UNL     1      20.717  82.681  -3.873  1.00  0.00    -0.358 N 
HETATM   31  C10 UNL     1      19.952  83.809  -3.782  1.00  0.00     0.145 A 
ATOM     32  H4  UNL     1      21.316  82.411  -4.652  1.00  0.00     0.166 HD
HETATM   33  C11 UNL     1      19.302  83.784  -2.572  1.00  0.00     0.163 A 
BRANCH  33  34
HETATM   34  O2  UNL     1      18.438  84.751  -2.118  1.00  0.00    -0.345 OA
ATOM     35  H2  UNL     1      18.515  85.685  -2.270  1.00  0.00     0.219 HD
ENDBRANCH  33  34
ENDBRANCH   4  28
TORSDOF 7
ENDMDL
