MODEL 1
REMARK VINA RESULT: -9.666028072      0.000      0.000
REMARK  6 active torsions:
REMARK  status: ('A' for Active; 'I' for Inactive)
REMARK    1  A    between atoms: C2_5  and  C3_6 
REMARK       I    between atoms: C3_6  and  N3_8 
REMARK    2  A    between atoms: N3_8  and  C4_10 
REMARK    3  A    between atoms: C7_16  and  C8_17 
REMARK    4  A    between atoms: C8_17  and  C9_18 
REMARK    5  A    between atoms: C14_23  and  C15_24 
REMARK    6  A    between atoms: C18_30  and  C19_31 
ROOT
HETATM    1  C4  UNL     1      18.381  81.848   2.242  1.00  0.00     0.111 C 
HETATM    2  C5  UNL     1      17.791  80.708   2.980  1.00  0.00     0.257 C 
HETATM    3  N4  UNL     1      17.280  81.101   4.289  1.00  0.00    -0.073 N 
ATOM      4  H41 UNL     1      16.885  80.324   4.819  1.00  0.00     0.277 HD
ATOM      5  H42 UNL     1      16.431  81.664   4.241  1.00  0.00     0.277 HD
HETATM    6  C6  UNL     1      18.357  81.755   4.957  1.00  0.00     0.237 C 
HETATM    7  C7  UNL     1      18.603  83.163   4.376  1.00  0.00     0.014 C 
HETATM    8  C16 UNL     1      18.281  83.194   2.941  1.00  0.00     0.033 C 
ENDROOT
BRANCH   1   9
HETATM    9  N3  UNL     1      19.753  81.555   1.933  1.00  0.00    -0.349 N 
HETATM   10  C3  UNL     1      20.274  81.769   0.649  1.00  0.00     0.270 C 
HETATM   11  O1  UNL     1      19.490  82.232  -0.238  1.00  0.00    -0.266 OA
ATOM     12  H3  UNL     1      20.361  81.185   2.664  1.00  0.00     0.163 HD
BRANCH  10  13
HETATM   13  C2  UNL     1      21.679  81.476   0.307  1.00  0.00     0.117 A 
HETATM   14  N2  UNL     1      22.316  80.305   0.263  1.00  0.00    -0.294 N 
HETATM   15  N1  UNL     1      23.601  80.481  -0.099  1.00  0.00    -0.300 N 
ATOM     16  H2  UNL     1      21.889  79.402   0.474  1.00  0.00     0.187 HD
HETATM   17  C1  UNL     1      24.520  79.371  -0.229  1.00  0.00     0.177 C 
HETATM   18  C18 UNL     1      23.823  81.768  -0.298  1.00  0.00     0.034 A 
HETATM   19  C17 UNL     1      22.617  82.421  -0.047  1.00  0.00     0.063 A 
BRANCH  18  20
HETATM   20  C19 UNL     1      25.085  82.428  -0.702  1.00  0.00     0.041 C 
HETATM   21  C20 UNL     1      24.863  83.744  -1.401  1.00  0.00     0.037 C 
HETATM   22  C21 UNL     1      25.853  84.780  -0.881  1.00  0.00     0.168 C 
HETATM   23  O2  UNL     1      27.132  84.283  -0.859  1.00  0.00    -0.391 OA
HETATM   24  C22 UNL     1      27.324  83.162  -0.094  1.00  0.00     0.168 C 
HETATM   25  C23 UNL     1      26.005  82.662   0.451  1.00  0.00     0.037 C 
ENDBRANCH  18  20
ENDBRANCH  10  13
ENDBRANCH   1   9
BRANCH   7  26
HETATM   26  C8  UNL     1      17.903  84.107   5.281  1.00  0.00     0.011 C 
BRANCH  26  27
HETATM   27  C9  UNL     1      18.636  85.021   6.176  1.00  0.00    -0.002 C 
HETATM   28  C10 UNL     1      17.921  85.683   7.276  1.00  0.00     0.005 C 
HETATM   29  C11 UNL     1      17.601  84.702   8.403  1.00  0.00     0.000 C 
HETATM   30  C12 UNL     1      18.950  84.329   8.989  1.00  0.00     0.001 C 
HETATM   31  C13 UNL     1      19.820  83.685   7.969  1.00  0.00     0.014 C 
HETATM   32  C14 UNL     1      19.938  84.368   6.659  1.00  0.00     0.097 C 
BRANCH  32  33
HETATM   33  C15 UNL     1      21.114  85.298   6.592  1.00  0.00     0.391 C 
HETATM   34  F1  UNL     1      22.329  84.728   6.799  1.00  0.00    -0.171 F 
HETATM   35  F2  UNL     1      20.909  86.271   7.561  1.00  0.00    -0.171 F 
HETATM   36  F3  UNL     1      21.101  85.907   5.342  1.00  0.00    -0.171 F 
ENDBRANCH  32  33
ENDBRANCH  26  27
ENDBRANCH   7  26
TORSDOF 6
ENDMDL
MODEL 2
REMARK VINA RESULT: -9.455343611      1.610      2.677
REMARK  6 active torsions:
REMARK  status: ('A' for Active; 'I' for Inactive)
REMARK    1  A    between atoms: C2_5  and  C3_6 
REMARK       I    between atoms: C3_6  and  N3_8 
REMARK    2  A    between atoms: N3_8  and  C4_10 
REMARK    3  A    between atoms: C7_16  and  C8_17 
REMARK    4  A    between atoms: C8_17  and  C9_18 
REMARK    5  A    between atoms: C14_23  and  C15_24 
REMARK    6  A    between atoms: C18_30  and  C19_31 
ROOT
HETATM    1  C4  UNL     1      18.592  81.904   2.178  1.00  0.00     0.111 C 
HETATM    2  C5  UNL     1      18.066  80.716   2.889  1.00  0.00     0.257 C 
HETATM    3  N4  UNL     1      17.515  81.053   4.197  1.00  0.00    -0.073 N 
ATOM      4  H41 UNL     1      17.164  80.243   4.709  1.00  0.00     0.277 HD
ATOM      5  H42 UNL     1      16.633  81.561   4.147  1.00  0.00     0.277 HD
HETATM    6  C6  UNL     1      18.540  81.763   4.890  1.00  0.00     0.237 C 
HETATM    7  C7  UNL     1      18.703  83.193   4.336  1.00  0.00     0.014 C 
HETATM    8  C16 UNL     1      18.398  83.229   2.897  1.00  0.00     0.033 C 
ENDROOT
BRANCH   1   9
HETATM    9  N3  UNL     1      19.984  81.704   1.883  1.00  0.00    -0.349 N 
HETATM   10  C3  UNL     1      20.491  81.898   0.590  1.00  0.00     0.270 C 
HETATM   11  O1  UNL     1      19.677  82.258  -0.317  1.00  0.00    -0.266 OA
ATOM     12  H3  UNL     1      20.616  81.415   2.629  1.00  0.00     0.163 HD
BRANCH  10  13
HETATM   13  C2  UNL     1      21.915  81.698   0.261  1.00  0.00     0.117 A 
HETATM   14  N2  UNL     1      22.986  82.378   0.676  1.00  0.00    -0.294 N 
HETATM   15  N1  UNL     1      24.108  81.865   0.135  1.00  0.00    -0.300 N 
ATOM     16  H2  UNL     1      22.958  83.175   1.313  1.00  0.00     0.187 HD
HETATM   17  C1  UNL     1      25.416  82.412   0.422  1.00  0.00     0.177 C 
HETATM   18  C18 UNL     1      23.788  80.844  -0.639  1.00  0.00     0.034 A 
HETATM   19  C17 UNL     1      22.401  80.718  -0.575  1.00  0.00     0.063 A 
BRANCH  18  20
HETATM   20  C19 UNL     1      24.690  79.982  -1.437  1.00  0.00     0.041 C 
HETATM   21  C20 UNL     1      25.440  78.980  -0.596  1.00  0.00     0.037 C 
HETATM   22  C21 UNL     1      25.440  77.622  -1.288  1.00  0.00     0.168 C 
HETATM   23  O2  UNL     1      25.797  77.733  -2.609  1.00  0.00    -0.391 OA
HETATM   24  C22 UNL     1      25.001  78.545  -3.376  1.00  0.00     0.168 C 
HETATM   25  C23 UNL     1      23.970  79.240  -2.515  1.00  0.00     0.037 C 
ENDBRANCH  18  20
ENDBRANCH  10  13
ENDBRANCH   1   9
BRANCH   7  26
HETATM   26  C8  UNL     1      17.934  84.075   5.246  1.00  0.00     0.011 C 
BRANCH  26  27
HETATM   27  C9  UNL     1      18.596  84.992   6.191  1.00  0.00    -0.002 C 
HETATM   28  C10 UNL     1      17.822  85.575   7.296  1.00  0.00     0.005 C 
HETATM   29  C11 UNL     1      17.529  84.538   8.380  1.00  0.00     0.000 C 
HETATM   30  C12 UNL     1      18.883  84.214   8.985  1.00  0.00     0.001 C 
HETATM   31  C13 UNL     1      19.808  83.655   7.965  1.00  0.00     0.014 C 
HETATM   32  C14 UNL     1      19.920  84.391   6.683  1.00  0.00     0.097 C 
BRANCH  32  33
HETATM   33  C15 UNL     1      21.046  85.383   6.678  1.00  0.00     0.391 C 
HETATM   34  F1  UNL     1      20.970  86.366   7.612  1.00  0.00    -0.171 F 
HETATM   35  F2  UNL     1      21.057  85.968   5.419  1.00  0.00    -0.171 F 
HETATM   36  F3  UNL     1      22.232  84.678   6.851  1.00  0.00    -0.171 F 
ENDBRANCH  32  33
ENDBRANCH  26  27
ENDBRANCH   7  26
TORSDOF 6
ENDMDL
MODEL 3
REMARK VINA RESULT: -9.339187272      2.014      2.628
REMARK  6 active torsions:
REMARK  status: ('A' for Active; 'I' for Inactive)
REMARK    1  A    between atoms: C2_5  and  C3_6 
REMARK       I    between atoms: C3_6  and  N3_8 
REMARK    2  A    between atoms: N3_8  and  C4_10 
REMARK    3  A    between atoms: C7_16  and  C8_17 
REMARK    4  A    between atoms: C8_17  and  C9_18 
REMARK    5  A    between atoms: C14_23  and  C15_24 
REMARK    6  A    between atoms: C18_30  and  C19_31 
ROOT
HETATM    1  C4  UNL     1      17.929  81.568   1.737  1.00  0.00     0.111 C 
HETATM    2  C5  UNL     1      17.546  80.396   2.556  1.00  0.00     0.257 C 
HETATM    3  N4  UNL     1      17.360  80.739   3.961  1.00  0.00    -0.073 N 
ATOM      4  H41 UNL     1      17.112  79.939   4.544  1.00  0.00     0.277 HD
ATOM      5  H42 UNL     1      16.518  81.287   4.138  1.00  0.00     0.277 HD
HETATM    6  C6  UNL     1      18.559  81.393   4.374  1.00  0.00     0.237 C 
HETATM    7  C7  UNL     1      18.642  82.822   3.799  1.00  0.00     0.014 C 
HETATM    8  C16 UNL     1      17.985  82.891   2.484  1.00  0.00     0.033 C 
ENDROOT
BRANCH   1   9
HETATM    9  N3  UNL     1      19.189  81.311   1.098  1.00  0.00    -0.349 N 
HETATM   10  C3  UNL     1      19.442  81.734  -0.215  1.00  0.00     0.270 C 
HETATM   11  O1  UNL     1      18.517  82.356  -0.825  1.00  0.00    -0.266 OA
ATOM     12  H3  UNL     1      19.916  80.810   1.610  1.00  0.00     0.163 HD
BRANCH  10  13
HETATM   13  C2  UNL     1      20.729  81.482  -0.892  1.00  0.00     0.117 A 
HETATM   14  N2  UNL     1      20.965  81.006  -2.116  1.00  0.00    -0.294 N 
HETATM   15  N1  UNL     1      22.290  80.931  -2.345  1.00  0.00    -0.300 N 
ATOM     16  H2  UNL     1      20.243  80.738  -2.785  1.00  0.00     0.187 HD
HETATM   17  C1  UNL     1      22.825  80.451  -3.600  1.00  0.00     0.177 C 
HETATM   18  C18 UNL     1      22.939  81.356  -1.275  1.00  0.00     0.034 A 
HETATM   19  C17 UNL     1      21.969  81.712  -0.339  1.00  0.00     0.063 A 
BRANCH  18  20
HETATM   20  C19 UNL     1      24.403  81.447  -1.068  1.00  0.00     0.041 C 
HETATM   21  C20 UNL     1      24.824  82.738  -0.413  1.00  0.00     0.037 C 
HETATM   22  C21 UNL     1      25.867  82.455   0.662  1.00  0.00     0.168 C 
HETATM   23  O2  UNL     1      26.859  81.630   0.193  1.00  0.00    -0.391 OA
HETATM   24  C22 UNL     1      26.449  80.404  -0.265  1.00  0.00     0.168 C 
HETATM   25  C23 UNL     1      24.939  80.315  -0.256  1.00  0.00     0.037 C 
ENDBRANCH  18  20
ENDBRANCH  10  13
ENDBRANCH   1   9
BRANCH   7  26
HETATM   26  C8  UNL     1      18.170  83.725   4.876  1.00  0.00     0.011 C 
BRANCH  26  27
HETATM   27  C9  UNL     1      18.813  83.762   6.202  1.00  0.00    -0.002 C 
HETATM   28  C10 UNL     1      20.183  84.280   6.327  1.00  0.00     0.005 C 
HETATM   29  C11 UNL     1      20.220  85.801   6.174  1.00  0.00     0.000 C 
HETATM   30  C12 UNL     1      19.493  86.333   7.396  1.00  0.00     0.001 C 
HETATM   31  C13 UNL     1      18.088  85.847   7.438  1.00  0.00     0.014 C 
HETATM   32  C14 UNL     1      17.872  84.395   7.236  1.00  0.00     0.097 C 
BRANCH  32  33
HETATM   33  C15 UNL     1      17.826  83.629   8.526  1.00  0.00     0.391 C 
HETATM   34  F1  UNL     1      18.667  84.063   9.500  1.00  0.00    -0.171 F 
HETATM   35  F2  UNL     1      18.145  82.312   8.219  1.00  0.00    -0.171 F 
HETATM   36  F3  UNL     1      16.519  83.670   8.997  1.00  0.00    -0.171 F 
ENDBRANCH  32  33
ENDBRANCH  26  27
ENDBRANCH   7  26
TORSDOF 6
ENDMDL
MODEL 4
REMARK VINA RESULT: -9.212096885      2.463      3.404
REMARK  6 active torsions:
REMARK  status: ('A' for Active; 'I' for Inactive)
REMARK    1  A    between atoms: C2_5  and  C3_6 
REMARK       I    between atoms: C3_6  and  N3_8 
REMARK    2  A    between atoms: N3_8  and  C4_10 
REMARK    3  A    between atoms: C7_16  and  C8_17 
REMARK    4  A    between atoms: C8_17  and  C9_18 
REMARK    5  A    between atoms: C14_23  and  C15_24 
REMARK    6  A    between atoms: C18_30  and  C19_31 
ROOT
HETATM    1  C4  UNL     1      18.194  81.715   1.555  1.00  0.00     0.111 C 
HETATM    2  C5  UNL     1      17.813  80.436   2.198  1.00  0.00     0.257 C 
HETATM    3  N4  UNL     1      17.504  80.598   3.614  1.00  0.00    -0.073 N 
ATOM      4  H41 UNL     1      17.256  79.724   4.078  1.00  0.00     0.277 HD
ATOM      5  H42 UNL     1      16.624  81.084   3.785  1.00  0.00     0.277 HD
HETATM    6  C6  UNL     1      18.633  81.250   4.196  1.00  0.00     0.237 C 
HETATM    7  C7  UNL     1      18.684  82.740   3.800  1.00  0.00     0.014 C 
HETATM    8  C16 UNL     1      18.124  82.938   2.454  1.00  0.00     0.033 C 
ENDROOT
BRANCH   1   9
HETATM    9  N3  UNL     1      19.511  81.591   0.995  1.00  0.00    -0.349 N 
HETATM   10  C3  UNL     1      19.808  82.081  -0.285  1.00  0.00     0.270 C 
HETATM   11  O1  UNL     1      18.872  82.640  -0.937  1.00  0.00    -0.266 OA
ATOM     12  H3  UNL     1      20.245  81.138   1.539  1.00  0.00     0.163 HD
BRANCH  10  13
HETATM   13  C2  UNL     1      21.152  81.966  -0.883  1.00  0.00     0.117 A 
HETATM   14  N2  UNL     1      21.829  82.842  -1.626  1.00  0.00    -0.294 N 
HETATM   15  N1  UNL     1      23.031  82.340  -1.970  1.00  0.00    -0.300 N 
ATOM     16  H2  UNL     1      21.485  83.764  -1.897  1.00  0.00     0.187 HD
HETATM   17  C1  UNL     1      23.972  83.087  -2.775  1.00  0.00     0.177 C 
HETATM   18  C18 UNL     1      23.157  81.129  -1.456  1.00  0.00     0.034 A 
HETATM   19  C17 UNL     1      21.977  80.869  -0.761  1.00  0.00     0.063 A 
BRANCH  18  20
HETATM   20  C19 UNL     1      24.304  80.199  -1.575  1.00  0.00     0.041 C 
HETATM   21  C20 UNL     1      24.691  79.574  -0.260  1.00  0.00     0.037 C 
HETATM   22  C21 UNL     1      24.968  78.087  -0.455  1.00  0.00     0.168 C 
HETATM   23  O2  UNL     1      25.797  77.870  -1.528  1.00  0.00    -0.391 OA
HETATM   24  C22 UNL     1      25.341  78.330  -2.737  1.00  0.00     0.168 C 
HETATM   25  C23 UNL     1      24.053  79.103  -2.557  1.00  0.00     0.037 C 
ENDBRANCH  18  20
ENDBRANCH  10  13
ENDBRANCH   1   9
BRANCH   7  26
HETATM   26  C8  UNL     1      18.085  83.485   4.934  1.00  0.00     0.011 C 
BRANCH  26  27
HETATM   27  C9  UNL     1      18.778  83.629   6.228  1.00  0.00    -0.002 C 
HETATM   28  C10 UNL     1      20.149  84.155   6.258  1.00  0.00     0.005 C 
HETATM   29  C11 UNL     1      20.176  85.659   5.982  1.00  0.00     0.000 C 
HETATM   30  C12 UNL     1      19.494  86.287   7.184  1.00  0.00     0.001 C 
HETATM   31  C13 UNL     1      18.094  85.806   7.320  1.00  0.00     0.014 C 
HETATM   32  C14 UNL     1      17.875  84.342   7.243  1.00  0.00     0.097 C 
BRANCH  32  33
HETATM   33  C15 UNL     1      17.881  83.681   8.591  1.00  0.00     0.391 C 
HETATM   34  F1  UNL     1      18.646  84.282   9.538  1.00  0.00    -0.171 F 
HETATM   35  F2  UNL     1      18.346  82.387   8.399  1.00  0.00    -0.171 F 
HETATM   36  F3  UNL     1      16.565  83.618   9.036  1.00  0.00    -0.171 F 
ENDBRANCH  32  33
ENDBRANCH  26  27
ENDBRANCH   7  26
TORSDOF 6
ENDMDL
MODEL 5
REMARK VINA RESULT: -9.126517971      1.712      2.228
REMARK  6 active torsions:
REMARK  status: ('A' for Active; 'I' for Inactive)
REMARK    1  A    between atoms: C2_5  and  C3_6 
REMARK       I    between atoms: C3_6  and  N3_8 
REMARK    2  A    between atoms: N3_8  and  C4_10 
REMARK    3  A    between atoms: C7_16  and  C8_17 
REMARK    4  A    between atoms: C8_17  and  C9_18 
REMARK    5  A    between atoms: C14_23  and  C15_24 
REMARK    6  A    between atoms: C18_30  and  C19_31 
ROOT
HETATM    1  C4  UNL     1      17.832  81.365   1.553  1.00  0.00     0.111 C 
HETATM    2  C5  UNL     1      17.419  80.166   2.316  1.00  0.00     0.257 C 
HETATM    3  N4  UNL     1      17.268  80.441   3.741  1.00  0.00    -0.073 N 
ATOM      4  H41 UNL     1      17.000  79.621   4.286  1.00  0.00     0.277 HD
ATOM      5  H42 UNL     1      16.450  81.010   3.960  1.00  0.00     0.277 HD
HETATM    6  C6  UNL     1      18.497  81.029   4.166  1.00  0.00     0.237 C 
HETATM    7  C7  UNL     1      18.625  82.482   3.664  1.00  0.00     0.014 C 
HETATM    8  C16 UNL     1      17.950  82.644   2.367  1.00  0.00     0.033 C 
ENDROOT
BRANCH   1   9
HETATM    9  N3  UNL     1      19.072  81.096   0.880  1.00  0.00    -0.349 N 
HETATM   10  C3  UNL     1      19.324  81.586  -0.410  1.00  0.00     0.270 C 
HETATM   11  O1  UNL     1      18.417  82.279  -0.968  1.00  0.00    -0.266 OA
ATOM     12  H3  UNL     1      19.785  80.537   1.349  1.00  0.00     0.163 HD
BRANCH  10  13
HETATM   13  C2  UNL     1      20.589  81.323  -1.123  1.00  0.00     0.117 A 
HETATM   14  N2  UNL     1      20.794  81.015  -2.404  1.00  0.00    -0.294 N 
HETATM   15  N1  UNL     1      22.110  80.856  -2.646  1.00  0.00    -0.300 N 
ATOM     16  H2  UNL     1      20.058  80.915  -3.104  1.00  0.00     0.187 HD
HETATM   17  C1  UNL     1      22.612  80.522  -3.961  1.00  0.00     0.177 C 
HETATM   18  C18 UNL     1      22.783  81.058  -1.527  1.00  0.00     0.034 A 
HETATM   19  C17 UNL     1      21.840  81.356  -0.546  1.00  0.00     0.063 A 
BRANCH  18  20
HETATM   20  C19 UNL     1      24.247  80.986  -1.314  1.00  0.00     0.041 C 
HETATM   21  C20 UNL     1      24.824  82.265  -0.766  1.00  0.00     0.037 C 
HETATM   22  C21 UNL     1      25.825  81.949   0.340  1.00  0.00     0.168 C 
HETATM   23  O2  UNL     1      26.708  80.972  -0.049  1.00  0.00    -0.391 OA
HETATM   24  C22 UNL     1      26.150  79.771  -0.407  1.00  0.00     0.168 C 
HETATM   25  C23 UNL     1      24.641  79.869  -0.405  1.00  0.00     0.037 C 
ENDBRANCH  18  20
ENDBRANCH  10  13
ENDBRANCH   1   9
BRANCH   7  26
HETATM   26  C8  UNL     1      18.203  83.343   4.795  1.00  0.00     0.011 C 
BRANCH  26  27
HETATM   27  C9  UNL     1      18.769  84.689   5.006  1.00  0.00    -0.002 C 
HETATM   28  C10 UNL     1      18.174  85.572   6.019  1.00  0.00     0.005 C 
HETATM   29  C11 UNL     1      18.524  85.113   7.434  1.00  0.00     0.000 C 
HETATM   30  C12 UNL     1      20.021  85.336   7.557  1.00  0.00     0.001 C 
HETATM   31  C13 UNL     1      20.768  84.537   6.549  1.00  0.00     0.014 C 
HETATM   32  C14 UNL     1      20.295  84.613   5.147  1.00  0.00     0.097 C 
BRANCH  32  33
HETATM   33  C15 UNL     1      21.005  85.667   4.349  1.00  0.00     0.391 C 
HETATM   34  F1  UNL     1      21.507  86.708   5.063  1.00  0.00    -0.171 F 
HETATM   35  F2  UNL     1      20.087  86.160   3.431  1.00  0.00    -0.171 F 
HETATM   36  F3  UNL     1      22.038  85.048   3.654  1.00  0.00    -0.171 F 
ENDBRANCH  32  33
ENDBRANCH  26  27
ENDBRANCH   7  26
TORSDOF 6
ENDMDL
