MODEL 1
REMARK VINA RESULT: -5.795588265      0.000      0.000
REMARK  6 active torsions:
REMARK  status: ('A' for Active; 'I' for Inactive)
REMARK    1  A    between atoms: C3_3  and  N1_4 
REMARK    2  A    between atoms: N1_4  and  C6_7 
REMARK    3  A    between atoms: C6_7  and  C7_8 
REMARK    4  A    between atoms: C7_8  and  C8_9 
REMARK    5  A    between atoms: C8_9  and  N2_10 
REMARK    6  A    between atoms: C13_15  and  O1_16 
ROOT
HETATM    1  C1  UNL     1      28.405  16.475  12.854  1.00  0.00     0.013 C 
HETATM    2  C2  UNL     1      28.451  17.580  12.375  1.00  0.00    -0.089 C 
HETATM    3  C3  UNL     1      28.486  18.899  11.782  1.00  0.00     0.329 C 
ENDROOT
BRANCH   3   4
HETATM    4  N1  UNL     1      29.618  19.708  12.264  1.00  0.00    -0.062 N 
HETATM    5  C4  UNL     1      30.823  18.999  11.804  1.00  0.00     0.273 C 
HETATM    6  C5  UNL     1      29.569  20.934  11.519  1.00  0.00     0.273 C 
BRANCH   4   7
HETATM    7  C6  UNL     1      29.541  19.771  13.660  1.00  0.00     0.277 C 
BRANCH   7   8
HETATM    8  C7  UNL     1      29.308  21.149  14.284  1.00  0.00     0.117 C 
HETATM    9  C12 UNL     1      28.414  20.941  15.489  1.00  0.00     0.102 C 
HETATM   10  C13 UNL     1      27.296  21.294  14.535  1.00  0.00     0.260 C 
HETATM   11  O2  UNL     1      28.262  21.858  13.714  1.00  0.00    -0.347 OA
BRANCH   8  12
HETATM   12  C8  UNL     1      30.594  21.832  14.472  1.00  0.00     0.275 C 
BRANCH  12  13
HETATM   13  N2  UNL     1      30.703  23.237  14.455  1.00  0.00    -0.076 N 
HETATM   14  C9  UNL     1      29.823  23.966  15.290  1.00  0.00     0.271 C 
HETATM   15  C10 UNL     1      30.688  23.838  13.135  1.00  0.00     0.271 C 
HETATM   16  C11 UNL     1      32.067  23.519  14.957  1.00  0.00     0.271 C 
ENDBRANCH  12  13
ENDBRANCH   8  12
BRANCH  10  17
HETATM   17  O1  UNL     1      26.564  20.259  14.027  1.00  0.00    -0.371 OA
ATOM     18  H1  UNL     1      25.627  20.393  13.942  1.00  0.00     0.212 HD
ENDBRANCH  10  17
ENDBRANCH   7   8
ENDBRANCH   4   7
ENDBRANCH   3   4
TORSDOF 6
ENDMDL
MODEL 2
REMARK VINA RESULT: -5.638231486      1.103      1.534
REMARK  6 active torsions:
REMARK  status: ('A' for Active; 'I' for Inactive)
REMARK    1  A    between atoms: C3_3  and  N1_4 
REMARK    2  A    between atoms: N1_4  and  C6_7 
REMARK    3  A    between atoms: C6_7  and  C7_8 
REMARK    4  A    between atoms: C7_8  and  C8_9 
REMARK    5  A    between atoms: C8_9  and  N2_10 
REMARK    6  A    between atoms: C13_15  and  O1_16 
ROOT
HETATM    1  C1  UNL     1      28.830  16.087  10.653  1.00  0.00     0.013 C 
HETATM    2  C2  UNL     1      28.840  16.829  11.602  1.00  0.00    -0.089 C 
HETATM    3  C3  UNL     1      28.840  17.701  12.757  1.00  0.00     0.329 C 
ENDROOT
BRANCH   3   4
HETATM    4  N1  UNL     1      29.265  19.073  12.432  1.00  0.00    -0.062 N 
HETATM    5  C4  UNL     1      30.332  18.919  11.430  1.00  0.00     0.273 C 
HETATM    6  C5  UNL     1      28.158  19.674  11.746  1.00  0.00     0.273 C 
BRANCH   4   7
HETATM    7  C6  UNL     1      29.727  19.673  13.610  1.00  0.00     0.277 C 
BRANCH   7   8
HETATM    8  C7  UNL     1      29.013  20.947  14.070  1.00  0.00     0.117 C 
HETATM    9  C12 UNL     1      29.052  20.950  15.584  1.00  0.00     0.102 C 
HETATM   10  C13 UNL     1      27.674  20.337  15.473  1.00  0.00     0.260 C 
HETATM   11  O2  UNL     1      27.637  20.817  14.171  1.00  0.00    -0.347 OA
BRANCH   8  12
HETATM   12  C8  UNL     1      29.555  22.105  13.350  1.00  0.00     0.275 C 
BRANCH  12  13
HETATM   13  N2  UNL     1      30.258  23.133  14.011  1.00  0.00    -0.076 N 
HETATM   14  C9  UNL     1      31.347  22.751  14.831  1.00  0.00     0.271 C 
HETATM   15  C10 UNL     1      29.430  24.066  14.751  1.00  0.00     0.271 C 
HETATM   16  C11 UNL     1      30.837  23.958  12.925  1.00  0.00     0.271 C 
ENDBRANCH  12  13
ENDBRANCH   8  12
BRANCH  10  17
HETATM   17  O1  UNL     1      27.580  18.986  15.649  1.00  0.00    -0.371 OA
ATOM     18  H1  UNL     1      27.007  18.679  16.341  1.00  0.00     0.212 HD
ENDBRANCH  10  17
ENDBRANCH   7   8
ENDBRANCH   4   7
ENDBRANCH   3   4
TORSDOF 6
ENDMDL
MODEL 3
REMARK VINA RESULT: -5.627347740      2.161      3.366
REMARK  6 active torsions:
REMARK  status: ('A' for Active; 'I' for Inactive)
REMARK    1  A    between atoms: C3_3  and  N1_4 
REMARK    2  A    between atoms: N1_4  and  C6_7 
REMARK    3  A    between atoms: C6_7  and  C7_8 
REMARK    4  A    between atoms: C7_8  and  C8_9 
REMARK    5  A    between atoms: C8_9  and  N2_10 
REMARK    6  A    between atoms: C13_15  and  O1_16 
ROOT
HETATM    1  C1  UNL     1      26.602  17.679  16.868  1.00  0.00     0.013 C 
HETATM    2  C2  UNL     1      26.980  18.044  15.784  1.00  0.00    -0.089 C 
HETATM    3  C3  UNL     1      27.441  18.458  14.476  1.00  0.00     0.329 C 
ENDROOT
BRANCH   3   4
HETATM    4  N1  UNL     1      27.484  19.923  14.327  1.00  0.00    -0.062 N 
HETATM    5  C4  UNL     1      26.088  20.367  14.468  1.00  0.00     0.273 C 
HETATM    6  C5  UNL     1      28.177  20.414  15.484  1.00  0.00     0.273 C 
BRANCH   4   7
HETATM    7  C6  UNL     1      28.008  20.214  13.062  1.00  0.00     0.277 C 
BRANCH   7   8
HETATM    8  C7  UNL     1      29.341  20.965  13.015  1.00  0.00     0.117 C 
HETATM    9  C12 UNL     1      29.929  20.733  11.639  1.00  0.00     0.102 C 
HETATM   10  C13 UNL     1      30.695  19.619  12.316  1.00  0.00     0.260 C 
HETATM   11  O2  UNL     1      30.412  20.247  13.522  1.00  0.00    -0.347 OA
BRANCH   8  12
HETATM   12  C8  UNL     1      29.147  22.347  13.472  1.00  0.00     0.275 C 
BRANCH  12  13
HETATM   13  N2  UNL     1      30.223  23.149  13.903  1.00  0.00    -0.076 N 
HETATM   14  C9  UNL     1      30.951  23.847  12.910  1.00  0.00     0.271 C 
HETATM   15  C10 UNL     1      31.166  22.489  14.786  1.00  0.00     0.271 C 
HETATM   16  C11 UNL     1      29.605  24.188  14.759  1.00  0.00     0.271 C 
ENDBRANCH  12  13
ENDBRANCH   8  12
BRANCH  10  17
HETATM   17  O1  UNL     1      30.225  18.348  12.144  1.00  0.00    -0.371 OA
ATOM     18  H1  UNL     1      30.462  17.906  11.337  1.00  0.00     0.212 HD
ENDBRANCH  10  17
ENDBRANCH   7   8
ENDBRANCH   4   7
ENDBRANCH   3   4
TORSDOF 6
ENDMDL
MODEL 4
REMARK VINA RESULT: -5.619348712      1.956      3.569
REMARK  6 active torsions:
REMARK  status: ('A' for Active; 'I' for Inactive)
REMARK    1  A    between atoms: C3_3  and  N1_4 
REMARK    2  A    between atoms: N1_4  and  C6_7 
REMARK    3  A    between atoms: C6_7  and  C7_8 
REMARK    4  A    between atoms: C7_8  and  C8_9 
REMARK    5  A    between atoms: C8_9  and  N2_10 
REMARK    6  A    between atoms: C13_15  and  O1_16 
ROOT
HETATM    1  C1  UNL     1      29.489  20.359  17.680  1.00  0.00     0.013 C 
HETATM    2  C2  UNL     1      28.673  19.814  16.981  1.00  0.00    -0.089 C 
HETATM    3  C3  UNL     1      27.686  19.143  16.162  1.00  0.00     0.329 C 
ENDROOT
BRANCH   3   4
HETATM    4  N1  UNL     1      27.771  19.527  14.743  1.00  0.00    -0.062 N 
HETATM    5  C4  UNL     1      27.151  18.414  14.004  1.00  0.00     0.273 C 
HETATM    6  C5  UNL     1      26.889  20.648  14.587  1.00  0.00     0.273 C 
BRANCH   4   7
HETATM    7  C6  UNL     1      29.123  19.690  14.419  1.00  0.00     0.277 C 
BRANCH   7   8
HETATM    8  C7  UNL     1      29.462  20.723  13.342  1.00  0.00     0.117 C 
HETATM    9  C12 UNL     1      28.848  20.229  12.049  1.00  0.00     0.102 C 
HETATM   10  C13 UNL     1      30.220  19.653  11.789  1.00  0.00     0.260 C 
HETATM   11  O2  UNL     1      30.700  20.533  12.748  1.00  0.00    -0.347 OA
BRANCH   8  12
HETATM   12  C8  UNL     1      29.114  22.068  13.818  1.00  0.00     0.275 C 
BRANCH  12  13
HETATM   13  N2  UNL     1      30.092  23.062  14.026  1.00  0.00    -0.076 N 
HETATM   14  C9  UNL     1      30.584  23.737  12.884  1.00  0.00     0.271 C 
HETATM   15  C10 UNL     1      31.220  22.653  14.841  1.00  0.00     0.271 C 
HETATM   16  C11 UNL     1      29.417  24.093  14.848  1.00  0.00     0.271 C 
ENDBRANCH  12  13
ENDBRANCH   8  12
BRANCH  10  17
HETATM   17  O1  UNL     1      30.387  18.317  12.021  1.00  0.00    -0.371 OA
ATOM     18  H1  UNL     1      30.537  17.762  11.264  1.00  0.00     0.212 HD
ENDBRANCH  10  17
ENDBRANCH   7   8
ENDBRANCH   4   7
ENDBRANCH   3   4
TORSDOF 6
ENDMDL
MODEL 5
REMARK VINA RESULT: -5.607167884      2.010      4.252
REMARK  6 active torsions:
REMARK  status: ('A' for Active; 'I' for Inactive)
REMARK    1  A    between atoms: C3_3  and  N1_4 
REMARK    2  A    between atoms: N1_4  and  C6_7 
REMARK    3  A    between atoms: C6_7  and  C7_8 
REMARK    4  A    between atoms: C7_8  and  C8_9 
REMARK    5  A    between atoms: C8_9  and  N2_10 
REMARK    6  A    between atoms: C13_15  and  O1_16 
ROOT
HETATM    1  C1  UNL     1      29.572  22.543   9.143  1.00  0.00     0.013 C 
HETATM    2  C2  UNL     1      30.093  21.724   9.856  1.00  0.00    -0.089 C 
HETATM    3  C3  UNL     1      30.738  20.736  10.694  1.00  0.00     0.329 C 
ENDROOT
BRANCH   3   4
HETATM    4  N1  UNL     1      29.911  20.342  11.847  1.00  0.00    -0.062 N 
HETATM    5  C4  UNL     1      28.690  19.760  11.266  1.00  0.00     0.273 C 
HETATM    6  C5  UNL     1      30.608  19.258  12.477  1.00  0.00     0.273 C 
BRANCH   4   7
HETATM    7  C6  UNL     1      29.643  21.491  12.600  1.00  0.00     0.277 C 
BRANCH   7   8
HETATM    8  C7  UNL     1      29.072  21.288  14.005  1.00  0.00     0.117 C 
HETATM    9  C12 UNL     1      29.255  22.595  14.749  1.00  0.00     0.102 C 
HETATM   10  C13 UNL     1      30.516  21.948  15.275  1.00  0.00     0.260 C 
HETATM   11  O2  UNL     1      29.967  20.728  14.903  1.00  0.00    -0.347 OA
BRANCH   8  12
HETATM   12  C8  UNL     1      27.724  20.714  13.913  1.00  0.00     0.275 C 
BRANCH  12  13
HETATM   13  N2  UNL     1      27.315  19.635  14.724  1.00  0.00    -0.076 N 
HETATM   14  C9  UNL     1      27.755  19.631  16.069  1.00  0.00     0.271 C 
HETATM   15  C10 UNL     1      27.547  18.320  14.159  1.00  0.00     0.271 C 
HETATM   16  C11 UNL     1      25.839  19.741  14.780  1.00  0.00     0.271 C 
ENDBRANCH  12  13
ENDBRANCH   8  12
BRANCH  10  17
HETATM   17  O1  UNL     1      31.693  22.314  14.688  1.00  0.00    -0.371 OA
ATOM     18  H1  UNL     1      32.376  21.656  14.643  1.00  0.00     0.212 HD
ENDBRANCH  10  17
ENDBRANCH   7   8
ENDBRANCH   4   7
ENDBRANCH   3   4
TORSDOF 6
ENDMDL
