MODEL 1
REMARK VINA RESULT: -6.627952849      0.000      0.000
REMARK  6 active torsions:
REMARK  status: ('A' for Active; 'I' for Inactive)
REMARK    1  A    between atoms: C2_2  and  N1_3 
REMARK    2  A    between atoms: N1_3  and  C5_6 
REMARK    3  A    between atoms: N2_9  and  C9_11 
REMARK    4  A    between atoms: C9_11  and  C10_12 
REMARK    5  A    between atoms: C10_12  and  N3_13 
REMARK    6  A    between atoms: N3_13  and  O1_15 
ROOT
HETATM    1  C5  UNL     1      29.920  21.917  13.983  1.00  0.00     0.192 C 
HETATM    2  C6  UNL     1      29.606  21.541  12.578  1.00  0.00     0.061 C 
HETATM    3  C7  UNL     1      29.033  20.186  12.454  1.00  0.00     0.239 C 
HETATM    4  N2  UNL     1      28.114  19.729  13.459  1.00  0.00    -0.070 N 
HETATM    5  C8  UNL     1      26.750  19.944  13.037  1.00  0.00     0.272 C 
HETATM    6  C12 UNL     1      28.259  20.360  14.755  1.00  0.00     0.239 C 
HETATM    7  C13 UNL     1      28.556  21.818  14.680  1.00  0.00     0.061 C 
ENDROOT
BRANCH   4   8
HETATM    8  C9  UNL     1      28.395  18.339  13.669  1.00  0.00     0.253 C 
BRANCH   8   9
HETATM    9  C10 UNL     1      28.497  17.453  12.494  1.00  0.00     0.148 C 
BRANCH   9  10
HETATM   10  N3  UNL     1      29.240  16.245  12.623  1.00  0.00    -0.202 NA
HETATM   11  C11 UNL     1      29.171  15.425  11.424  1.00  0.00     0.143 C 
BRANCH  10  12
HETATM   12  O1  UNL     1      28.767  15.515  13.649  1.00  0.00    -0.314 OA
ATOM     13  H1  UNL     1      27.836  15.359  13.540  1.00  0.00     0.237 HD
ENDBRANCH  10  12
ENDBRANCH   9  10
ENDBRANCH   8   9
ENDBRANCH   4   8
BRANCH   1  14
HETATM   14  N1  UNL     1      30.501  23.170  14.218  1.00  0.00    -0.071 N 
HETATM   15  C3  UNL     1      29.507  24.015  14.906  1.00  0.00     0.272 C 
HETATM   16  C4  UNL     1      30.824  23.911  12.990  1.00  0.00     0.272 C 
BRANCH  14  17
HETATM   17  C2  UNL     1      31.668  23.210  15.040  1.00  0.00     0.232 C 
HETATM   18  C1  UNL     1      31.345  23.574  16.495  1.00  0.00     0.035 C 
ENDBRANCH  14  17
ENDBRANCH   1  14
TORSDOF 6
ENDMDL
MODEL 2
REMARK VINA RESULT: -6.540744331      2.738      5.938
REMARK  6 active torsions:
REMARK  status: ('A' for Active; 'I' for Inactive)
REMARK    1  A    between atoms: C2_2  and  N1_3 
REMARK    2  A    between atoms: N1_3  and  C5_6 
REMARK    3  A    between atoms: N2_9  and  C9_11 
REMARK    4  A    between atoms: C9_11  and  C10_12 
REMARK    5  A    between atoms: C10_12  and  N3_13 
REMARK    6  A    between atoms: N3_13  and  O1_15 
ROOT
HETATM    1  C5  UNL     1      27.985  19.865  14.826  1.00  0.00     0.192 C 
HETATM    2  C6  UNL     1      27.524  21.269  14.653  1.00  0.00     0.061 C 
HETATM    3  C7  UNL     1      28.634  22.240  14.584  1.00  0.00     0.239 C 
HETATM    4  N2  UNL     1      29.833  21.871  13.885  1.00  0.00    -0.070 N 
HETATM    5  C8  UNL     1      29.804  22.365  12.528  1.00  0.00     0.272 C 
HETATM    6  C12 UNL     1      30.085  20.446  13.809  1.00  0.00     0.239 C 
HETATM    7  C13 UNL     1      28.858  19.633  13.583  1.00  0.00     0.061 C 
ENDROOT
BRANCH   4   8
HETATM    8  C9  UNL     1      30.927  22.421  14.630  1.00  0.00     0.253 C 
BRANCH   8   9
HETATM    9  C10 UNL     1      30.665  23.549  15.544  1.00  0.00     0.148 C 
BRANCH   9  10
HETATM   10  N3  UNL     1      31.302  23.548  16.816  1.00  0.00    -0.202 NA
HETATM   11  C11 UNL     1      32.718  23.865  16.725  1.00  0.00     0.143 C 
BRANCH  10  12
HETATM   12  O1  UNL     1      31.188  22.338  17.393  1.00  0.00    -0.314 OA
ATOM     13  H1  UNL     1      30.276  22.074  17.427  1.00  0.00     0.237 HD
ENDBRANCH  10  12
ENDBRANCH   9  10
ENDBRANCH   8   9
ENDBRANCH   4   8
BRANCH   1  14
HETATM   14  N1  UNL     1      27.016  18.860  14.939  1.00  0.00    -0.071 N 
HETATM   15  C3  UNL     1      27.321  17.814  13.944  1.00  0.00     0.272 C 
HETATM   16  C4  UNL     1      25.659  19.307  14.596  1.00  0.00     0.272 C 
BRANCH  14  17
HETATM   17  C2  UNL     1      26.919  18.177  16.189  1.00  0.00     0.232 C 
HETATM   18  C1  UNL     1      27.791  18.819  17.275  1.00  0.00     0.035 C 
ENDBRANCH  14  17
ENDBRANCH   1  14
TORSDOF 6
ENDMDL
MODEL 3
REMARK VINA RESULT: -6.497333465      0.857      1.027
REMARK  6 active torsions:
REMARK  status: ('A' for Active; 'I' for Inactive)
REMARK    1  A    between atoms: C2_2  and  N1_3 
REMARK    2  A    between atoms: N1_3  and  C5_6 
REMARK    3  A    between atoms: N2_9  and  C9_11 
REMARK    4  A    between atoms: C9_11  and  C10_12 
REMARK    5  A    between atoms: C10_12  and  N3_13 
REMARK    6  A    between atoms: N3_13  and  O1_15 
ROOT
HETATM    1  C5  UNL     1      30.330  21.941  14.467  1.00  0.00     0.192 C 
HETATM    2  C6  UNL     1      29.757  22.228  13.124  1.00  0.00     0.061 C 
HETATM    3  C7  UNL     1      29.343  21.012  12.397  1.00  0.00     0.239 C 
HETATM    4  N2  UNL     1      28.736  19.939  13.133  1.00  0.00    -0.070 N 
HETATM    5  C8  UNL     1      27.296  20.024  13.065  1.00  0.00     0.272 C 
HETATM    6  C12 UNL     1      29.089  19.882  14.538  1.00  0.00     0.239 C 
HETATM    7  C13 UNL     1      29.179  21.220  15.185  1.00  0.00     0.061 C 
ENDROOT
BRANCH   4   8
HETATM    8  C9  UNL     1      29.226  18.720  12.559  1.00  0.00     0.253 C 
BRANCH   8   9
HETATM    9  C10 UNL     1      28.510  17.463  12.850  1.00  0.00     0.148 C 
BRANCH   9  10
HETATM   10  N3  UNL     1      29.215  16.236  12.700  1.00  0.00    -0.202 NA
HETATM   11  C11 UNL     1      28.989  15.625  11.399  1.00  0.00     0.143 C 
BRANCH  10  12
HETATM   12  O1  UNL     1      28.824  15.356  13.640  1.00  0.00    -0.314 OA
ATOM     13  H1  UNL     1      29.302  15.504  14.447  1.00  0.00     0.237 HD
ENDBRANCH  10  12
ENDBRANCH   9  10
ENDBRANCH   8   9
ENDBRANCH   4   8
BRANCH   1  14
HETATM   14  N1  UNL     1      30.789  23.018  15.234  1.00  0.00    -0.071 N 
HETATM   15  C3  UNL     1      29.865  24.151  15.037  1.00  0.00     0.272 C 
HETATM   16  C4  UNL     1      32.097  23.534  14.805  1.00  0.00     0.272 C 
BRANCH  14  17
HETATM   17  C2  UNL     1      30.866  22.834  16.648  1.00  0.00     0.232 C 
HETATM   18  C1  UNL     1      32.065  23.561  17.268  1.00  0.00     0.035 C 
ENDBRANCH  14  17
ENDBRANCH   1  14
TORSDOF 6
ENDMDL
MODEL 4
REMARK VINA RESULT: -6.466572126      0.862      1.104
REMARK  6 active torsions:
REMARK  status: ('A' for Active; 'I' for Inactive)
REMARK    1  A    between atoms: C2_2  and  N1_3 
REMARK    2  A    between atoms: N1_3  and  C5_6 
REMARK    3  A    between atoms: N2_9  and  C9_11 
REMARK    4  A    between atoms: C9_11  and  C10_12 
REMARK    5  A    between atoms: C10_12  and  N3_13 
REMARK    6  A    between atoms: N3_13  and  O1_15 
ROOT
HETATM    1  C5  UNL     1      30.232  21.920  14.292  1.00  0.00     0.192 C 
HETATM    2  C6  UNL     1      29.658  22.143  12.938  1.00  0.00     0.061 C 
HETATM    3  C7  UNL     1      29.284  20.891  12.252  1.00  0.00     0.239 C 
HETATM    4  N2  UNL     1      28.705  19.827  13.024  1.00  0.00    -0.070 N 
HETATM    5  C8  UNL     1      27.263  19.867  12.947  1.00  0.00     0.272 C 
HETATM    6  C12 UNL     1      29.053  19.830  14.431  1.00  0.00     0.239 C 
HETATM    7  C13 UNL     1      29.100  21.192  15.031  1.00  0.00     0.061 C 
ENDROOT
BRANCH   4   8
HETATM    8  C9  UNL     1      29.233  18.603  12.495  1.00  0.00     0.253 C 
BRANCH   8   9
HETATM    9  C10 UNL     1      28.515  17.345  12.770  1.00  0.00     0.148 C 
BRANCH   9  10
HETATM   10  N3  UNL     1      29.247  16.125  12.718  1.00  0.00    -0.202 NA
HETATM   11  C11 UNL     1      29.101  15.449  11.439  1.00  0.00     0.143 C 
BRANCH  10  12
HETATM   12  O1  UNL     1      28.820  15.284  13.678  1.00  0.00    -0.314 OA
ATOM     13  H1  UNL     1      27.930  15.004  13.498  1.00  0.00     0.237 HD
ENDBRANCH  10  12
ENDBRANCH   9  10
ENDBRANCH   8   9
ENDBRANCH   4   8
BRANCH   1  14
HETATM   14  N1  UNL     1      30.656  23.036  15.023  1.00  0.00    -0.071 N 
HETATM   15  C3  UNL     1      30.705  22.661  16.449  1.00  0.00     0.272 C 
HETATM   16  C4  UNL     1      29.718  24.166  14.974  1.00  0.00     0.272 C 
BRANCH  14  17
HETATM   17  C2  UNL     1      31.950  23.565  14.726  1.00  0.00     0.232 C 
HETATM   18  C1  UNL     1      32.859  23.613  15.961  1.00  0.00     0.035 C 
ENDBRANCH  14  17
ENDBRANCH   1  14
TORSDOF 6
ENDMDL
MODEL 5
REMARK VINA RESULT: -6.397664264      2.609      6.142
REMARK  6 active torsions:
REMARK  status: ('A' for Active; 'I' for Inactive)
REMARK    1  A    between atoms: C2_2  and  N1_3 
REMARK    2  A    between atoms: N1_3  and  C5_6 
REMARK    3  A    between atoms: N2_9  and  C9_11 
REMARK    4  A    between atoms: C9_11  and  C10_12 
REMARK    5  A    between atoms: C10_12  and  N3_13 
REMARK    6  A    between atoms: N3_13  and  O1_15 
ROOT
HETATM    1  C5  UNL     1      28.233  19.914  14.564  1.00  0.00     0.192 C 
HETATM    2  C6  UNL     1      27.722  21.309  14.634  1.00  0.00     0.061 C 
HETATM    3  C7  UNL     1      28.796  22.317  14.727  1.00  0.00     0.239 C 
HETATM    4  N2  UNL     1      30.001  22.115  13.971  1.00  0.00    -0.070 N 
HETATM    5  C8  UNL     1      29.942  22.831  12.718  1.00  0.00     0.272 C 
HETATM    6  C12 UNL     1      30.301  20.733  13.654  1.00  0.00     0.239 C 
HETATM    7  C13 UNL     1      29.101  19.928  13.297  1.00  0.00     0.061 C 
ENDROOT
BRANCH   4   8
HETATM    8  C9  UNL     1      31.082  22.570  14.795  1.00  0.00     0.253 C 
BRANCH   8   9
HETATM    9  C10 UNL     1      30.827  23.654  15.762  1.00  0.00     0.148 C 
BRANCH   9  10
HETATM   10  N3  UNL     1      31.466  23.589  17.032  1.00  0.00    -0.202 NA
HETATM   11  C11 UNL     1      32.897  23.830  16.943  1.00  0.00     0.143 C 
BRANCH  10  12
HETATM   12  O1  UNL     1      31.287  22.375  17.582  1.00  0.00    -0.314 OA
ATOM     13  H1  UNL     1      32.100  21.884  17.566  1.00  0.00     0.237 HD
ENDBRANCH  10  12
ENDBRANCH   9  10
ENDBRANCH   8   9
ENDBRANCH   4   8
BRANCH   1  14
HETATM   14  N1  UNL     1      27.300  18.871  14.508  1.00  0.00    -0.071 N 
HETATM   15  C3  UNL     1      27.134  18.329  15.870  1.00  0.00     0.272 C 
HETATM   16  C4  UNL     1      27.747  17.720  13.710  1.00  0.00     0.272 C 
BRANCH  14  17
HETATM   17  C2  UNL     1      25.981  19.189  14.064  1.00  0.00     0.232 C 
HETATM   18  C1  UNL     1      24.899  18.612  14.984  1.00  0.00     0.035 C 
ENDBRANCH  14  17
ENDBRANCH   1  14
TORSDOF 6
ENDMDL
