MODEL 1
REMARK VINA RESULT: -6.625666130      0.000      0.000
REMARK  6 active torsions:
REMARK  status: ('A' for Active; 'I' for Inactive)
REMARK    1  A    between atoms: C2_2  and  C3_3 
REMARK    2  A    between atoms: C3_3  and  C4_4 
REMARK    3  A    between atoms: C4_4  and  N1_5 
REMARK    4  A    between atoms: N2_9  and  C8_10 
REMARK    5  A    between atoms: C8_10  and  C9_11 
REMARK    6  A    between atoms: C9_11  and  O1_12 
ROOT
HETATM    1  N1  UNL     1      29.547  19.504  12.127  1.00  0.00    -0.067 N 
HETATM    2  C5  UNL     1      29.815  20.477  11.083  1.00  0.00     0.272 C 
HETATM    3  C6  UNL     1      30.442  19.758  13.214  1.00  0.00     0.265 C 
HETATM    4  C7  UNL     1      29.982  20.869  14.124  1.00  0.00     0.268 C 
HETATM    5  N2  UNL     1      28.670  20.622  14.688  1.00  0.00    -0.035 N 
HETATM    6  C10 UNL     1      27.844  21.764  14.499  1.00  0.00     0.405 C 
HETATM    7  O2  UNL     1      26.533  21.344  14.346  1.00  0.00    -0.362 OA
HETATM    8  C11 UNL     1      26.513  19.978  14.250  1.00  0.00     0.205 C 
HETATM    9  C12 UNL     1      27.964  19.565  14.016  1.00  0.00     0.242 C 
HETATM   10  C13 UNL     1      28.173  19.517  12.538  1.00  0.00     0.272 C 
ENDROOT
BRANCH   1  11
HETATM   11  C4  UNL     1      29.915  18.201  11.554  1.00  0.00     0.237 C 
BRANCH  11  12
HETATM   12  C3  UNL     1      28.780  17.223  11.793  1.00  0.00     0.027 C 
BRANCH  12  13
HETATM   13  C2  UNL     1      28.816  16.186  10.686  1.00  0.00    -0.003 C 
HETATM   14  C1  UNL     1      29.445  14.935  11.301  1.00  0.00     0.005 C 
ENDBRANCH  12  13
ENDBRANCH  11  12
ENDBRANCH   1  11
BRANCH   5  15
HETATM   15  C8  UNL     1      28.856  20.229  16.059  1.00  0.00     0.266 C 
BRANCH  15  16
HETATM   16  C9  UNL     1      29.945  20.968  16.769  1.00  0.00     0.192 C 
BRANCH  16  17
HETATM   17  O1  UNL     1      30.499  20.209  17.800  1.00  0.00    -0.399 OA
ATOM     18  H1  UNL     1      30.008  20.301  18.608  1.00  0.00     0.209 HD
ENDBRANCH  16  17
ENDBRANCH  15  16
ENDBRANCH   5  15
TORSDOF 6
ENDMDL
MODEL 2
REMARK VINA RESULT: -6.468785089      1.896      4.080
REMARK  6 active torsions:
REMARK  status: ('A' for Active; 'I' for Inactive)
REMARK    1  A    between atoms: C2_2  and  C3_3 
REMARK    2  A    between atoms: C3_3  and  C4_4 
REMARK    3  A    between atoms: C4_4  and  N1_5 
REMARK    4  A    between atoms: N2_9  and  C8_10 
REMARK    5  A    between atoms: C8_10  and  C9_11 
REMARK    6  A    between atoms: C9_11  and  O1_12 
ROOT
HETATM    1  N1  UNL     1      29.581  20.266  11.942  1.00  0.00    -0.067 N 
HETATM    2  C5  UNL     1      30.290  19.013  11.751  1.00  0.00     0.272 C 
HETATM    3  C6  UNL     1      28.184  20.022  11.750  1.00  0.00     0.265 C 
HETATM    4  C7  UNL     1      27.503  19.444  12.966  1.00  0.00     0.268 C 
HETATM    5  N2  UNL     1      27.642  20.286  14.137  1.00  0.00    -0.035 N 
HETATM    6  C10 UNL     1      28.097  19.507  15.237  1.00  0.00     0.405 C 
HETATM    7  O2  UNL     1      28.881  20.305  16.054  1.00  0.00    -0.362 OA
HETATM    8  C11 UNL     1      29.093  21.506  15.429  1.00  0.00     0.205 C 
HETATM    9  C12 UNL     1      28.655  21.295  13.981  1.00  0.00     0.242 C 
HETATM   10  C13 UNL     1      29.862  20.855  13.219  1.00  0.00     0.272 C 
ENDROOT
BRANCH   1  11
HETATM   11  C4  UNL     1      30.026  21.140  10.847  1.00  0.00     0.237 C 
BRANCH  11  12
HETATM   12  C3  UNL     1      31.006  20.376   9.978  1.00  0.00     0.027 C 
BRANCH  12  13
HETATM   13  C2  UNL     1      31.368  21.256   8.796  1.00  0.00    -0.003 C 
HETATM   14  C1  UNL     1      30.367  22.411   8.809  1.00  0.00     0.005 C 
ENDBRANCH  12  13
ENDBRANCH  11  12
ENDBRANCH   1  11
BRANCH   5  15
HETATM   15  C8  UNL     1      26.384  20.950  14.344  1.00  0.00     0.266 C 
BRANCH  15  16
HETATM   16  C9  UNL     1      25.189  20.138  13.957  1.00  0.00     0.192 C 
BRANCH  16  17
HETATM   17  O1  UNL     1      24.264  20.891  13.232  1.00  0.00    -0.399 OA
ATOM     18  H1  UNL     1      24.285  20.678  12.306  1.00  0.00     0.209 HD
ENDBRANCH  16  17
ENDBRANCH  15  16
ENDBRANCH   5  15
TORSDOF 6
ENDMDL
MODEL 3
REMARK VINA RESULT: -6.447056428      2.982      4.442
REMARK  6 active torsions:
REMARK  status: ('A' for Active; 'I' for Inactive)
REMARK    1  A    between atoms: C2_2  and  C3_3 
REMARK    2  A    between atoms: C3_3  and  C4_4 
REMARK    3  A    between atoms: C4_4  and  N1_5 
REMARK    4  A    between atoms: N2_9  and  C8_10 
REMARK    5  A    between atoms: C8_10  and  C9_11 
REMARK    6  A    between atoms: C9_11  and  O1_12 
ROOT
HETATM    1  N1  UNL     1      28.444  21.008  14.497  1.00  0.00    -0.067 N 
HETATM    2  C5  UNL     1      28.860  19.750  13.904  1.00  0.00     0.272 C 
HETATM    3  C6  UNL     1      28.850  21.009  15.870  1.00  0.00     0.265 C 
HETATM    4  C7  UNL     1      30.297  21.389  16.067  1.00  0.00     0.268 C 
HETATM    5  N2  UNL     1      30.612  22.692  15.517  1.00  0.00    -0.035 N 
HETATM    6  C10 UNL     1      31.770  22.598  14.696  1.00  0.00     0.405 C 
HETATM    7  O2  UNL     1      31.665  23.525  13.671  1.00  0.00    -0.362 OA
HETATM    8  C11 UNL     1      30.412  24.077  13.700  1.00  0.00     0.205 C 
HETATM    9  C12 UNL     1      29.593  23.184  14.629  1.00  0.00     0.242 C 
HETATM   10  C13 UNL     1      28.951  22.139  13.777  1.00  0.00     0.272 C 
ENDROOT
BRANCH   1  11
HETATM   11  C4  UNL     1      26.974  20.984  14.478  1.00  0.00     0.237 C 
BRANCH  11  12
HETATM   12  C3  UNL     1      26.500  19.650  15.023  1.00  0.00     0.027 C 
BRANCH  12  13
HETATM   13  C2  UNL     1      25.110  19.388  14.473  1.00  0.00    -0.003 C 
HETATM   14  C1  UNL     1      24.766  20.597  13.603  1.00  0.00     0.005 C 
ENDBRANCH  12  13
ENDBRANCH  11  12
ENDBRANCH   1  11
BRANCH   5  15
HETATM   15  C8  UNL     1      30.722  23.611  16.617  1.00  0.00     0.266 C 
BRANCH  15  16
HETATM   16  C9  UNL     1      32.124  23.853  17.079  1.00  0.00     0.192 C 
BRANCH  16  17
HETATM   17  O1  UNL     1      32.260  23.643  18.451  1.00  0.00    -0.399 OA
ATOM     18  H1  UNL     1      33.126  23.322  18.675  1.00  0.00     0.209 HD
ENDBRANCH  16  17
ENDBRANCH  15  16
ENDBRANCH   5  15
TORSDOF 6
ENDMDL
MODEL 4
REMARK VINA RESULT: -6.310040042      2.423      4.966
REMARK  6 active torsions:
REMARK  status: ('A' for Active; 'I' for Inactive)
REMARK    1  A    between atoms: C2_2  and  C3_3 
REMARK    2  A    between atoms: C3_3  and  C4_4 
REMARK    3  A    between atoms: C4_4  and  N1_5 
REMARK    4  A    between atoms: N2_9  and  C8_10 
REMARK    5  A    between atoms: C8_10  and  C9_11 
REMARK    6  A    between atoms: C9_11  and  O1_12 
ROOT
HETATM    1  N1  UNL     1      28.201  20.391  14.390  1.00  0.00    -0.067 N 
HETATM    2  C5  UNL     1      28.937  20.279  15.636  1.00  0.00     0.272 C 
HETATM    3  C6  UNL     1      28.713  21.516  13.669  1.00  0.00     0.265 C 
HETATM    4  C7  UNL     1      29.976  21.213  12.902  1.00  0.00     0.268 C 
HETATM    5  N2  UNL     1      29.808  20.128  11.956  1.00  0.00    -0.035 N 
HETATM    6  C10 UNL     1      30.853  19.178  12.125  1.00  0.00     0.405 C 
HETATM    7  O2  UNL     1      30.363  17.919  11.820  1.00  0.00    -0.362 OA
HETATM    8  C11 UNL     1      29.008  18.003  11.637  1.00  0.00     0.205 C 
HETATM    9  C12 UNL     1      28.607  19.371  12.183  1.00  0.00     0.242 C 
HETATM   10  C13 UNL     1      28.252  19.182  13.622  1.00  0.00     0.272 C 
ENDROOT
BRANCH   1  11
HETATM   11  C4  UNL     1      26.820  20.714  14.777  1.00  0.00     0.237 C 
BRANCH  11  12
HETATM   12  C3  UNL     1      26.084  19.424  15.084  1.00  0.00     0.027 C 
BRANCH  12  13
HETATM   13  C2  UNL     1      24.765  19.448  14.334  1.00  0.00    -0.003 C 
HETATM   14  C1  UNL     1      24.750  20.761  13.550  1.00  0.00     0.005 C 
ENDBRANCH  12  13
ENDBRANCH  11  12
ENDBRANCH   1  11
BRANCH   5  15
HETATM   15  C8  UNL     1      29.724  20.709  10.643  1.00  0.00     0.266 C 
BRANCH  15  16
HETATM   16  C9  UNL     1      31.019  20.730   9.895  1.00  0.00     0.192 C 
BRANCH  16  17
HETATM   17  O1  UNL     1      31.576  22.009   9.861  1.00  0.00    -0.399 OA
ATOM     18  H1  UNL     1      30.981  22.662  10.208  1.00  0.00     0.209 HD
ENDBRANCH  16  17
ENDBRANCH  15  16
ENDBRANCH   5  15
TORSDOF 6
ENDMDL
MODEL 5
REMARK VINA RESULT: -6.248901528      2.545      5.066
REMARK  6 active torsions:
REMARK  status: ('A' for Active; 'I' for Inactive)
REMARK    1  A    between atoms: C2_2  and  C3_3 
REMARK    2  A    between atoms: C3_3  and  C4_4 
REMARK    3  A    between atoms: C4_4  and  N1_5 
REMARK    4  A    between atoms: N2_9  and  C8_10 
REMARK    5  A    between atoms: C8_10  and  C9_11 
REMARK    6  A    between atoms: C9_11  and  O1_12 
ROOT
HETATM    1  N1  UNL     1      29.915  21.829  13.941  1.00  0.00    -0.067 N 
HETATM    2  C5  UNL     1      29.768  22.946  13.025  1.00  0.00     0.272 C 
HETATM    3  C6  UNL     1      28.785  21.821  14.820  1.00  0.00     0.265 C 
HETATM    4  C7  UNL     1      27.562  21.175  14.220  1.00  0.00     0.268 C 
HETATM    5  N2  UNL     1      27.800  19.808  13.803  1.00  0.00    -0.035 N 
HETATM    6  C10 UNL     1      27.343  19.627  12.468  1.00  0.00     0.405 C 
HETATM    7  O2  UNL     1      28.147  18.686  11.846  1.00  0.00    -0.362 OA
HETATM    8  C11 UNL     1      29.203  18.393  12.667  1.00  0.00     0.205 C 
HETATM    9  C12 UNL     1      29.199  19.479  13.740  1.00  0.00     0.242 C 
HETATM   10  C13 UNL     1      30.077  20.583  13.251  1.00  0.00     0.272 C 
ENDROOT
BRANCH   1  11
HETATM   11  C4  UNL     1      31.099  22.141  14.755  1.00  0.00     0.237 C 
BRANCH  11  12
HETATM   12  C3  UNL     1      30.644  22.537  16.147  1.00  0.00     0.027 C 
BRANCH  12  13
HETATM   13  C2  UNL     1      31.629  23.557  16.688  1.00  0.00    -0.003 C 
HETATM   14  C1  UNL     1      32.803  23.570  15.709  1.00  0.00     0.005 C 
ENDBRANCH  12  13
ENDBRANCH  11  12
ENDBRANCH   1  11
BRANCH   5  15
HETATM   15  C8  UNL     1      27.185  18.946  14.776  1.00  0.00     0.266 C 
BRANCH  15  16
HETATM   16  C9  UNL     1      25.732  19.214  15.004  1.00  0.00     0.192 C 
BRANCH  16  17
HETATM   17  O1  UNL     1      24.954  18.078  14.779  1.00  0.00    -0.399 OA
ATOM     18  H1  UNL     1      24.027  18.261  14.875  1.00  0.00     0.209 HD
ENDBRANCH  16  17
ENDBRANCH  15  16
ENDBRANCH   5  15
TORSDOF 6
ENDMDL
