MODEL 1
REMARK VINA RESULT: -5.549067832      0.000      0.000
REMARK  5 active torsions:
REMARK  status: ('A' for Active; 'I' for Inactive)
REMARK    1  A    between atoms: C2_2  and  N1_3 
REMARK    2  A    between atoms: C7_9  and  C8_10 
REMARK    3  A    between atoms: C8_10  and  N2_11 
REMARK    4  A    between atoms: C12_15  and  C13_16 
REMARK    5  A    between atoms: C13_16  and  O2_17 
ROOT
HETATM    1  N1  UNL     1      29.482  20.747  12.965  1.00  0.00    -0.055 N 
HETATM    2  C3  UNL     1      28.713  19.716  12.298  1.00  0.00     0.273 C 
HETATM    3  C4  UNL     1      30.707  20.300  13.579  1.00  0.00     0.272 C 
HETATM    4  C5  UNL     1      30.413  21.269  14.720  1.00  0.00     0.186 C 
HETATM    5  O1  UNL     1      30.490  20.703  15.964  1.00  0.00    -0.381 OA
HETATM    6  C6  UNL     1      29.173  20.458  16.417  1.00  0.00     0.177 C 
HETATM    7  C7  UNL     1      28.514  20.004  15.134  1.00  0.00     0.077 C 
HETATM    8  C12 UNL     1      28.982  21.135  14.230  1.00  0.00     0.184 C 
ENDROOT
BRANCH   7   9
HETATM    9  C8  UNL     1      27.039  19.894  15.181  1.00  0.00     0.245 C 
BRANCH   9  10
HETATM   10  N2  UNL     1      26.484  18.593  15.301  1.00  0.00    -0.078 N 
HETATM   11  C9  UNL     1      27.137  17.661  14.357  1.00  0.00     0.271 C 
HETATM   12  C10 UNL     1      26.693  17.981  16.597  1.00  0.00     0.271 C 
HETATM   13  C11 UNL     1      25.071  18.552  14.980  1.00  0.00     0.271 C 
ENDBRANCH   9  10
ENDBRANCH   7   9
BRANCH   8  14
HETATM   14  C13 UNL     1      28.130  22.346  14.317  1.00  0.00     0.207 C 
BRANCH  14  15
HETATM   15  O2  UNL     1      28.758  23.504  14.696  1.00  0.00    -0.398 OA
ATOM     16  H2  UNL     1      28.217  24.283  14.735  1.00  0.00     0.209 HD
ENDBRANCH  14  15
ENDBRANCH   8  14
BRANCH   1  17
HETATM   17  C2  UNL     1      29.760  21.837  12.069  1.00  0.00     0.234 C 
HETATM   18  C1  UNL     1      29.948  21.320  10.633  1.00  0.00     0.035 C 
ENDBRANCH   1  17
TORSDOF 5
ENDMDL
MODEL 2
REMARK VINA RESULT: -5.518806596      2.283      4.480
REMARK  5 active torsions:
REMARK  status: ('A' for Active; 'I' for Inactive)
REMARK    1  A    between atoms: C2_2  and  N1_3 
REMARK    2  A    between atoms: C7_9  and  C8_10 
REMARK    3  A    between atoms: C8_10  and  N2_11 
REMARK    4  A    between atoms: C12_15  and  C13_16 
REMARK    5  A    between atoms: C13_16  and  O2_17 
ROOT
HETATM    1  N1  UNL     1      28.749  19.019  12.772  1.00  0.00    -0.055 N 
HETATM    2  C3  UNL     1      30.000  19.616  12.349  1.00  0.00     0.273 C 
HETATM    3  C4  UNL     1      27.598  19.381  11.984  1.00  0.00     0.272 C 
HETATM    4  C5  UNL     1      26.798  19.408  13.283  1.00  0.00     0.186 C 
HETATM    5  O1  UNL     1      26.069  20.553  13.463  1.00  0.00    -0.381 OA
HETATM    6  C6  UNL     1      26.760  21.373  14.385  1.00  0.00     0.177 C 
HETATM    7  C7  UNL     1      28.190  21.137  13.954  1.00  0.00     0.077 C 
HETATM    8  C12 UNL     1      28.163  19.617  13.913  1.00  0.00     0.184 C 
ENDROOT
BRANCH   7   9
HETATM    9  C8  UNL     1      29.225  21.657  14.875  1.00  0.00     0.245 C 
BRANCH   9  10
HETATM   10  N2  UNL     1      29.974  22.785  14.446  1.00  0.00    -0.078 N 
HETATM   11  C9  UNL     1      29.416  24.027  15.022  1.00  0.00     0.271 C 
HETATM   12  C10 UNL     1      31.352  22.781  14.892  1.00  0.00     0.271 C 
HETATM   13  C11 UNL     1      29.942  22.969  13.009  1.00  0.00     0.271 C 
ENDBRANCH   9  10
ENDBRANCH   7   9
BRANCH   8  14
HETATM   14  C13 UNL     1      28.390  18.990  15.239  1.00  0.00     0.207 C 
BRANCH  14  15
HETATM   15  O2  UNL     1      27.375  18.202  15.718  1.00  0.00    -0.398 OA
ATOM     16  H2  UNL     1      26.512  18.361  15.354  1.00  0.00     0.209 HD
ENDBRANCH  14  15
ENDBRANCH   8  14
BRANCH   1  17
HETATM   17  C2  UNL     1      28.862  17.588  12.834  1.00  0.00     0.234 C 
HETATM   18  C1  UNL     1      29.234  17.016  11.457  1.00  0.00     0.035 C 
ENDBRANCH   1  17
TORSDOF 5
ENDMDL
MODEL 3
REMARK VINA RESULT: -5.147695792      2.163      4.933
REMARK  5 active torsions:
REMARK  status: ('A' for Active; 'I' for Inactive)
REMARK    1  A    between atoms: C2_2  and  N1_3 
REMARK    2  A    between atoms: C7_9  and  C8_10 
REMARK    3  A    between atoms: C8_10  and  N2_11 
REMARK    4  A    between atoms: C12_15  and  C13_16 
REMARK    5  A    between atoms: C13_16  and  O2_17 
ROOT
HETATM    1  N1  UNL     1      27.529  19.202  15.164  1.00  0.00    -0.055 N 
HETATM    2  C3  UNL     1      28.357  19.670  16.257  1.00  0.00     0.273 C 
HETATM    3  C4  UNL     1      28.178  18.300  14.246  1.00  0.00     0.272 C 
HETATM    4  C5  UNL     1      27.413  18.996  13.123  1.00  0.00     0.186 C 
HETATM    5  O1  UNL     1      28.201  19.394  12.077  1.00  0.00    -0.381 OA
HETATM    6  C6  UNL     1      28.419  20.787  12.198  1.00  0.00     0.177 C 
HETATM    7  C7  UNL     1      28.576  20.918  13.696  1.00  0.00     0.077 C 
HETATM    8  C12 UNL     1      27.341  20.138  14.120  1.00  0.00     0.184 C 
ENDROOT
BRANCH   7   9
HETATM    9  C8  UNL     1      28.574  22.303  14.216  1.00  0.00     0.245 C 
BRANCH   9  10
HETATM   10  N2  UNL     1      29.819  22.985  14.266  1.00  0.00    -0.078 N 
HETATM   11  C9  UNL     1      29.734  24.154  15.167  1.00  0.00     0.271 C 
HETATM   12  C10 UNL     1      30.901  22.197  14.818  1.00  0.00     0.271 C 
HETATM   13  C11 UNL     1      30.224  23.510  12.978  1.00  0.00     0.271 C 
ENDBRANCH   9  10
ENDBRANCH   7   9
BRANCH   8  14
HETATM   14  C13 UNL     1      26.101  20.954  14.112  1.00  0.00     0.207 C 
BRANCH  14  15
HETATM   15  O2  UNL     1      25.119  20.556  13.243  1.00  0.00    -0.398 OA
ATOM     16  H2  UNL     1      25.057  19.622  13.078  1.00  0.00     0.209 HD
ENDBRANCH  14  15
ENDBRANCH   8  14
BRANCH   1  17
HETATM   17  C2  UNL     1      26.321  18.602  15.659  1.00  0.00     0.234 C 
HETATM   18  C1  UNL     1      26.627  17.672  16.844  1.00  0.00     0.035 C 
ENDBRANCH   1  17
TORSDOF 5
ENDMDL
MODEL 4
REMARK VINA RESULT: -4.988914899      1.533      5.104
REMARK  5 active torsions:
REMARK  status: ('A' for Active; 'I' for Inactive)
REMARK    1  A    between atoms: C2_2  and  N1_3 
REMARK    2  A    between atoms: C7_9  and  C8_10 
REMARK    3  A    between atoms: C8_10  and  N2_11 
REMARK    4  A    between atoms: C12_15  and  C13_16 
REMARK    5  A    between atoms: C13_16  and  O2_17 
ROOT
HETATM    1  N1  UNL     1      28.092  20.068  13.518  1.00  0.00    -0.055 N 
HETATM    2  C3  UNL     1      27.688  19.467  12.263  1.00  0.00     0.273 C 
HETATM    3  C4  UNL     1      27.332  21.226  13.917  1.00  0.00     0.272 C 
HETATM    4  C5  UNL     1      28.638  21.824  14.434  1.00  0.00     0.186 C 
HETATM    5  O1  UNL     1      28.881  23.096  13.990  1.00  0.00    -0.381 OA
HETATM    6  C6  UNL     1      29.837  23.022  12.950  1.00  0.00     0.177 C 
HETATM    7  C7  UNL     1      29.382  21.768  12.239  1.00  0.00     0.077 C 
HETATM    8  C12 UNL     1      29.266  20.854  13.449  1.00  0.00     0.184 C 
ENDROOT
BRANCH   7   9
HETATM    9  C8  UNL     1      30.319  21.240  11.222  1.00  0.00     0.245 C 
BRANCH   9  10
HETATM   10  N2  UNL     1      30.493  22.000  10.035  1.00  0.00    -0.078 N 
HETATM   11  C9  UNL     1      31.205  21.206   9.011  1.00  0.00     0.271 C 
HETATM   12  C10 UNL     1      29.252  22.373   9.388  1.00  0.00     0.271 C 
HETATM   13  C11 UNL     1      31.296  23.188  10.240  1.00  0.00     0.271 C 
ENDBRANCH   9  10
ENDBRANCH   7   9
BRANCH   8  14
HETATM   14  C13 UNL     1      30.557  20.240  13.847  1.00  0.00     0.207 C 
BRANCH  14  15
HETATM   15  O2  UNL     1      31.379  21.010  14.627  1.00  0.00    -0.398 OA
ATOM     16  H2  UNL     1      31.937  20.544  15.238  1.00  0.00     0.209 HD
ENDBRANCH  14  15
ENDBRANCH   8  14
BRANCH   1  17
HETATM   17  C2  UNL     1      28.081  19.094  14.576  1.00  0.00     0.234 C 
HETATM   18  C1  UNL     1      26.654  18.895  15.111  1.00  0.00     0.035 C 
ENDBRANCH   1  17
TORSDOF 5
ENDMDL
MODEL 5
REMARK VINA RESULT: -4.889662832      2.647      5.551
REMARK  5 active torsions:
REMARK  status: ('A' for Active; 'I' for Inactive)
REMARK    1  A    between atoms: C2_2  and  N1_3 
REMARK    2  A    between atoms: C7_9  and  C8_10 
REMARK    3  A    between atoms: C8_10  and  N2_11 
REMARK    4  A    between atoms: C12_15  and  C13_16 
REMARK    5  A    between atoms: C13_16  and  O2_17 
ROOT
HETATM    1  N1  UNL     1      29.287  21.247  13.477  1.00  0.00    -0.055 N 
HETATM    2  C3  UNL     1      29.573  22.632  13.165  1.00  0.00     0.273 C 
HETATM    3  C4  UNL     1      30.396  20.495  14.009  1.00  0.00     0.272 C 
HETATM    4  C5  UNL     1      29.899  19.306  13.191  1.00  0.00     0.186 C 
HETATM    5  O1  UNL     1      30.867  18.714  12.426  1.00  0.00    -0.381 OA
HETATM    6  C6  UNL     1      30.694  19.144  11.090  1.00  0.00     0.177 C 
HETATM    7  C7  UNL     1      30.316  20.592  11.308  1.00  0.00     0.077 C 
HETATM    8  C12 UNL     1      29.234  20.385  12.356  1.00  0.00     0.184 C 
ENDROOT
BRANCH   7   9
HETATM    9  C8  UNL     1      29.813  21.303  10.111  1.00  0.00     0.245 C 
BRANCH   9  10
HETATM   10  N2  UNL     1      30.758  22.025   9.334  1.00  0.00    -0.078 N 
HETATM   11  C9  UNL     1      30.127  22.542   8.101  1.00  0.00     0.271 C 
HETATM   12  C10 UNL     1      31.274  23.211   9.986  1.00  0.00     0.271 C 
HETATM   13  C11 UNL     1      31.868  21.205   8.895  1.00  0.00     0.271 C 
ENDBRANCH   9  10
ENDBRANCH   7   9
BRANCH   8  14
HETATM   14  C13 UNL     1      27.908  20.057  11.774  1.00  0.00     0.207 C 
BRANCH  14  15
HETATM   15  O2  UNL     1      27.452  18.783  11.987  1.00  0.00    -0.398 OA
ATOM     16  H2  UNL     1      26.620  18.704  12.439  1.00  0.00     0.209 HD
ENDBRANCH  14  15
ENDBRANCH   8  14
BRANCH   1  17
HETATM   17  C2  UNL     1      28.163  21.146  14.367  1.00  0.00     0.234 C 
HETATM   18  C1  UNL     1      28.629  20.781  15.786  1.00  0.00     0.035 C 
ENDBRANCH   1  17
TORSDOF 5
ENDMDL
