MODEL 1
REMARK VINA RESULT: -7.463999439      0.000      0.000
REMARK  14 active torsions:
REMARK  status: ('A' for Active; 'I' for Inactive)
REMARK    1  A    between atoms: C3_3  and  O1_4 
REMARK    2  A    between atoms: C6_9  and  O3_10 
REMARK    3  A    between atoms: C6_9  and  O4_12 
REMARK    4  A    between atoms: C7_14  and  O5_15 
REMARK    5  A    between atoms: C8_17  and  O6_18 
REMARK    6  A    between atoms: C9_20  and  C10_21 
REMARK    7  A    between atoms: C10_21  and  O7_22 
REMARK    8  A    between atoms: O7_22  and  C11_23 
REMARK    9  A    between atoms: C11_23  and  C12_25 
REMARK   10  A    between atoms: C13_26  and  C14_28 
REMARK   11  A    between atoms: N2_29  and  C15_31 
REMARK   12  A    between atoms: C15_31  and  N3_32 
REMARK   13  A    between atoms: C15_31  and  O9_36 
REMARK   14  A    between atoms: C16_39  and  O11_41 
ROOT
HETATM    1  C1  UNL     1      -7.433  29.613 -12.809  1.00  0.00     0.020 C 
HETATM    2  C2  UNL     1      -7.976  28.304 -13.279  1.00  0.00     0.098 C 
HETATM    3  C3  UNL     1      -6.923  27.299 -13.660  1.00  0.00     0.265 C 
HETATM    4  O2  UNL     1      -6.792  27.143 -15.027  1.00  0.00    -0.360 OA
HETATM    5  C4  UNL     1      -5.914  27.948 -15.664  1.00  0.00     0.184 C 
HETATM    6  C5  UNL     1      -6.622  28.638 -16.795  1.00  0.00     0.114 C 
HETATM    7  C6  UNL     1      -6.236  30.072 -16.970  1.00  0.00     0.197 C 
HETATM    8  C7  UNL     1      -7.544  30.746 -17.285  1.00  0.00     0.212 C 
HETATM    9  C8  UNL     1      -8.489  29.639 -17.712  1.00  0.00     0.189 C 
HETATM   10  C9  UNL     1      -8.130  28.577 -16.640  1.00  0.00     0.125 C 
HETATM   11  O10 UNL     1      -8.528  29.051 -15.505  1.00  0.00    -0.339 OA
HETATM   12  C16 UNL     1      -8.985  28.493 -14.426  1.00  0.00     0.167 C 
HETATM   13  C17 UNL     1     -10.047  29.414 -13.821  1.00  0.00     0.079 C 
ENDROOT
BRANCH  10  14
HETATM   14  C10 UNL     1      -8.608  27.298 -17.205  1.00  0.00     0.220 C 
BRANCH  14  15
HETATM   15  O7  UNL     1      -8.299  27.265 -18.610  1.00  0.00    -0.315 OA
BRANCH  15  16
HETATM   16  C11 UNL     1      -7.625  26.178 -19.173  1.00  0.00     0.284 C 
HETATM   17  O8  UNL     1      -8.120  25.061 -18.922  1.00  0.00    -0.260 OA
BRANCH  16  18
HETATM   18  C12 UNL     1      -6.450  26.307 -19.984  1.00  0.00     0.110 C 
HETATM   19  C13 UNL     1      -6.546  26.607 -21.277  1.00  0.00     0.067 C 
HETATM   20  N1  UNL     1      -7.836  26.792 -21.815  1.00  0.00    -0.101 NA
BRANCH  19  21
HETATM   21  C14 UNL     1      -5.303  26.716 -22.021  1.00  0.00     0.113 C 
HETATM   22  N2  UNL     1      -4.806  25.970 -22.869  1.00  0.00    -0.350 N 
ATOM     23  H2  UNL     1      -3.911  26.299 -23.231  1.00  0.00     0.163 HD
BRANCH  22  24
HETATM   24  C15 UNL     1      -5.230  24.764 -23.428  1.00  0.00     0.423 C 
BRANCH  24  25
HETATM   25  N3  UNL     1      -6.350  24.923 -24.350  1.00  0.00    -0.035 N 
ATOM     26  H33 UNL     1      -6.017  25.113 -25.295  1.00  0.00     0.279 HD
ATOM     27  H32 UNL     1      -6.817  24.031 -24.512  1.00  0.00     0.279 HD
ATOM     28  H31 UNL     1      -7.017  25.633 -24.050  1.00  0.00     0.279 HD
ENDBRANCH  24  25
BRANCH  24  29
HETATM   29  O9  UNL     1      -5.459  23.713 -22.533  1.00  0.00    -0.355 OA
ATOM     30  H9  UNL     1      -6.328  23.329 -22.548  1.00  0.00     0.213 HD
ENDBRANCH  24  29
ENDBRANCH  22  24
ENDBRANCH  19  21
ENDBRANCH  16  18
ENDBRANCH  15  16
ENDBRANCH  14  15
ENDBRANCH  10  14
BRANCH   9  31
HETATM   31  O6  UNL     1      -9.815  29.993 -17.524  1.00  0.00    -0.390 OA
ATOM     32  H6  UNL     1     -10.201  29.535 -16.787  1.00  0.00     0.210 HD
ENDBRANCH   9  31
BRANCH   7  33
HETATM   33  O3  UNL     1      -5.388  30.226 -18.063  1.00  0.00    -0.363 OA
ATOM     34  H3  UNL     1      -5.878  30.474 -18.838  1.00  0.00     0.213 HD
ENDBRANCH   7  33
BRANCH   7  35
HETATM   35  O4  UNL     1      -5.595  30.623 -15.874  1.00  0.00    -0.363 OA
ATOM     36  H4  UNL     1      -5.794  31.541 -15.729  1.00  0.00     0.213 HD
ENDBRANCH   7  35
BRANCH   8  37
HETATM   37  O5  UNL     1      -7.444  31.674 -18.313  1.00  0.00    -0.387 OA
ATOM     38  H5  UNL     1      -8.156  32.305 -18.316  1.00  0.00     0.210 HD
ENDBRANCH   8  37
BRANCH  12  39
HETATM   39  O11 UNL     1      -9.650  27.271 -14.530  1.00  0.00    -0.365 OA
ATOM     40  H11 UNL     1      -9.530  26.999 -15.432  1.00  0.00     0.213 HD
ENDBRANCH  12  39
BRANCH   3  41
HETATM   41  O1  UNL     1      -5.749  27.437 -12.972  1.00  0.00    -0.371 OA
ATOM     42  H1  UNL     1      -5.016  27.713 -13.510  1.00  0.00     0.212 HD
ENDBRANCH   3  41
TORSDOF 14
ENDMDL
MODEL 2
REMARK VINA RESULT: -7.237184989      1.907      3.490
REMARK  14 active torsions:
REMARK  status: ('A' for Active; 'I' for Inactive)
REMARK    1  A    between atoms: C3_3  and  O1_4 
REMARK    2  A    between atoms: C6_9  and  O3_10 
REMARK    3  A    between atoms: C6_9  and  O4_12 
REMARK    4  A    between atoms: C7_14  and  O5_15 
REMARK    5  A    between atoms: C8_17  and  O6_18 
REMARK    6  A    between atoms: C9_20  and  C10_21 
REMARK    7  A    between atoms: C10_21  and  O7_22 
REMARK    8  A    between atoms: O7_22  and  C11_23 
REMARK    9  A    between atoms: C11_23  and  C12_25 
REMARK   10  A    between atoms: C13_26  and  C14_28 
REMARK   11  A    between atoms: N2_29  and  C15_31 
REMARK   12  A    between atoms: C15_31  and  N3_32 
REMARK   13  A    between atoms: C15_31  and  O9_36 
REMARK   14  A    between atoms: C16_39  and  O11_41 
ROOT
HETATM    1  C1  UNL     1      -6.767  30.521 -11.955  1.00  0.00     0.020 C 
HETATM    2  C2  UNL     1      -6.132  30.028 -13.212  1.00  0.00     0.098 C 
HETATM    3  C3  UNL     1      -5.894  31.097 -14.244  1.00  0.00     0.265 C 
HETATM    4  O2  UNL     1      -6.792  31.044 -15.295  1.00  0.00    -0.360 OA
HETATM    5  C4  UNL     1      -7.935  31.753 -15.173  1.00  0.00     0.184 C 
HETATM    6  C5  UNL     1      -9.100  30.836 -15.413  1.00  0.00     0.114 C 
HETATM    7  C6  UNL     1     -10.259  31.072 -14.498  1.00  0.00     0.197 C 
HETATM    8  C7  UNL     1     -10.732  29.681 -14.172  1.00  0.00     0.212 C 
HETATM    9  C8  UNL     1     -10.137  28.780 -15.238  1.00  0.00     0.189 C 
HETATM   10  C9  UNL     1      -8.706  29.376 -15.297  1.00  0.00     0.125 C 
HETATM   11  O10 UNL     1      -8.148  29.105 -14.163  1.00  0.00    -0.339 OA
HETATM   12  C16 UNL     1      -6.921  28.854 -13.819  1.00  0.00     0.167 C 
HETATM   13  C17 UNL     1      -6.940  27.815 -12.695  1.00  0.00     0.079 C 
ENDROOT
BRANCH  10  14
HETATM   14  C10 UNL     1      -8.168  28.931 -16.599  1.00  0.00     0.220 C 
BRANCH  14  15
HETATM   15  O7  UNL     1      -7.924  27.513 -16.543  1.00  0.00    -0.315 OA
BRANCH  15  16
HETATM   16  C11 UNL     1      -6.925  26.924 -17.322  1.00  0.00     0.284 C 
HETATM   17  O8  UNL     1      -6.131  26.190 -16.698  1.00  0.00    -0.260 OA
BRANCH  16  18
HETATM   18  C12 UNL     1      -6.797  27.127 -18.735  1.00  0.00     0.110 C 
HETATM   19  C13 UNL     1      -7.353  26.280 -19.597  1.00  0.00     0.067 C 
HETATM   20  N1  UNL     1      -8.067  25.183 -19.073  1.00  0.00    -0.101 NA
BRANCH  19  21
HETATM   21  C14 UNL     1      -7.170  26.565 -21.010  1.00  0.00     0.113 C 
HETATM   22  N2  UNL     1      -6.359  26.112 -21.823  1.00  0.00    -0.350 N 
ATOM     23  H2  UNL     1      -6.462  26.496 -22.762  1.00  0.00     0.163 HD
BRANCH  22  24
HETATM   24  C15 UNL     1      -5.330  25.177 -21.706  1.00  0.00     0.423 C 
BRANCH  24  25
HETATM   25  N3  UNL     1      -4.006  25.756 -21.905  1.00  0.00    -0.035 N 
ATOM     26  H33 UNL     1      -4.016  26.759 -21.719  1.00  0.00     0.279 HD
ATOM     27  H32 UNL     1      -3.364  25.457 -21.171  1.00  0.00     0.279 HD
ATOM     28  H31 UNL     1      -3.619  25.562 -22.828  1.00  0.00     0.279 HD
ENDBRANCH  24  25
BRANCH  24  29
HETATM   29  O9  UNL     1      -5.479  23.996 -22.440  1.00  0.00    -0.355 OA
ATOM     30  H9  UNL     1      -5.421  23.185 -21.949  1.00  0.00     0.213 HD
ENDBRANCH  24  29
ENDBRANCH  22  24
ENDBRANCH  19  21
ENDBRANCH  16  18
ENDBRANCH  15  16
ENDBRANCH  14  15
ENDBRANCH  10  14
BRANCH   9  31
HETATM   31  O6  UNL     1     -10.028  27.470 -14.804  1.00  0.00    -0.390 OA
ATOM     32  H6  UNL     1      -9.155  27.123 -14.944  1.00  0.00     0.210 HD
ENDBRANCH   9  31
BRANCH   7  33
HETATM   33  O3  UNL     1     -11.284  31.740 -15.160  1.00  0.00    -0.363 OA
ATOM     34  H3  UNL     1     -11.139  31.735 -16.099  1.00  0.00     0.213 HD
ENDBRANCH   7  33
BRANCH   7  35
HETATM   35  O4  UNL     1      -9.949  31.813 -13.371  1.00  0.00    -0.363 OA
ATOM     36  H4  UNL     1     -10.681  31.949 -12.781  1.00  0.00     0.213 HD
ENDBRANCH   7  35
BRANCH   8  37
HETATM   37  O5  UNL     1     -12.114  29.555 -14.197  1.00  0.00    -0.387 OA
ATOM     38  H5  UNL     1     -12.412  28.815 -14.714  1.00  0.00     0.210 HD
ENDBRANCH   8  37
BRANCH  12  39
HETATM   39  O11 UNL     1      -6.061  28.285 -14.760  1.00  0.00    -0.365 OA
ATOM     40  H11 UNL     1      -5.565  29.013 -15.114  1.00  0.00     0.213 HD
ENDBRANCH  12  39
BRANCH   3  41
HETATM   41  O1  UNL     1      -5.682  32.340 -13.717  1.00  0.00    -0.371 OA
ATOM     42  H1  UNL     1      -5.439  32.996 -14.360  1.00  0.00     0.212 HD
ENDBRANCH   3  41
TORSDOF 14
ENDMDL
MODEL 3
REMARK VINA RESULT: -7.209272034      1.473      2.120
REMARK  14 active torsions:
REMARK  status: ('A' for Active; 'I' for Inactive)
REMARK    1  A    between atoms: C3_3  and  O1_4 
REMARK    2  A    between atoms: C6_9  and  O3_10 
REMARK    3  A    between atoms: C6_9  and  O4_12 
REMARK    4  A    between atoms: C7_14  and  O5_15 
REMARK    5  A    between atoms: C8_17  and  O6_18 
REMARK    6  A    between atoms: C9_20  and  C10_21 
REMARK    7  A    between atoms: C10_21  and  O7_22 
REMARK    8  A    between atoms: O7_22  and  C11_23 
REMARK    9  A    between atoms: C11_23  and  C12_25 
REMARK   10  A    between atoms: C13_26  and  C14_28 
REMARK   11  A    between atoms: N2_29  and  C15_31 
REMARK   12  A    between atoms: C15_31  and  N3_32 
REMARK   13  A    between atoms: C15_31  and  O9_36 
REMARK   14  A    between atoms: C16_39  and  O11_41 
ROOT
HETATM    1  C1  UNL     1      -6.057  28.014 -13.404  1.00  0.00     0.020 C 
HETATM    2  C2  UNL     1      -5.635  27.396 -14.695  1.00  0.00     0.098 C 
HETATM    3  C3  UNL     1      -4.573  28.168 -15.432  1.00  0.00     0.265 C 
HETATM    4  O2  UNL     1      -5.065  28.858 -16.524  1.00  0.00    -0.360 OA
HETATM    5  C4  UNL     1      -5.501  30.120 -16.317  1.00  0.00     0.184 C 
HETATM    6  C5  UNL     1      -6.903  30.240 -16.843  1.00  0.00     0.114 C 
HETATM    7  C6  UNL     1      -7.810  31.056 -15.979  1.00  0.00     0.197 C 
HETATM    8  C7  UNL     1      -9.107  30.293 -16.019  1.00  0.00     0.212 C 
HETATM    9  C8  UNL     1      -9.010  29.375 -17.223  1.00  0.00     0.189 C 
HETATM   10  C9  UNL     1      -7.550  28.882 -17.044  1.00  0.00     0.125 C 
HETATM   11  O10 UNL     1      -7.533  28.164 -15.969  1.00  0.00    -0.339 OA
HETATM   12  C16 UNL     1      -6.842  27.126 -15.611  1.00  0.00     0.167 C 
HETATM   13  C17 UNL     1      -7.738  26.219 -14.764  1.00  0.00     0.079 C 
ENDROOT
BRANCH  10  14
HETATM   14  C10 UNL     1      -7.162  28.370 -18.375  1.00  0.00     0.220 C 
BRANCH  14  15
HETATM   15  O7  UNL     1      -7.988  27.237 -18.698  1.00  0.00    -0.315 OA
BRANCH  15  16
HETATM   16  C11 UNL     1      -7.455  26.118 -19.342  1.00  0.00     0.284 C 
HETATM   17  O8  UNL     1      -8.042  25.042 -19.108  1.00  0.00    -0.260 OA
BRANCH  16  18
HETATM   18  C12 UNL     1      -6.318  26.171 -20.214  1.00  0.00     0.110 C 
HETATM   19  C13 UNL     1      -6.448  26.568 -21.477  1.00  0.00     0.067 C 
HETATM   20  N1  UNL     1      -7.735  26.931 -21.923  1.00  0.00    -0.101 NA
BRANCH  19  21
HETATM   21  C14 UNL     1      -5.242  26.589 -22.287  1.00  0.00     0.113 C 
HETATM   22  N2  UNL     1      -4.815  25.780 -23.115  1.00  0.00    -0.350 N 
ATOM     23  H2  UNL     1      -3.930  26.055 -23.540  1.00  0.00     0.163 HD
BRANCH  22  24
HETATM   24  C15 UNL     1      -5.310  24.562 -23.583  1.00  0.00     0.423 C 
BRANCH  24  25
HETATM   25  N3  UNL     1      -6.443  24.714 -24.489  1.00  0.00    -0.035 N 
ATOM     26  H33 UNL     1      -6.149  24.602 -25.460  1.00  0.00     0.279 HD
ATOM     27  H32 UNL     1      -7.078  23.919 -24.414  1.00  0.00     0.279 HD
ATOM     28  H31 UNL     1      -6.943  25.593 -24.360  1.00  0.00     0.279 HD
ENDBRANCH  24  25
BRANCH  24  29
HETATM   29  O9  UNL     1      -5.565  23.584 -22.615  1.00  0.00    -0.355 OA
ATOM     30  H9  UNL     1      -6.225  23.798 -21.966  1.00  0.00     0.213 HD
ENDBRANCH  24  29
ENDBRANCH  22  24
ENDBRANCH  19  21
ENDBRANCH  16  18
ENDBRANCH  15  16
ENDBRANCH  14  15
ENDBRANCH  10  14
BRANCH   9  31
HETATM   31  O6  UNL     1      -9.842  28.274 -17.100  1.00  0.00    -0.390 OA
ATOM     32  H6  UNL     1      -9.746  27.675 -17.830  1.00  0.00     0.210 HD
ENDBRANCH   9  31
BRANCH   7  33
HETATM   33  O3  UNL     1      -8.023  32.314 -16.536  1.00  0.00    -0.363 OA
ATOM     34  H3  UNL     1      -8.171  32.248 -17.472  1.00  0.00     0.213 HD
ENDBRANCH   7  33
BRANCH   7  35
HETATM   35  O4  UNL     1      -7.340  31.253 -14.692  1.00  0.00    -0.363 OA
ATOM     36  H4  UNL     1      -7.701  30.652 -14.051  1.00  0.00     0.213 HD
ENDBRANCH   7  35
BRANCH   8  37
HETATM   37  O5  UNL     1     -10.217  31.113 -16.166  1.00  0.00    -0.387 OA
ATOM     38  H5  UNL     1     -10.222  31.591 -16.988  1.00  0.00     0.210 HD
ENDBRANCH   8  37
BRANCH  12  39
HETATM   39  O11 UNL     1      -6.364  26.262 -16.598  1.00  0.00    -0.365 OA
ATOM     40  H11 UNL     1      -5.551  25.915 -16.251  1.00  0.00     0.213 HD
ENDBRANCH  12  39
BRANCH   3  41
HETATM   41  O1  UNL     1      -3.739  28.881 -14.616  1.00  0.00    -0.371 OA
ATOM     42  H1  UNL     1      -3.096  29.402 -15.082  1.00  0.00     0.212 HD
ENDBRANCH   3  41
TORSDOF 14
ENDMDL
MODEL 4
REMARK VINA RESULT: -7.054546672      1.755      3.309
REMARK  14 active torsions:
REMARK  status: ('A' for Active; 'I' for Inactive)
REMARK    1  A    between atoms: C3_3  and  O1_4 
REMARK    2  A    between atoms: C6_9  and  O3_10 
REMARK    3  A    between atoms: C6_9  and  O4_12 
REMARK    4  A    between atoms: C7_14  and  O5_15 
REMARK    5  A    between atoms: C8_17  and  O6_18 
REMARK    6  A    between atoms: C9_20  and  C10_21 
REMARK    7  A    between atoms: C10_21  and  O7_22 
REMARK    8  A    between atoms: O7_22  and  C11_23 
REMARK    9  A    between atoms: C11_23  and  C12_25 
REMARK   10  A    between atoms: C13_26  and  C14_28 
REMARK   11  A    between atoms: N2_29  and  C15_31 
REMARK   12  A    between atoms: C15_31  and  N3_32 
REMARK   13  A    between atoms: C15_31  and  O9_36 
REMARK   14  A    between atoms: C16_39  and  O11_41 
ROOT
HETATM    1  C1  UNL     1      -8.025  31.900 -12.795  1.00  0.00     0.020 C 
HETATM    2  C2  UNL     1      -6.717  31.324 -13.222  1.00  0.00     0.098 C 
HETATM    3  C3  UNL     1      -6.149  31.939 -14.472  1.00  0.00     0.265 C 
HETATM    4  O2  UNL     1      -6.277  31.125 -15.582  1.00  0.00    -0.360 OA
HETATM    5  C4  UNL     1      -7.402  31.250 -16.319  1.00  0.00     0.184 C 
HETATM    6  C5  UNL     1      -8.036  29.896 -16.466  1.00  0.00     0.114 C 
HETATM    7  C6  UNL     1      -9.528  29.908 -16.363  1.00  0.00     0.197 C 
HETATM    8  C7  UNL     1      -9.830  28.671 -15.561  1.00  0.00     0.212 C 
HETATM    9  C8  UNL     1      -8.584  27.809 -15.643  1.00  0.00     0.189 C 
HETATM   10  C9  UNL     1      -7.507  28.908 -15.443  1.00  0.00     0.125 C 
HETATM   11  O10 UNL     1      -7.639  29.337 -14.231  1.00  0.00    -0.339 OA
HETATM   12  C16 UNL     1      -6.794  29.793 -13.358  1.00  0.00     0.167 C 
HETATM   13  C17 UNL     1      -7.241  29.331 -11.968  1.00  0.00     0.079 C 
ENDROOT
BRANCH  10  14
HETATM   14  C10 UNL     1      -6.261  28.312 -15.968  1.00  0.00     0.220 C 
BRANCH  14  15
HETATM   15  O7  UNL     1      -6.599  27.328 -16.963  1.00  0.00    -0.315 OA
BRANCH  15  16
HETATM   16  C11 UNL     1      -5.767  27.100 -18.062  1.00  0.00     0.284 C 
HETATM   17  O8  UNL     1      -4.650  26.616 -17.789  1.00  0.00    -0.260 OA
BRANCH  16  18
HETATM   18  C12 UNL     1      -6.142  27.391 -19.415  1.00  0.00     0.110 C 
HETATM   19  C13 UNL     1      -6.970  26.588 -20.078  1.00  0.00     0.067 C 
HETATM   20  N1  UNL     1      -7.460  25.449 -19.407  1.00  0.00    -0.101 NA
BRANCH  19  21
HETATM   21  C14 UNL     1      -7.294  26.960 -21.445  1.00  0.00     0.113 C 
HETATM   22  N2  UNL     1      -6.796  26.602 -22.515  1.00  0.00    -0.350 N 
ATOM     23  H2  UNL     1      -7.228  27.030 -23.333  1.00  0.00     0.163 HD
BRANCH  22  24
HETATM   24  C15 UNL     1      -5.756  25.723 -22.823  1.00  0.00     0.423 C 
BRANCH  24  25
HETATM   25  N3  UNL     1      -5.579  25.526 -24.258  1.00  0.00    -0.035 N 
ATOM     26  H33 UNL     1      -6.380  25.889 -24.775  1.00  0.00     0.279 HD
ATOM     27  H32 UNL     1      -4.852  26.140 -24.622  1.00  0.00     0.279 HD
ATOM     28  H31 UNL     1      -5.395  24.555 -24.508  1.00  0.00     0.279 HD
ENDBRANCH  24  25
BRANCH  24  29
HETATM   29  O9  UNL     1      -5.755  24.501 -22.142  1.00  0.00    -0.355 OA
ATOM     30  H9  UNL     1      -5.232  23.806 -22.525  1.00  0.00     0.213 HD
ENDBRANCH  24  29
ENDBRANCH  22  24
ENDBRANCH  19  21
ENDBRANCH  16  18
ENDBRANCH  15  16
ENDBRANCH  14  15
ENDBRANCH  10  14
BRANCH   9  31
HETATM   31  O6  UNL     1      -8.492  26.934 -14.574  1.00  0.00    -0.390 OA
ATOM     32  H6  UNL     1      -7.726  27.107 -14.041  1.00  0.00     0.210 HD
ENDBRANCH   9  31
BRANCH   7  33
HETATM   33  O3  UNL     1     -10.111  29.770 -17.619  1.00  0.00    -0.363 OA
ATOM     34  H3  UNL     1     -10.834  30.378 -17.724  1.00  0.00     0.213 HD
ENDBRANCH   7  33
BRANCH   7  35
HETATM   35  O4  UNL     1     -10.046  31.059 -15.795  1.00  0.00    -0.363 OA
ATOM     36  H4  UNL     1      -9.466  31.480 -15.173  1.00  0.00     0.213 HD
ENDBRANCH   7  35
BRANCH   8  37
HETATM   37  O5  UNL     1     -10.908  27.951 -16.056  1.00  0.00    -0.387 OA
ATOM     38  H5  UNL     1     -11.062  28.097 -16.982  1.00  0.00     0.210 HD
ENDBRANCH   8  37
BRANCH  12  39
HETATM   39  O11 UNL     1      -5.466  29.365 -13.419  1.00  0.00    -0.365 OA
ATOM     40  H11 UNL     1      -4.948  30.144 -13.260  1.00  0.00     0.213 HD
ENDBRANCH  12  39
BRANCH   3  41
HETATM   41  O1  UNL     1      -6.507  33.245 -14.660  1.00  0.00    -0.371 OA
ATOM     42  H1  UNL     1      -6.197  33.617 -15.478  1.00  0.00     0.212 HD
ENDBRANCH   3  41
TORSDOF 14
ENDMDL
MODEL 5
REMARK VINA RESULT: -7.041956137      1.463      1.957
REMARK  14 active torsions:
REMARK  status: ('A' for Active; 'I' for Inactive)
REMARK    1  A    between atoms: C3_3  and  O1_4 
REMARK    2  A    between atoms: C6_9  and  O3_10 
REMARK    3  A    between atoms: C6_9  and  O4_12 
REMARK    4  A    between atoms: C7_14  and  O5_15 
REMARK    5  A    between atoms: C8_17  and  O6_18 
REMARK    6  A    between atoms: C9_20  and  C10_21 
REMARK    7  A    between atoms: C10_21  and  O7_22 
REMARK    8  A    between atoms: O7_22  and  C11_23 
REMARK    9  A    between atoms: C11_23  and  C12_25 
REMARK   10  A    between atoms: C13_26  and  C14_28 
REMARK   11  A    between atoms: N2_29  and  C15_31 
REMARK   12  A    between atoms: C15_31  and  N3_32 
REMARK   13  A    between atoms: C15_31  and  O9_36 
REMARK   14  A    between atoms: C16_39  and  O11_41 
ROOT
HETATM    1  C1  UNL     1      -8.111  30.291 -12.708  1.00  0.00     0.020 C 
HETATM    2  C2  UNL     1      -8.579  28.909 -13.022  1.00  0.00     0.098 C 
HETATM    3  C3  UNL     1      -7.476  27.888 -13.109  1.00  0.00     0.265 C 
HETATM    4  O2  UNL     1      -7.178  27.521 -14.408  1.00  0.00    -0.360 OA
HETATM    5  C4  UNL     1      -6.238  28.241 -15.058  1.00  0.00     0.184 C 
HETATM    6  C5  UNL     1      -6.811  28.720 -16.361  1.00  0.00     0.114 C 
HETATM    7  C6  UNL     1      -6.423  30.120 -16.719  1.00  0.00     0.197 C 
HETATM    8  C7  UNL     1      -7.690  30.695 -17.291  1.00  0.00     0.212 C 
HETATM    9  C8  UNL     1      -8.564  29.506 -17.642  1.00  0.00     0.189 C 
HETATM   10  C9  UNL     1      -8.326  28.639 -16.378  1.00  0.00     0.125 C 
HETATM   11  O10 UNL     1      -8.864  29.275 -15.389  1.00  0.00    -0.339 OA
HETATM   12  C16 UNL     1      -9.442  28.882 -14.296  1.00  0.00     0.167 C 
HETATM   13  C17 UNL     1     -10.581  29.854 -13.977  1.00  0.00     0.079 C 
ENDROOT
BRANCH  10  14
HETATM   14  C10 UNL     1      -8.718  27.273 -16.781  1.00  0.00     0.220 C 
BRANCH  14  15
HETATM   15  O7  UNL     1      -8.634  27.168 -18.214  1.00  0.00    -0.315 OA
BRANCH  15  16
HETATM   16  C11 UNL     1      -7.777  26.246 -18.819  1.00  0.00     0.284 C 
HETATM   17  O8  UNL     1      -8.153  25.057 -18.764  1.00  0.00    -0.260 OA
BRANCH  16  18
HETATM   18  C12 UNL     1      -6.550  26.609 -19.466  1.00  0.00     0.110 C 
HETATM   19  C13 UNL     1      -6.524  26.898 -20.764  1.00  0.00     0.067 C 
HETATM   20  N1  UNL     1      -7.740  26.833 -21.476  1.00  0.00    -0.101 NA
BRANCH  19  21
HETATM   21  C14 UNL     1      -5.237  27.254 -21.335  1.00  0.00     0.113 C 
HETATM   22  N2  UNL     1      -4.838  28.316 -21.821  1.00  0.00    -0.350 N 
ATOM     23  H2  UNL     1      -3.874  28.281 -22.149  1.00  0.00     0.163 HD
BRANCH  22  24
HETATM   24  C15 UNL     1      -5.452  29.555 -22.007  1.00  0.00     0.423 C 
BRANCH  24  25
HETATM   25  N3  UNL     1      -5.763  30.234 -20.755  1.00  0.00    -0.035 N 
ATOM     26  H33 UNL     1      -6.547  29.785 -20.282  1.00  0.00     0.279 HD
ATOM     27  H32 UNL     1      -5.033  30.070 -20.061  1.00  0.00     0.279 HD
ATOM     28  H31 UNL     1      -5.934  31.233 -20.873  1.00  0.00     0.279 HD
ENDBRANCH  24  25
BRANCH  24  29
HETATM   29  O9  UNL     1      -6.546  29.579 -22.879  1.00  0.00    -0.355 OA
ATOM     30  H9  UNL     1      -7.259  28.985 -22.676  1.00  0.00     0.213 HD
ENDBRANCH  24  29
ENDBRANCH  22  24
ENDBRANCH  19  21
ENDBRANCH  16  18
ENDBRANCH  15  16
ENDBRANCH  14  15
ENDBRANCH  10  14
BRANCH   9  31
HETATM   31  O6  UNL     1      -9.907  29.844 -17.672  1.00  0.00    -0.390 OA
ATOM     32  H6  UNL     1     -10.403  29.377 -17.010  1.00  0.00     0.210 HD
ENDBRANCH   9  31
BRANCH   7  33
HETATM   33  O3  UNL     1      -5.450  30.124 -17.714  1.00  0.00    -0.363 OA
ATOM     34  H3  UNL     1      -5.147  29.241 -17.894  1.00  0.00     0.213 HD
ENDBRANCH   7  33
BRANCH   7  35
HETATM   35  O4  UNL     1      -5.926  30.857 -15.658  1.00  0.00    -0.363 OA
ATOM     36  H4  UNL     1      -6.245  30.579 -14.808  1.00  0.00     0.213 HD
ENDBRANCH   7  35
BRANCH   8  37
HETATM   37  O5  UNL     1      -7.477  31.451 -18.436  1.00  0.00    -0.387 OA
ATOM     38  H5  UNL     1      -8.199  32.035 -18.637  1.00  0.00     0.210 HD
ENDBRANCH   8  37
BRANCH  12  39
HETATM   39  O11 UNL     1     -10.077  27.638 -14.279  1.00  0.00    -0.365 OA
ATOM     40  H11 UNL     1     -10.014  27.340 -13.380  1.00  0.00     0.213 HD
ENDBRANCH  12  39
BRANCH   3  41
HETATM   41  O1  UNL     1      -6.396  28.170 -12.318  1.00  0.00    -0.371 OA
ATOM     42  H1  UNL     1      -5.700  27.525 -12.371  1.00  0.00     0.212 HD
ENDBRANCH   3  41
TORSDOF 14
ENDMDL
