MODEL 1
REMARK VINA RESULT: -6.562309780      0.000      0.000
REMARK  14 active torsions:
REMARK  status: ('A' for Active; 'I' for Inactive)
REMARK    1  A    between atoms: C2_2  and  O2_4 
REMARK    2  A    between atoms: O2_4  and  C3_5 
REMARK    3  A    between atoms: C4_7  and  O4_8 
REMARK    4  A    between atoms: O4_8  and  C5_9 
REMARK    5  A    between atoms: C7_11  and  O5_12 
REMARK    6  A    between atoms: O5_12  and  C8_13 
REMARK    7  A    between atoms: C9_14  and  O6_15 
REMARK    8  A    between atoms: C10_17  and  N1_18 
REMARK    9  A    between atoms: C12_23  and  N2_24 
REMARK   10  A    between atoms: C13_28  and  O7_29 
REMARK   11  A    between atoms: C14_31  and  N3_32 
REMARK   12  A    between atoms: C16_37  and  N4_38 
REMARK   13  A    between atoms: C17_43  and  N5_44 
REMARK   14  A    between atoms: C18_48  and  O9_49 
ROOT
HETATM    1  C5  UNL     1      -7.951  28.047 -16.464  1.00  0.00     0.160 C 
HETATM    2  C6  UNL     1      -7.904  28.015 -17.942  1.00  0.00     0.068 C 
HETATM    3  C7  UNL     1      -6.742  27.210 -18.514  1.00  0.00     0.155 C 
HETATM    4  C14 UNL     1      -5.557  27.463 -17.593  1.00  0.00     0.214 C 
HETATM    5  C15 UNL     1      -5.768  26.932 -16.217  1.00  0.00     0.070 C 
HETATM    6  C16 UNL     1      -7.216  26.920 -15.789  1.00  0.00     0.214 C 
ENDROOT
BRANCH   3   7
HETATM    7  O5  UNL     1      -6.418  27.774 -19.714  1.00  0.00    -0.373 OA
BRANCH   7   8
HETATM    8  C8  UNL     1      -5.760  27.045 -20.638  1.00  0.00     0.183 C 
HETATM    9  C9  UNL     1      -6.364  26.918 -21.989  1.00  0.00     0.180 C 
HETATM   10  C10 UNL     1      -5.854  25.597 -22.591  1.00  0.00     0.216 C 
HETATM   11  C11 UNL     1      -4.365  25.456 -22.370  1.00  0.00     0.071 C 
HETATM   12  C12 UNL     1      -3.707  26.766 -22.033  1.00  0.00     0.216 C 
HETATM   13  C13 UNL     1      -4.313  27.458 -20.840  1.00  0.00     0.180 C 
BRANCH   9  14
HETATM   14  O6  UNL     1      -7.726  26.874 -22.038  1.00  0.00    -0.391 OA
ATOM     15  H6  UNL     1      -8.184  27.602 -21.632  1.00  0.00     0.210 HD
ENDBRANCH   9  14
BRANCH  10  16
HETATM   16  N1  UNL     1      -6.244  25.451 -23.961  1.00  0.00    -0.072 N 
ATOM     17  H13 UNL     1      -7.146  24.982 -24.042  1.00  0.00     0.274 HD
ATOM     18  H12 UNL     1      -6.493  26.350 -24.373  1.00  0.00     0.274 HD
ATOM     19  H11 UNL     1      -5.527  24.977 -24.511  1.00  0.00     0.274 HD
ENDBRANCH  10  16
BRANCH  12  20
HETATM   20  N2  UNL     1      -2.291  26.513 -21.845  1.00  0.00    -0.072 N 
ATOM     21  H23 UNL     1      -2.045  26.338 -20.870  1.00  0.00     0.274 HD
ATOM     22  H22 UNL     1      -1.996  25.613 -22.222  1.00  0.00     0.274 HD
ATOM     23  H21 UNL     1      -1.779  27.298 -22.248  1.00  0.00     0.274 HD
ENDBRANCH  12  20
BRANCH  13  24
HETATM   24  O7  UNL     1      -4.197  28.828 -21.058  1.00  0.00    -0.391 OA
ATOM     25  H7  UNL     1      -4.664  29.327 -20.399  1.00  0.00     0.210 HD
ENDBRANCH  13  24
ENDBRANCH   7   8
ENDBRANCH   3   7
BRANCH   4  26
HETATM   26  N3  UNL     1      -5.281  28.887 -17.614  1.00  0.00    -0.072 N 
ATOM     27  H33 UNL     1      -5.735  29.368 -18.391  1.00  0.00     0.274 HD
ATOM     28  H32 UNL     1      -5.741  29.392 -16.856  1.00  0.00     0.274 HD
ATOM     29  H31 UNL     1      -4.268  29.004 -17.612  1.00  0.00     0.274 HD
ENDBRANCH   4  26
BRANCH   1  30
HETATM   30  O4  UNL     1      -9.240  28.070 -15.940  1.00  0.00    -0.331 OA
BRANCH  30  31
HETATM   31  C4  UNL     1      -9.634  29.306 -15.503  1.00  0.00     0.417 C 
HETATM   32  O3  UNL     1      -8.586  30.014 -14.921  1.00  0.00    -0.305 OA
HETATM   33  C3  UNL     1      -8.782  30.156 -13.548  1.00  0.00     0.307 C 
HETATM   34  C18 UNL     1     -10.019  31.024 -13.279  1.00  0.00     0.230 C 
HETATM   35  C17 UNL     1     -11.097  30.500 -14.207  1.00  0.00     0.356 C 
HETATM   36  O8  UNL     1     -10.763  29.266 -14.690  1.00  0.00    -0.303 OA
BRANCH  33  37
HETATM   37  O2  UNL     1      -7.692  30.819 -12.938  1.00  0.00    -0.287 OA
BRANCH  37  38
HETATM   38  C2  UNL     1      -6.648  30.108 -12.341  1.00  0.00     0.257 C 
HETATM   39  C1  UNL     1      -5.375  30.793 -11.949  1.00  0.00     0.126 C 
HETATM   40  O1  UNL     1      -6.841  28.879 -12.157  1.00  0.00    -0.266 OA
ENDBRANCH  37  38
ENDBRANCH  33  37
BRANCH  34  41
HETATM   41  O9  UNL     1     -10.336  30.878 -11.949  1.00  0.00    -0.386 OA
ATOM     42  H9  UNL     1     -11.114  31.398 -11.787  1.00  0.00     0.210 HD
ENDBRANCH  34  41
BRANCH  35  43
HETATM   43  N5  UNL     1     -11.435  31.456 -15.233  1.00  0.00    -0.050 N 
ATOM     44  H53 UNL     1     -10.658  32.096 -15.399  1.00  0.00     0.277 HD
ATOM     45  H52 UNL     1     -11.481  31.002 -16.146  1.00  0.00     0.277 HD
ATOM     46  H51 UNL     1     -12.293  31.974 -15.047  1.00  0.00     0.277 HD
ENDBRANCH  35  43
ENDBRANCH  30  31
ENDBRANCH   1  30
BRANCH   6  47
HETATM   47  N4  UNL     1      -7.394  26.903 -14.369  1.00  0.00    -0.072 N 
ATOM     48  H43 UNL     1      -8.062  26.182 -14.096  1.00  0.00     0.274 HD
ATOM     49  H42 UNL     1      -6.560  26.545 -13.902  1.00  0.00     0.274 HD
ATOM     50  H41 UNL     1      -7.662  27.810 -13.988  1.00  0.00     0.274 HD
ENDBRANCH   6  47
TORSDOF 14
ENDMDL
MODEL 2
REMARK VINA RESULT: -6.542657318      1.221      1.368
REMARK  14 active torsions:
REMARK  status: ('A' for Active; 'I' for Inactive)
REMARK    1  A    between atoms: C2_2  and  O2_4 
REMARK    2  A    between atoms: O2_4  and  C3_5 
REMARK    3  A    between atoms: C4_7  and  O4_8 
REMARK    4  A    between atoms: O4_8  and  C5_9 
REMARK    5  A    between atoms: C7_11  and  O5_12 
REMARK    6  A    between atoms: O5_12  and  C8_13 
REMARK    7  A    between atoms: C9_14  and  O6_15 
REMARK    8  A    between atoms: C10_17  and  N1_18 
REMARK    9  A    between atoms: C12_23  and  N2_24 
REMARK   10  A    between atoms: C13_28  and  O7_29 
REMARK   11  A    between atoms: C14_31  and  N3_32 
REMARK   12  A    between atoms: C16_37  and  N4_38 
REMARK   13  A    between atoms: C17_43  and  N5_44 
REMARK   14  A    between atoms: C18_48  and  O9_49 
ROOT
HETATM    1  C5  UNL     1      -8.161  27.874 -16.074  1.00  0.00     0.160 C 
HETATM    2  C6  UNL     1      -8.231  27.733 -17.545  1.00  0.00     0.068 C 
HETATM    3  C7  UNL     1      -6.970  27.155 -18.179  1.00  0.00     0.155 C 
HETATM    4  C14 UNL     1      -5.799  27.731 -17.396  1.00  0.00     0.214 C 
HETATM    5  C15 UNL     1      -5.772  27.280 -15.976  1.00  0.00     0.070 C 
HETATM    6  C16 UNL     1      -7.140  26.991 -15.407  1.00  0.00     0.214 C 
ENDROOT
BRANCH   3   7
HETATM    7  O5  UNL     1      -6.881  27.677 -19.437  1.00  0.00    -0.373 OA
BRANCH   7   8
HETATM    8  C8  UNL     1      -6.096  27.075 -20.354  1.00  0.00     0.183 C 
HETATM    9  C9  UNL     1      -6.609  26.955 -21.742  1.00  0.00     0.180 C 
HETATM   10  C10 UNL     1      -5.922  25.733 -22.376  1.00  0.00     0.216 C 
HETATM   11  C11 UNL     1      -4.440  25.746 -22.075  1.00  0.00     0.071 C 
HETATM   12  C12 UNL     1      -3.954  27.100 -21.638  1.00  0.00     0.216 C 
HETATM   13  C13 UNL     1      -4.697  27.656 -20.451  1.00  0.00     0.180 C 
BRANCH   9  14
HETATM   14  O6  UNL     1      -7.953  26.765 -21.874  1.00  0.00    -0.391 OA
ATOM     15  H6  UNL     1      -8.331  27.004 -22.712  1.00  0.00     0.210 HD
ENDBRANCH   9  14
BRANCH  10  16
HETATM   16  N1  UNL     1      -6.219  25.619 -23.772  1.00  0.00    -0.072 N 
ATOM     17  H13 UNL     1      -7.080  26.113 -24.009  1.00  0.00     0.274 HD
ATOM     18  H12 UNL     1      -5.563  26.160 -24.336  1.00  0.00     0.274 HD
ATOM     19  H11 UNL     1      -6.254  24.645 -24.075  1.00  0.00     0.274 HD
ENDBRANCH  10  16
BRANCH  12  20
HETATM   20  N2  UNL     1      -2.530  26.996 -21.379  1.00  0.00    -0.072 N 
ATOM     21  H23 UNL     1      -2.204  27.663 -20.679  1.00  0.00     0.274 HD
ATOM     22  H22 UNL     1      -2.280  26.143 -20.879  1.00  0.00     0.274 HD
ATOM     23  H21 UNL     1      -2.044  27.089 -22.271  1.00  0.00     0.274 HD
ENDBRANCH  12  20
BRANCH  13  24
HETATM   24  O7  UNL     1      -4.726  29.040 -20.596  1.00  0.00    -0.391 OA
ATOM     25  H7  UNL     1      -4.372  29.479 -19.832  1.00  0.00     0.210 HD
ENDBRANCH  13  24
ENDBRANCH   7   8
ENDBRANCH   3   7
BRANCH   4  26
HETATM   26  N3  UNL     1      -5.850  29.175 -17.531  1.00  0.00    -0.072 N 
ATOM     27  H33 UNL     1      -5.975  29.653 -16.638  1.00  0.00     0.274 HD
ATOM     28  H32 UNL     1      -4.947  29.583 -17.775  1.00  0.00     0.274 HD
ATOM     29  H31 UNL     1      -6.582  29.396 -18.206  1.00  0.00     0.274 HD
ENDBRANCH   4  26
BRANCH   1  30
HETATM   30  O4  UNL     1      -9.375  27.660 -15.427  1.00  0.00    -0.331 OA
BRANCH  30  31
HETATM   31  C4  UNL     1     -10.008  28.814 -15.053  1.00  0.00     0.417 C 
HETATM   32  O3  UNL     1      -9.228  29.942 -15.293  1.00  0.00    -0.305 OA
HETATM   33  C3  UNL     1      -8.809  30.523 -14.098  1.00  0.00     0.307 C 
HETATM   34  C18 UNL     1     -10.019  31.060 -13.319  1.00  0.00     0.230 C 
HETATM   35  C17 UNL     1     -11.060  29.960 -13.370  1.00  0.00     0.356 C 
HETATM   36  O8  UNL     1     -10.495  28.774 -13.749  1.00  0.00    -0.303 OA
BRANCH  33  37
HETATM   37  O2  UNL     1      -7.963  31.632 -14.332  1.00  0.00    -0.287 OA
BRANCH  37  38
HETATM   38  C2  UNL     1      -6.844  31.533 -15.162  1.00  0.00     0.257 C 
HETATM   39  C1  UNL     1      -6.647  32.481 -16.304  1.00  0.00     0.126 C 
HETATM   40  O1  UNL     1      -6.029  30.615 -14.894  1.00  0.00    -0.266 OA
ENDBRANCH  37  38
ENDBRANCH  33  37
BRANCH  34  41
HETATM   41  O9  UNL     1      -9.589  31.336 -12.042  1.00  0.00    -0.386 OA
ATOM     42  H9  UNL     1     -10.116  32.058 -11.720  1.00  0.00     0.210 HD
ENDBRANCH  34  41
BRANCH  35  43
HETATM   43  N5  UNL     1     -12.205  30.338 -14.163  1.00  0.00    -0.050 N 
ATOM     44  H53 UNL     1     -11.910  30.725 -15.060  1.00  0.00     0.277 HD
ATOM     45  H52 UNL     1     -12.706  29.512 -14.488  1.00  0.00     0.277 HD
ATOM     46  H51 UNL     1     -12.840  30.980 -13.687  1.00  0.00     0.277 HD
ENDBRANCH  35  43
ENDBRANCH  30  31
ENDBRANCH   1  30
BRANCH   6  47
HETATM   47  N4  UNL     1      -7.192  27.050 -13.979  1.00  0.00    -0.072 N 
ATOM     48  H43 UNL     1      -6.320  26.714 -13.570  1.00  0.00     0.274 HD
ATOM     49  H42 UNL     1      -7.166  28.017 -13.654  1.00  0.00     0.274 HD
ATOM     50  H41 UNL     1      -7.992  26.557 -13.585  1.00  0.00     0.274 HD
ENDBRANCH   6  47
TORSDOF 14
ENDMDL
MODEL 3
REMARK VINA RESULT: -6.306403805      1.546      2.076
REMARK  14 active torsions:
REMARK  status: ('A' for Active; 'I' for Inactive)
REMARK    1  A    between atoms: C2_2  and  O2_4 
REMARK    2  A    between atoms: O2_4  and  C3_5 
REMARK    3  A    between atoms: C4_7  and  O4_8 
REMARK    4  A    between atoms: O4_8  and  C5_9 
REMARK    5  A    between atoms: C7_11  and  O5_12 
REMARK    6  A    between atoms: O5_12  and  C8_13 
REMARK    7  A    between atoms: C9_14  and  O6_15 
REMARK    8  A    between atoms: C10_17  and  N1_18 
REMARK    9  A    between atoms: C12_23  and  N2_24 
REMARK   10  A    between atoms: C13_28  and  O7_29 
REMARK   11  A    between atoms: C14_31  and  N3_32 
REMARK   12  A    between atoms: C16_37  and  N4_38 
REMARK   13  A    between atoms: C17_43  and  N5_44 
REMARK   14  A    between atoms: C18_48  and  O9_49 
ROOT
HETATM    1  C5  UNL     1      -7.931  27.631 -16.445  1.00  0.00     0.160 C 
HETATM    2  C6  UNL     1      -7.862  27.552 -17.920  1.00  0.00     0.068 C 
HETATM    3  C7  UNL     1      -6.533  27.033 -18.457  1.00  0.00     0.155 C 
HETATM    4  C14 UNL     1      -5.455  27.604 -17.548  1.00  0.00     0.214 C 
HETATM    5  C15 UNL     1      -5.545  27.094 -16.151  1.00  0.00     0.070 C 
HETATM    6  C16 UNL     1      -6.950  26.746 -15.723  1.00  0.00     0.214 C 
ENDROOT
BRANCH   3   7
HETATM    7  O5  UNL     1      -6.344  27.611 -19.680  1.00  0.00    -0.373 OA
BRANCH   7   8
HETATM    8  C8  UNL     1      -5.687  26.933 -20.643  1.00  0.00     0.183 C 
HETATM    9  C9  UNL     1      -6.302  26.863 -21.993  1.00  0.00     0.180 C 
HETATM   10  C10 UNL     1      -5.784  25.578 -22.662  1.00  0.00     0.216 C 
HETATM   11  C11 UNL     1      -4.290  25.445 -22.461  1.00  0.00     0.071 C 
HETATM   12  C12 UNL     1      -3.644  26.745 -22.069  1.00  0.00     0.216 C 
HETATM   13  C13 UNL     1      -4.247  27.373 -20.838  1.00  0.00     0.180 C 
BRANCH   9  14
HETATM   14  O6  UNL     1      -7.664  26.806 -22.031  1.00  0.00    -0.391 OA
ATOM     15  H6  UNL     1      -8.096  26.540 -21.228  1.00  0.00     0.210 HD
ENDBRANCH   9  14
BRANCH  10  16
HETATM   16  N1  UNL     1      -6.185  25.492 -24.033  1.00  0.00    -0.072 N 
ATOM     17  H13 UNL     1      -6.787  26.273 -24.293  1.00  0.00     0.274 HD
ATOM     18  H12 UNL     1      -5.402  25.678 -24.661  1.00  0.00     0.274 HD
ATOM     19  H11 UNL     1      -6.625  24.597 -24.245  1.00  0.00     0.274 HD
ENDBRANCH  10  16
BRANCH  12  20
HETATM   20  N2  UNL     1      -2.223  26.500 -21.906  1.00  0.00    -0.072 N 
ATOM     21  H23 UNL     1      -1.989  25.507 -21.914  1.00  0.00     0.274 HD
ATOM     22  H22 UNL     1      -1.678  26.775 -22.722  1.00  0.00     0.274 HD
ATOM     23  H21 UNL     1      -1.923  26.971 -21.052  1.00  0.00     0.274 HD
ENDBRANCH  12  20
BRANCH  13  24
HETATM   24  O7  UNL     1      -4.149  28.753 -20.993  1.00  0.00    -0.391 OA
ATOM     25  H7  UNL     1      -3.352  28.998 -21.449  1.00  0.00     0.210 HD
ENDBRANCH  13  24
ENDBRANCH   7   8
ENDBRANCH   3   7
BRANCH   4  26
HETATM   26  N3  UNL     1      -5.535  29.051 -17.628  1.00  0.00    -0.072 N 
ATOM     27  H33 UNL     1      -4.882  29.448 -18.304  1.00  0.00     0.274 HD
ATOM     28  H32 UNL     1      -6.397  29.378 -18.066  1.00  0.00     0.274 HD
ATOM     29  H31 UNL     1      -5.404  29.419 -16.686  1.00  0.00     0.274 HD
ENDBRANCH   4  26
BRANCH   1  30
HETATM   30  O4  UNL     1      -9.192  27.360 -15.922  1.00  0.00    -0.331 OA
BRANCH  30  31
HETATM   31  C4  UNL     1      -9.854  28.472 -15.478  1.00  0.00     0.417 C 
HETATM   32  O3  UNL     1      -9.660  29.567 -16.316  1.00  0.00    -0.305 OA
HETATM   33  C3  UNL     1      -8.887  30.543 -15.691  1.00  0.00     0.307 C 
HETATM   34  C18 UNL     1      -9.641  31.121 -14.485  1.00  0.00     0.230 C 
HETATM   35  C17 UNL     1     -10.201  29.926 -13.741  1.00  0.00     0.356 C 
HETATM   36  O8  UNL     1      -9.588  28.772 -14.145  1.00  0.00    -0.303 OA
BRANCH  33  37
HETATM   37  O2  UNL     1      -8.632  31.631 -16.558  1.00  0.00    -0.287 OA
BRANCH  37  38
HETATM   38  C2  UNL     1      -7.408  31.767 -17.217  1.00  0.00     0.257 C 
HETATM   39  C1  UNL     1      -6.223  32.366 -16.525  1.00  0.00     0.126 C 
HETATM   40  O1  UNL     1      -7.365  31.361 -18.407  1.00  0.00    -0.266 OA
ENDBRANCH  37  38
ENDBRANCH  33  37
BRANCH  34  41
HETATM   41  O9  UNL     1      -8.731  31.838 -13.743  1.00  0.00    -0.386 OA
ATOM     42  H9  UNL     1      -9.223  32.335 -13.101  1.00  0.00     0.210 HD
ENDBRANCH  34  41
BRANCH  35  43
HETATM   43  N5  UNL     1     -11.641  29.875 -13.811  1.00  0.00    -0.050 N 
ATOM     44  H53 UNL     1     -11.963  30.091 -14.755  1.00  0.00     0.277 HD
ATOM     45  H52 UNL     1     -11.971  28.913 -13.733  1.00  0.00     0.277 HD
ATOM     46  H51 UNL     1     -12.108  30.471 -13.128  1.00  0.00     0.277 HD
ENDBRANCH  35  43
ENDBRANCH  30  31
ENDBRANCH   1  30
BRANCH   6  47
HETATM   47  N4  UNL     1      -7.133  26.743 -14.304  1.00  0.00    -0.072 N 
ATOM     48  H43 UNL     1      -6.543  27.447 -13.860  1.00  0.00     0.274 HD
ATOM     49  H42 UNL     1      -8.051  27.113 -14.055  1.00  0.00     0.274 HD
ATOM     50  H41 UNL     1      -6.986  25.826 -13.882  1.00  0.00     0.274 HD
ENDBRANCH   6  47
TORSDOF 14
ENDMDL
MODEL 4
REMARK VINA RESULT: -5.991928433      2.953      5.211
REMARK  14 active torsions:
REMARK  status: ('A' for Active; 'I' for Inactive)
REMARK    1  A    between atoms: C2_2  and  O2_4 
REMARK    2  A    between atoms: O2_4  and  C3_5 
REMARK    3  A    between atoms: C4_7  and  O4_8 
REMARK    4  A    between atoms: O4_8  and  C5_9 
REMARK    5  A    between atoms: C7_11  and  O5_12 
REMARK    6  A    between atoms: O5_12  and  C8_13 
REMARK    7  A    between atoms: C9_14  and  O6_15 
REMARK    8  A    between atoms: C10_17  and  N1_18 
REMARK    9  A    between atoms: C12_23  and  N2_24 
REMARK   10  A    between atoms: C13_28  and  O7_29 
REMARK   11  A    between atoms: C14_31  and  N3_32 
REMARK   12  A    between atoms: C16_37  and  N4_38 
REMARK   13  A    between atoms: C17_43  and  N5_44 
REMARK   14  A    between atoms: C18_48  and  O9_49 
ROOT
HETATM    1  C5  UNL     1      -6.281  28.706 -14.291  1.00  0.00     0.160 C 
HETATM    2  C6  UNL     1      -5.480  29.222 -15.423  1.00  0.00     0.068 C 
HETATM    3  C7  UNL     1      -4.261  30.038 -15.006  1.00  0.00     0.155 C 
HETATM    4  C14 UNL     1      -4.683  30.835 -13.781  1.00  0.00     0.214 C 
HETATM    5  C15 UNL     1      -5.003  29.973 -12.609  1.00  0.00     0.070 C 
HETATM    6  C16 UNL     1      -5.535  28.611 -12.987  1.00  0.00     0.214 C 
ENDROOT
BRANCH   3   7
HETATM    7  O5  UNL     1      -4.036  30.951 -15.995  1.00  0.00    -0.373 OA
BRANCH   7   8
HETATM    8  C8  UNL     1      -4.591  30.768 -17.211  1.00  0.00     0.183 C 
HETATM    9  C9  UNL     1      -5.314  31.908 -17.829  1.00  0.00     0.180 C 
HETATM   10  C10 UNL     1      -6.360  31.315 -18.789  1.00  0.00     0.216 C 
HETATM   11  C11 UNL     1      -5.745  30.216 -19.626  1.00  0.00     0.071 C 
HETATM   12  C12 UNL     1      -4.242  30.272 -19.634  1.00  0.00     0.216 C 
HETATM   13  C13 UNL     1      -3.628  30.238 -18.259  1.00  0.00     0.180 C 
BRANCH   9  14
HETATM   14  O6  UNL     1      -5.985  32.731 -16.973  1.00  0.00    -0.391 OA
ATOM     15  H6  UNL     1      -6.611  33.327 -17.368  1.00  0.00     0.210 HD
ENDBRANCH   9  14
BRANCH  10  16
HETATM   16  N1  UNL     1      -7.007  32.330 -19.565  1.00  0.00    -0.072 N 
ATOM     17  H13 UNL     1      -6.654  33.257 -19.330  1.00  0.00     0.274 HD
ATOM     18  H12 UNL     1      -6.717  32.290 -20.542  1.00  0.00     0.274 HD
ATOM     19  H11 UNL     1      -8.022  32.286 -19.477  1.00  0.00     0.274 HD
ENDBRANCH  10  16
BRANCH  12  20
HETATM   20  N2  UNL     1      -3.764  29.182 -20.463  1.00  0.00    -0.072 N 
ATOM     21  H23 UNL     1      -4.451  28.435 -20.570  1.00  0.00     0.274 HD
ATOM     22  H22 UNL     1      -3.687  29.437 -21.448  1.00  0.00     0.274 HD
ATOM     23  H21 UNL     1      -2.882  28.855 -20.068  1.00  0.00     0.274 HD
ENDBRANCH  12  20
BRANCH  13  24
HETATM   24  O7  UNL     1      -2.461  30.995 -18.311  1.00  0.00    -0.391 OA
ATOM     25  H7  UNL     1      -1.746  30.508 -18.705  1.00  0.00     0.210 HD
ENDBRANCH  13  24
ENDBRANCH   7   8
ENDBRANCH   3   7
BRANCH   4  26
HETATM   26  N3  UNL     1      -5.789  31.690 -14.173  1.00  0.00    -0.072 N 
ATOM     27  H33 UNL     1      -5.840  32.549 -13.625  1.00  0.00     0.274 HD
ATOM     28  H32 UNL     1      -5.653  32.122 -15.087  1.00  0.00     0.274 HD
ATOM     29  H31 UNL     1      -6.642  31.133 -14.119  1.00  0.00     0.274 HD
ENDBRANCH   4  26
BRANCH   1  30
HETATM   30  O4  UNL     1      -6.857  27.461 -14.527  1.00  0.00    -0.331 OA
BRANCH  30  31
HETATM   31  C4  UNL     1      -8.132  27.530 -15.018  1.00  0.00     0.417 C 
HETATM   32  O3  UNL     1      -8.245  26.928 -16.269  1.00  0.00    -0.305 OA
HETATM   33  C3  UNL     1      -8.480  27.878 -17.261  1.00  0.00     0.307 C 
HETATM   34  C18 UNL     1      -9.844  28.546 -17.040  1.00  0.00     0.230 C 
HETATM   35  C17 UNL     1      -9.903  28.878 -15.563  1.00  0.00     0.356 C 
HETATM   36  O8  UNL     1      -8.658  28.819 -15.002  1.00  0.00    -0.303 OA
BRANCH  33  37
HETATM   37  O2  UNL     1      -8.532  27.282 -18.543  1.00  0.00    -0.287 OA
BRANCH  37  38
HETATM   38  C2  UNL     1      -7.627  26.289 -18.923  1.00  0.00     0.257 C 
HETATM   39  C1  UNL     1      -6.218  26.632 -19.296  1.00  0.00     0.126 C 
HETATM   40  O1  UNL     1      -8.063  25.109 -18.931  1.00  0.00    -0.266 OA
ENDBRANCH  37  38
ENDBRANCH  33  37
BRANCH  34  41
HETATM   41  O9  UNL     1      -9.886  29.661 -17.845  1.00  0.00    -0.386 OA
ATOM     42  H9  UNL     1     -10.782  29.758 -18.143  1.00  0.00     0.210 HD
ENDBRANCH  34  41
BRANCH  35  43
HETATM   43  N5  UNL     1     -10.891  28.086 -14.872  1.00  0.00    -0.050 N 
ATOM     44  H53 UNL     1     -10.442  27.367 -14.303  1.00  0.00     0.277 HD
ATOM     45  H52 UNL     1     -11.339  28.632 -14.136  1.00  0.00     0.277 HD
ATOM     46  H51 UNL     1     -11.590  27.671 -15.488  1.00  0.00     0.277 HD
ENDBRANCH  35  43
ENDBRANCH  30  31
ENDBRANCH   1  30
BRANCH   6  47
HETATM   47  N4  UNL     1      -6.295  27.984 -11.949  1.00  0.00    -0.072 N 
ATOM     48  H43 UNL     1      -6.554  28.660 -11.230  1.00  0.00     0.274 HD
ATOM     49  H42 UNL     1      -7.225  27.729 -12.282  1.00  0.00     0.274 HD
ATOM     50  H41 UNL     1      -5.823  27.179 -11.537  1.00  0.00     0.274 HD
ENDBRANCH   6  47
TORSDOF 14
ENDMDL
MODEL 5
REMARK VINA RESULT: -5.927208750      3.144      5.677
REMARK  14 active torsions:
REMARK  status: ('A' for Active; 'I' for Inactive)
REMARK    1  A    between atoms: C2_2  and  O2_4 
REMARK    2  A    between atoms: O2_4  and  C3_5 
REMARK    3  A    between atoms: C4_7  and  O4_8 
REMARK    4  A    between atoms: O4_8  and  C5_9 
REMARK    5  A    between atoms: C7_11  and  O5_12 
REMARK    6  A    between atoms: O5_12  and  C8_13 
REMARK    7  A    between atoms: C9_14  and  O6_15 
REMARK    8  A    between atoms: C10_17  and  N1_18 
REMARK    9  A    between atoms: C12_23  and  N2_24 
REMARK   10  A    between atoms: C13_28  and  O7_29 
REMARK   11  A    between atoms: C14_31  and  N3_32 
REMARK   12  A    between atoms: C16_37  and  N4_38 
REMARK   13  A    between atoms: C17_43  and  N5_44 
REMARK   14  A    between atoms: C18_48  and  O9_49 
ROOT
HETATM    1  C5  UNL     1      -8.296  30.319 -16.112  1.00  0.00     0.160 C 
HETATM    2  C6  UNL     1      -8.123  29.170 -17.026  1.00  0.00     0.068 C 
HETATM    3  C7  UNL     1      -8.741  27.871 -16.521  1.00  0.00     0.155 C 
HETATM    4  C14 UNL     1      -8.517  27.850 -15.017  1.00  0.00     0.214 C 
HETATM    5  C15 UNL     1      -9.246  28.939 -14.306  1.00  0.00     0.070 C 
HETATM    6  C16 UNL     1      -9.438  30.182 -15.141  1.00  0.00     0.214 C 
ENDROOT
BRANCH   3   7
HETATM    7  O5  UNL     1      -7.994  26.849 -17.031  1.00  0.00    -0.373 OA
BRANCH   7   8
HETATM    8  C8  UNL     1      -7.228  27.062 -18.121  1.00  0.00     0.183 C 
HETATM    9  C9  UNL     1      -5.780  26.748 -18.031  1.00  0.00     0.180 C 
HETATM   10  C10 UNL     1      -5.057  27.645 -19.050  1.00  0.00     0.216 C 
HETATM   11  C11 UNL     1      -5.791  27.639 -20.373  1.00  0.00     0.071 C 
HETATM   12  C12 UNL     1      -6.737  26.477 -20.500  1.00  0.00     0.216 C 
HETATM   13  C13 UNL     1      -7.746  26.394 -19.383  1.00  0.00     0.180 C 
BRANCH   9  14
HETATM   14  O6  UNL     1      -5.190  26.969 -16.822  1.00  0.00    -0.391 OA
ATOM     15  H6  UNL     1      -4.294  26.666 -16.730  1.00  0.00     0.210 HD
ENDBRANCH   9  14
BRANCH  10  16
HETATM   16  N1  UNL     1      -3.670  27.310 -19.166  1.00  0.00    -0.072 N 
ATOM     17  H13 UNL     1      -3.486  26.369 -18.818  1.00  0.00     0.274 HD
ATOM     18  H12 UNL     1      -3.401  27.176 -20.140  1.00  0.00     0.274 HD
ATOM     19  H11 UNL     1      -3.073  27.998 -18.707  1.00  0.00     0.274 HD
ENDBRANCH  10  16
BRANCH  12  20
HETATM   20  N2  UNL     1      -7.380  26.571 -21.797  1.00  0.00    -0.072 N 
ATOM     21  H23 UNL     1      -7.072  27.382 -22.334  1.00  0.00     0.274 HD
ATOM     22  H22 UNL     1      -7.065  25.851 -22.448  1.00  0.00     0.274 HD
ATOM     23  H21 UNL     1      -8.388  26.556 -21.646  1.00  0.00     0.274 HD
ENDBRANCH  12  20
BRANCH  13  24
HETATM   24  O7  UNL     1      -8.016  25.044 -19.174  1.00  0.00    -0.391 OA
ATOM     25  H7  UNL     1      -7.597  24.499 -19.829  1.00  0.00     0.210 HD
ENDBRANCH  13  24
ENDBRANCH   7   8
ENDBRANCH   3   7
BRANCH   4  26
HETATM   26  N3  UNL     1      -7.085  27.884 -14.786  1.00  0.00    -0.072 N 
ATOM     27  H33 UNL     1      -6.623  28.659 -15.265  1.00  0.00     0.274 HD
ATOM     28  H32 UNL     1      -6.842  28.153 -13.832  1.00  0.00     0.274 HD
ATOM     29  H31 UNL     1      -6.709  26.974 -15.051  1.00  0.00     0.274 HD
ENDBRANCH   4  26
BRANCH   1  30
HETATM   30  O4  UNL     1      -8.453  31.540 -16.762  1.00  0.00    -0.331 OA
BRANCH  30  31
HETATM   31  C4  UNL     1      -7.276  32.093 -17.185  1.00  0.00     0.417 C 
HETATM   32  O3  UNL     1      -7.240  32.253 -18.568  1.00  0.00    -0.305 OA
HETATM   33  C3  UNL     1      -6.316  31.385 -19.147  1.00  0.00     0.307 C 
HETATM   34  C18 UNL     1      -4.895  31.743 -18.689  1.00  0.00     0.230 C 
HETATM   35  C17 UNL     1      -4.989  31.953 -17.191  1.00  0.00     0.356 C 
HETATM   36  O8  UNL     1      -6.153  31.431 -16.699  1.00  0.00    -0.303 OA
BRANCH  33  37
HETATM   37  O2  UNL     1      -6.318  31.495 -20.557  1.00  0.00    -0.287 OA
BRANCH  37  38
HETATM   38  C2  UNL     1      -6.628  32.699 -21.194  1.00  0.00     0.257 C 
HETATM   39  C1  UNL     1      -5.601  33.778 -21.342  1.00  0.00     0.126 C 
HETATM   40  O1  UNL     1      -7.803  32.816 -21.626  1.00  0.00    -0.266 OA
ENDBRANCH  37  38
ENDBRANCH  33  37
BRANCH  34  41
HETATM   41  O9  UNL     1      -4.080  30.691 -19.034  1.00  0.00    -0.386 OA
ATOM     42  H9  UNL     1      -4.458  30.285 -19.805  1.00  0.00     0.210 HD
ENDBRANCH  34  41
BRANCH  35  43
HETATM   43  N5  UNL     1      -4.770  33.332 -16.826  1.00  0.00    -0.050 N 
ATOM     44  H53 UNL     1      -5.313  33.954 -17.427  1.00  0.00     0.277 HD
ATOM     45  H52 UNL     1      -5.206  33.540 -15.927  1.00  0.00     0.277 HD
ATOM     46  H51 UNL     1      -3.788  33.606 -16.822  1.00  0.00     0.277 HD
ENDBRANCH  35  43
ENDBRANCH  30  31
ENDBRANCH   1  30
BRANCH   6  47
HETATM   47  N4  UNL     1      -9.663  31.364 -14.366  1.00  0.00    -0.072 N 
ATOM     48  H43 UNL     1      -8.846  31.584 -13.795  1.00  0.00     0.274 HD
ATOM     49  H42 UNL     1      -9.679  32.192 -14.961  1.00  0.00     0.274 HD
ATOM     50  H41 UNL     1     -10.504  31.313 -13.792  1.00  0.00     0.274 HD
ENDBRANCH   6  47
TORSDOF 14
ENDMDL
