MODEL 1
REMARK VINA RESULT: -8.114010484      0.000      0.000
REMARK  10 active torsions:
REMARK  status: ('A' for Active; 'I' for Inactive)
REMARK       I    between atoms: C1_4  and  N3_6 
REMARK       I    between atoms: N3_6  and  C2_8 
REMARK    1  A    between atoms: C2_8  and  C3_10 
REMARK    2  A    between atoms: C6_17  and  N6_18 
REMARK    3  A    between atoms: C7_23  and  N8_24 
REMARK    4  A    between atoms: N9_27  and  C8_28 
REMARK    5  A    between atoms: C9_30  and  C10_31 
REMARK    6  A    between atoms: C10_31  and  O3_32 
REMARK    7  A    between atoms: C11_34  and  C12_35 
REMARK    8  A    between atoms: C12_35  and  N10_36 
REMARK    9  A    between atoms: C14_38  and  C15_39 
REMARK   10  A    between atoms: C15_39  and  O4_40 
ROOT
HETATM    1  C3  UNL     1      -3.672  20.980 -28.524  1.00  0.00     0.177 A 
HETATM    2  N4  UNL     1      -3.693  21.914 -27.525  1.00  0.00    -0.321 N 
ATOM      3  H4  UNL     1      -2.881  22.380 -27.121  1.00  0.00     0.169 HD
HETATM    4  C4  UNL     1      -4.974  22.106 -27.171  1.00  0.00     0.161 A 
HETATM    5  C5  UNL     1      -5.773  21.292 -27.948  1.00  0.00     0.124 A 
HETATM    6  N5  UNL     1      -4.941  20.620 -28.763  1.00  0.00    -0.332 N 
ATOM      7  H5  UNL     1      -5.233  19.935 -29.460  1.00  0.00     0.168 HD
HETATM    8  C6  UNL     1      -7.140  21.320 -27.760  1.00  0.00     0.145 A 
HETATM    9  N7  UNL     1      -7.666  22.121 -26.844  1.00  0.00    -0.175 N 
ATOM     10  H7  UNL     1      -8.676  22.143 -26.702  1.00  0.00     0.186 HD
HETATM   11  C7  UNL     1      -6.858  22.909 -26.096  1.00  0.00     0.685 A 
HETATM   12  N9  UNL     1      -5.523  22.928 -26.229  1.00  0.00    -0.115 N 
ENDROOT
BRANCH  12  13
HETATM   13  C8  UNL     1      -4.648  23.766 -25.437  1.00  0.00     0.397 C 
HETATM   14  O2  UNL     1      -3.442  23.133 -25.150  1.00  0.00    -0.333 OA
HETATM   15  C9  UNL     1      -2.994  23.661 -23.947  1.00  0.00     0.180 C 
HETATM   16  C11 UNL     1      -4.229  24.200 -23.298  1.00  0.00     0.177 C 
HETATM   17  O5  UNL     1      -5.252  24.042 -24.219  1.00  0.00    -0.333 OA
BRANCH  15  18
HETATM   18  C10 UNL     1      -1.973  24.724 -24.259  1.00  0.00     0.199 C 
BRANCH  18  19
HETATM   19  O3  UNL     1      -1.086  24.170 -25.200  1.00  0.00    -0.398 OA
ATOM     20  H3  UNL     1      -1.396  24.437 -26.057  1.00  0.00     0.209 HD
ENDBRANCH  18  19
ENDBRANCH  15  18
BRANCH  16  21
HETATM   21  C12 UNL     1      -4.134  25.666 -22.955  1.00  0.00     0.184 C 
BRANCH  21  22
HETATM   22  N10 UNL     1      -5.330  26.011 -22.216  1.00  0.00    -0.285 N 
HETATM   23  C13 UNL     1      -5.617  25.792 -20.935  1.00  0.00     0.140 A 
HETATM   24  C14 UNL     1      -6.869  26.301 -20.701  1.00  0.00     0.067 A 
HETATM   25  N11 UNL     1      -7.305  26.820 -21.872  1.00  0.00    -0.287 N 
HETATM   26  N12 UNL     1      -6.357  26.628 -22.756  1.00  0.00    -0.241 N 
ATOM     27  H11 UNL     1      -8.203  27.276 -22.035  1.00  0.00     0.188 HD
ATOM     28  H12 UNL     1      -6.410  26.918 -23.733  1.00  0.00     0.208 HD
BRANCH  24  29
HETATM   29  C15 UNL     1      -7.664  26.321 -19.438  1.00  0.00     0.224 C 
BRANCH  29  30
HETATM   30  O4  UNL     1      -8.009  25.055 -19.032  1.00  0.00    -0.395 OA
ATOM     31  H4  UNL     1      -8.950  24.949 -18.966  1.00  0.00     0.209 HD
ENDBRANCH  29  30
ENDBRANCH  24  29
ENDBRANCH  21  22
ENDBRANCH  16  21
ENDBRANCH  12  13
BRANCH  11  32
HETATM   32  N8  UNL     1      -7.365  23.702 -25.190  1.00  0.00    -0.234 N 
ATOM     33  H82 UNL     1      -8.361  23.595 -24.997  1.00  0.00     0.174 HD
ATOM     34  H81 UNL     1      -6.775  24.385 -24.716  1.00  0.00     0.174 HD
ENDBRANCH  11  32
BRANCH   1  35
HETATM   35  C2  UNL     1      -2.517  20.457 -29.217  1.00  0.00     0.292 C 
HETATM   36  N3  UNL     1      -2.595  19.348 -30.116  1.00  0.00    -0.295 N 
HETATM   37  C1  UNL     1      -1.463  18.846 -30.787  1.00  0.00     0.188 C 
ATOM     38  H3  UNL     1      -3.501  18.906 -30.276  1.00  0.00     0.171 HD
HETATM   39  N1  UNL     1      -1.559  17.849 -31.590  1.00  0.00    -0.373 N 
HETATM   40  N2  UNL     1      -0.174  19.425 -30.598  1.00  0.00    -0.064 NA
ATOM     41  H12 UNL     1      -0.739  17.485 -32.077  1.00  0.00     0.158 HD
ATOM     42  H11 UNL     1      -2.481  17.435 -31.725  1.00  0.00     0.158 HD
HETATM   43  O1  UNL     1      -1.401  20.992 -29.027  1.00  0.00    -0.264 OA
ENDBRANCH   1  35
BRANCH   8  44
HETATM   44  N6  UNL     1      -7.874  20.549 -28.500  1.00  0.00    -0.383 N 
ATOM     45  H62 UNL     1      -8.166  20.820 -29.438  1.00  0.00     0.157 HD
ATOM     46  H61 UNL     1      -8.160  19.648 -28.117  1.00  0.00     0.157 HD
ENDBRANCH   8  44
TORSDOF 10
ENDMDL
MODEL 2
REMARK VINA RESULT: -7.540598525      0.880      1.136
REMARK  10 active torsions:
REMARK  status: ('A' for Active; 'I' for Inactive)
REMARK       I    between atoms: C1_4  and  N3_6 
REMARK       I    between atoms: N3_6  and  C2_8 
REMARK    1  A    between atoms: C2_8  and  C3_10 
REMARK    2  A    between atoms: C6_17  and  N6_18 
REMARK    3  A    between atoms: C7_23  and  N8_24 
REMARK    4  A    between atoms: N9_27  and  C8_28 
REMARK    5  A    between atoms: C9_30  and  C10_31 
REMARK    6  A    between atoms: C10_31  and  O3_32 
REMARK    7  A    between atoms: C11_34  and  C12_35 
REMARK    8  A    between atoms: C12_35  and  N10_36 
REMARK    9  A    between atoms: C14_38  and  C15_39 
REMARK   10  A    between atoms: C15_39  and  O4_40 
ROOT
HETATM    1  C3  UNL     1      -3.541  20.982 -28.373  1.00  0.00     0.177 A 
HETATM    2  N4  UNL     1      -3.595  21.958 -27.417  1.00  0.00    -0.321 N 
ATOM      3  H4  UNL     1      -2.796  22.441 -27.006  1.00  0.00     0.169 HD
HETATM    4  C4  UNL     1      -4.887  22.166 -27.116  1.00  0.00     0.161 A 
HETATM    5  C5  UNL     1      -5.660  21.319 -27.884  1.00  0.00     0.124 A 
HETATM    6  N5  UNL     1      -4.802  20.611 -28.639  1.00  0.00    -0.332 N 
ATOM      7  H5  UNL     1      -5.071  19.897 -29.316  1.00  0.00     0.168 HD
HETATM    8  C6  UNL     1      -7.033  21.355 -27.744  1.00  0.00     0.145 A 
HETATM    9  N7  UNL     1      -7.588  22.195 -26.882  1.00  0.00    -0.175 N 
ATOM     10  H7  UNL     1      -8.603  22.224 -26.776  1.00  0.00     0.186 HD
HETATM   11  C7  UNL     1      -6.805  23.015 -26.142  1.00  0.00     0.685 A 
HETATM   12  N9  UNL     1      -5.467  23.027 -26.230  1.00  0.00    -0.115 N 
ENDROOT
BRANCH  12  13
HETATM   13  C8  UNL     1      -4.617  23.899 -25.445  1.00  0.00     0.397 C 
HETATM   14  O2  UNL     1      -3.374  23.325 -25.194  1.00  0.00    -0.333 OA
HETATM   15  C9  UNL     1      -2.926  23.859 -23.994  1.00  0.00     0.180 C 
HETATM   16  C11 UNL     1      -4.172  24.326 -23.310  1.00  0.00     0.177 C 
HETATM   17  O5  UNL     1      -5.207  24.126 -24.210  1.00  0.00    -0.333 OA
BRANCH  15  18
HETATM   18  C10 UNL     1      -1.969  24.979 -24.313  1.00  0.00     0.199 C 
BRANCH  18  19
HETATM   19  O3  UNL     1      -1.127  24.511 -25.339  1.00  0.00    -0.398 OA
ATOM     20  H3  UNL     1      -1.537  24.755 -26.161  1.00  0.00     0.209 HD
ENDBRANCH  18  19
ENDBRANCH  15  18
BRANCH  16  21
HETATM   21  C12 UNL     1      -4.145  25.789 -22.948  1.00  0.00     0.184 C 
BRANCH  21  22
HETATM   22  N10 UNL     1      -5.353  26.068 -22.201  1.00  0.00    -0.285 N 
HETATM   23  C13 UNL     1      -5.612  25.855 -20.913  1.00  0.00     0.140 A 
HETATM   24  C14 UNL     1      -6.892  26.284 -20.674  1.00  0.00     0.067 A 
HETATM   25  N11 UNL     1      -7.374  26.751 -21.848  1.00  0.00    -0.287 N 
HETATM   26  N12 UNL     1      -6.425  26.606 -22.740  1.00  0.00    -0.241 N 
ATOM     27  H11 UNL     1      -8.302  27.144 -22.009  1.00  0.00     0.188 HD
ATOM     28  H12 UNL     1      -6.507  26.874 -23.721  1.00  0.00     0.208 HD
BRANCH  24  29
HETATM   29  C15 UNL     1      -7.674  26.275 -19.402  1.00  0.00     0.224 C 
BRANCH  29  30
HETATM   30  O4  UNL     1      -8.005  24.999 -19.016  1.00  0.00    -0.395 OA
ATOM     31  H4  UNL     1      -8.862  24.964 -18.608  1.00  0.00     0.209 HD
ENDBRANCH  29  30
ENDBRANCH  24  29
ENDBRANCH  21  22
ENDBRANCH  16  21
ENDBRANCH  12  13
BRANCH  11  32
HETATM   32  N8  UNL     1      -7.341  23.846 -25.289  1.00  0.00    -0.234 N 
ATOM     33  H82 UNL     1      -7.070  23.735 -24.312  1.00  0.00     0.174 HD
ATOM     34  H81 UNL     1      -7.996  24.560 -25.608  1.00  0.00     0.174 HD
ENDBRANCH  11  32
BRANCH   1  35
HETATM   35  C2  UNL     1      -2.364  20.429 -29.003  1.00  0.00     0.292 C 
HETATM   36  N3  UNL     1      -1.039  20.741 -28.567  1.00  0.00    -0.295 N 
HETATM   37  C1  UNL     1       0.102  20.196 -29.187  1.00  0.00     0.188 C 
ATOM     38  H3  UNL     1      -0.916  21.379 -27.780  1.00  0.00     0.171 HD
HETATM   39  N1  UNL     1       1.283  20.491 -28.776  1.00  0.00    -0.373 N 
HETATM   40  N2  UNL     1      -0.012  19.301 -30.290  1.00  0.00    -0.064 NA
ATOM     41  H12 UNL     1       2.109  20.097 -29.225  1.00  0.00     0.158 HD
ATOM     42  H11 UNL     1       1.364  21.131 -27.986  1.00  0.00     0.158 HD
HETATM   43  O1  UNL     1      -2.503  19.645 -29.970  1.00  0.00    -0.264 OA
ENDBRANCH   1  35
BRANCH   8  44
HETATM   44  N6  UNL     1      -7.742  20.553 -28.474  1.00  0.00    -0.383 N 
ATOM     45  H62 UNL     1      -7.911  20.731 -29.464  1.00  0.00     0.157 HD
ATOM     46  H61 UNL     1      -8.136  19.723 -28.031  1.00  0.00     0.157 HD
ENDBRANCH   8  44
TORSDOF 10
ENDMDL
MODEL 3
REMARK VINA RESULT: -7.254611919      2.435      2.708
REMARK  10 active torsions:
REMARK  status: ('A' for Active; 'I' for Inactive)
REMARK       I    between atoms: C1_4  and  N3_6 
REMARK       I    between atoms: N3_6  and  C2_8 
REMARK    1  A    between atoms: C2_8  and  C3_10 
REMARK    2  A    between atoms: C6_17  and  N6_18 
REMARK    3  A    between atoms: C7_23  and  N8_24 
REMARK    4  A    between atoms: N9_27  and  C8_28 
REMARK    5  A    between atoms: C9_30  and  C10_31 
REMARK    6  A    between atoms: C10_31  and  O3_32 
REMARK    7  A    between atoms: C11_34  and  C12_35 
REMARK    8  A    between atoms: C12_35  and  N10_36 
REMARK    9  A    between atoms: C14_38  and  C15_39 
REMARK   10  A    between atoms: C15_39  and  O4_40 
ROOT
HETATM    1  C3  UNL     1      -3.801  21.065 -28.433  1.00  0.00     0.177 A 
HETATM    2  N4  UNL     1      -3.877  22.030 -27.468  1.00  0.00    -0.321 N 
ATOM      3  H4  UNL     1      -3.091  22.539 -27.064  1.00  0.00     0.169 HD
HETATM    4  C4  UNL     1      -5.171  22.187 -27.146  1.00  0.00     0.161 A 
HETATM    5  C5  UNL     1      -5.924  21.318 -27.910  1.00  0.00     0.124 A 
HETATM    6  N5  UNL     1      -5.051  20.649 -28.684  1.00  0.00    -0.332 N 
ATOM      7  H5  UNL     1      -5.303  19.931 -29.363  1.00  0.00     0.168 HD
HETATM    8  C6  UNL     1      -7.295  21.302 -27.750  1.00  0.00     0.145 A 
HETATM    9  N7  UNL     1      -7.868  22.113 -26.872  1.00  0.00    -0.175 N 
ATOM     10  H7  UNL     1      -8.881  22.103 -26.751  1.00  0.00     0.186 HD
HETATM   11  C7  UNL     1      -7.105  22.955 -26.136  1.00  0.00     0.685 A 
HETATM   12  N9  UNL     1      -5.769  23.019 -26.244  1.00  0.00    -0.115 N 
ENDROOT
BRANCH  12  13
HETATM   13  C8  UNL     1      -4.941  23.914 -25.463  1.00  0.00     0.397 C 
HETATM   14  O2  UNL     1      -4.765  23.457 -24.161  1.00  0.00    -0.333 OA
HETATM   15  C9  UNL     1      -4.566  24.580 -23.370  1.00  0.00     0.180 C 
HETATM   16  C11 UNL     1      -5.172  25.699 -24.159  1.00  0.00     0.177 C 
HETATM   17  O5  UNL     1      -5.562  25.151 -25.371  1.00  0.00    -0.333 OA
BRANCH  15  18
HETATM   18  C10 UNL     1      -3.083  24.740 -23.155  1.00  0.00     0.199 C 
BRANCH  18  19
HETATM   19  O3  UNL     1      -2.620  23.526 -22.613  1.00  0.00    -0.398 OA
ATOM     20  H3  UNL     1      -2.721  22.868 -23.290  1.00  0.00     0.209 HD
ENDBRANCH  18  19
ENDBRANCH  15  18
BRANCH  16  21
HETATM   21  C12 UNL     1      -4.207  26.822 -24.444  1.00  0.00     0.184 C 
BRANCH  21  22
HETATM   22  N10 UNL     1      -4.995  27.994 -24.758  1.00  0.00    -0.285 N 
HETATM   23  C13 UNL     1      -5.337  29.011 -23.971  1.00  0.00     0.140 A 
HETATM   24  C14 UNL     1      -6.087  29.878 -24.723  1.00  0.00     0.067 A 
HETATM   25  N11 UNL     1      -6.175  29.346 -25.963  1.00  0.00    -0.287 N 
HETATM   26  N12 UNL     1      -5.510  28.218 -25.947  1.00  0.00    -0.241 N 
ATOM     27  H11 UNL     1      -6.668  29.748 -26.761  1.00  0.00     0.188 HD
ATOM     28  H12 UNL     1      -5.405  27.596 -26.749  1.00  0.00     0.208 HD
BRANCH  24  29
HETATM   29  C15 UNL     1      -6.718  31.173 -24.330  1.00  0.00     0.224 C 
BRANCH  29  30
HETATM   30  O4  UNL     1      -8.020  31.005 -23.925  1.00  0.00    -0.395 OA
ATOM     31  H4  UNL     1      -8.626  31.049 -24.655  1.00  0.00     0.209 HD
ENDBRANCH  29  30
ENDBRANCH  24  29
ENDBRANCH  21  22
ENDBRANCH  16  21
ENDBRANCH  12  13
BRANCH  11  32
HETATM   32  N8  UNL     1      -7.659  23.759 -25.268  1.00  0.00    -0.234 N 
ATOM     33  H82 UNL     1      -7.745  23.409 -24.314  1.00  0.00     0.174 HD
ATOM     34  H81 UNL     1      -7.981  24.683 -25.555  1.00  0.00     0.174 HD
ENDBRANCH  11  32
BRANCH   1  35
HETATM   35  C2  UNL     1      -2.614  20.561 -29.085  1.00  0.00     0.292 C 
HETATM   36  N3  UNL     1      -2.648  19.480 -30.020  1.00  0.00    -0.295 N 
HETATM   37  C1  UNL     1      -1.484  18.998 -30.650  1.00  0.00     0.188 C 
ATOM     38  H3  UNL     1      -3.544  19.044 -30.237  1.00  0.00     0.171 HD
HETATM   39  N1  UNL     1      -1.541  18.025 -31.487  1.00  0.00    -0.373 N 
HETATM   40  N2  UNL     1      -0.206  19.569 -30.382  1.00  0.00    -0.064 NA
ATOM     41  H12 UNL     1      -0.699  17.675 -31.944  1.00  0.00     0.158 HD
ATOM     42  H11 UNL     1      -2.455  17.616 -31.679  1.00  0.00     0.158 HD
HETATM   43  O1  UNL     1      -1.508  21.089 -28.825  1.00  0.00    -0.264 OA
ENDBRANCH   1  35
BRANCH   8  44
HETATM   44  N6  UNL     1      -7.984  20.480 -28.477  1.00  0.00    -0.383 N 
ATOM     45  H62 UNL     1      -8.107  19.502 -28.215  1.00  0.00     0.157 HD
ATOM     46  H61 UNL     1      -8.410  20.837 -29.332  1.00  0.00     0.157 HD
ENDBRANCH   8  44
TORSDOF 10
ENDMDL
MODEL 4
REMARK VINA RESULT: -7.210602450      5.282     10.168
REMARK  10 active torsions:
REMARK  status: ('A' for Active; 'I' for Inactive)
REMARK       I    between atoms: C1_4  and  N3_6 
REMARK       I    between atoms: N3_6  and  C2_8 
REMARK    1  A    between atoms: C2_8  and  C3_10 
REMARK    2  A    between atoms: C6_17  and  N6_18 
REMARK    3  A    between atoms: C7_23  and  N8_24 
REMARK    4  A    between atoms: N9_27  and  C8_28 
REMARK    5  A    between atoms: C9_30  and  C10_31 
REMARK    6  A    between atoms: C10_31  and  O3_32 
REMARK    7  A    between atoms: C11_34  and  C12_35 
REMARK    8  A    between atoms: C12_35  and  N10_36 
REMARK    9  A    between atoms: C14_38  and  C15_39 
REMARK   10  A    between atoms: C15_39  and  O4_40 
ROOT
HETATM    1  C3  UNL     1      -5.684  27.694 -21.319  1.00  0.00     0.177 A 
HETATM    2  N4  UNL     1      -5.964  27.905 -19.997  1.00  0.00    -0.321 N 
ATOM      3  H4  UNL     1      -6.107  27.184 -19.290  1.00  0.00     0.169 HD
HETATM    4  C4  UNL     1      -6.016  29.232 -19.797  1.00  0.00     0.161 A 
HETATM    5  C5  UNL     1      -5.769  29.869 -20.996  1.00  0.00     0.124 A 
HETATM    6  N5  UNL     1      -5.571  28.895 -21.902  1.00  0.00    -0.332 N 
ATOM      7  H5  UNL     1      -5.365  29.049 -22.889  1.00  0.00     0.168 HD
HETATM    8  C6  UNL     1      -5.772  31.249 -21.034  1.00  0.00     0.145 A 
HETATM    9  N7  UNL     1      -6.011  31.940 -19.928  1.00  0.00    -0.175 N 
ATOM     10  H7  UNL     1      -6.014  32.960 -19.953  1.00  0.00     0.186 HD
HETATM   11  C7  UNL     1      -6.250  31.289 -18.766  1.00  0.00     0.685 A 
HETATM   12  N9  UNL     1      -6.262  29.952 -18.663  1.00  0.00    -0.115 N 
ENDROOT
BRANCH  12  13
HETATM   13  C8  UNL     1      -6.516  29.243 -17.427  1.00  0.00     0.397 C 
HETATM   14  O2  UNL     1      -6.361  27.867 -17.574  1.00  0.00    -0.333 OA
HETATM   15  C9  UNL     1      -7.200  27.272 -16.643  1.00  0.00     0.180 C 
HETATM   16  C11 UNL     1      -8.224  28.321 -16.344  1.00  0.00     0.177 C 
HETATM   17  O5  UNL     1      -7.829  29.456 -17.035  1.00  0.00    -0.333 OA
BRANCH  15  18
HETATM   18  C10 UNL     1      -6.368  26.896 -15.443  1.00  0.00     0.199 C 
BRANCH  18  19
HETATM   19  O3  UNL     1      -5.148  26.397 -15.938  1.00  0.00    -0.398 OA
ATOM     20  H3  UNL     1      -4.469  26.990 -15.639  1.00  0.00     0.209 HD
ENDBRANCH  18  19
ENDBRANCH  15  18
BRANCH  16  21
HETATM   21  C12 UNL     1      -8.313  28.673 -14.881  1.00  0.00     0.184 C 
BRANCH  21  22
HETATM   22  N10 UNL     1      -9.577  29.348 -14.678  1.00  0.00    -0.285 N 
HETATM   23  C13 UNL     1      -9.874  30.636 -14.831  1.00  0.00     0.140 A 
HETATM   24  C14 UNL     1     -11.200  30.792 -14.521  1.00  0.00     0.067 A 
HETATM   25  N11 UNL     1     -11.669  29.569 -14.184  1.00  0.00    -0.287 N 
HETATM   26  N12 UNL     1     -10.670  28.730 -14.290  1.00  0.00    -0.241 N 
ATOM     27  H11 UNL     1     -12.623  29.343 -13.901  1.00  0.00     0.188 HD
ATOM     28  H12 UNL     1     -10.730  27.730 -14.096  1.00  0.00     0.208 HD
BRANCH  24  29
HETATM   29  C15 UNL     1     -12.037  32.028 -14.527  1.00  0.00     0.224 C 
BRANCH  29  30
HETATM   30  O4  UNL     1     -13.219  31.849 -13.850  1.00  0.00    -0.395 OA
ATOM     31  H4  UNL     1     -13.965  31.842 -14.437  1.00  0.00     0.209 HD
ENDBRANCH  29  30
ENDBRANCH  24  29
ENDBRANCH  21  22
ENDBRANCH  16  21
ENDBRANCH  12  13
BRANCH  11  32
HETATM   32  N8  UNL     1      -6.486  31.960 -17.671  1.00  0.00    -0.234 N 
ATOM     33  H82 UNL     1      -6.917  32.878 -17.783  1.00  0.00     0.174 HD
ATOM     34  H81 UNL     1      -6.241  31.566 -16.762  1.00  0.00     0.174 HD
ENDBRANCH  11  32
BRANCH   1  35
HETATM   35  C2  UNL     1      -5.532  26.426 -21.995  1.00  0.00     0.292 C 
HETATM   36  N3  UNL     1      -6.000  26.203 -23.327  1.00  0.00    -0.295 N 
HETATM   37  C1  UNL     1      -5.845  24.963 -23.978  1.00  0.00     0.188 C 
ATOM     38  H3  UNL     1      -6.460  26.966 -23.823  1.00  0.00     0.171 HD
HETATM   39  N1  UNL     1      -6.274  24.787 -25.176  1.00  0.00    -0.373 N 
HETATM   40  N2  UNL     1      -5.210  23.862 -23.332  1.00  0.00    -0.064 NA
ATOM     41  H12 UNL     1      -6.162  23.890 -25.648  1.00  0.00     0.158 HD
ATOM     42  H11 UNL     1      -6.728  25.575 -25.638  1.00  0.00     0.158 HD
HETATM   43  O1  UNL     1      -4.968  25.482 -21.396  1.00  0.00    -0.264 OA
ENDBRANCH   1  35
BRANCH   8  44
HETATM   44  N6  UNL     1      -5.537  31.829 -22.169  1.00  0.00    -0.383 N 
ATOM     45  H62 UNL     1      -4.710  32.405 -22.319  1.00  0.00     0.157 HD
ATOM     46  H61 UNL     1      -6.210  31.695 -22.924  1.00  0.00     0.157 HD
ENDBRANCH   8  44
TORSDOF 10
ENDMDL
MODEL 5
REMARK VINA RESULT: -7.210520908      5.971     10.601
REMARK  10 active torsions:
REMARK  status: ('A' for Active; 'I' for Inactive)
REMARK       I    between atoms: C1_4  and  N3_6 
REMARK       I    between atoms: N3_6  and  C2_8 
REMARK    1  A    between atoms: C2_8  and  C3_10 
REMARK    2  A    between atoms: C6_17  and  N6_18 
REMARK    3  A    between atoms: C7_23  and  N8_24 
REMARK    4  A    between atoms: N9_27  and  C8_28 
REMARK    5  A    between atoms: C9_30  and  C10_31 
REMARK    6  A    between atoms: C10_31  and  O3_32 
REMARK    7  A    between atoms: C11_34  and  C12_35 
REMARK    8  A    between atoms: C12_35  and  N10_36 
REMARK    9  A    between atoms: C14_38  and  C15_39 
REMARK   10  A    between atoms: C15_39  and  O4_40 
ROOT
HETATM    1  C3  UNL     1      -5.752  27.658 -20.292  1.00  0.00     0.177 A 
HETATM    2  N4  UNL     1      -5.866  27.830 -18.941  1.00  0.00    -0.321 N 
ATOM      3  H4  UNL     1      -5.909  27.088 -18.242  1.00  0.00     0.169 HD
HETATM    4  C4  UNL     1      -5.913  29.150 -18.698  1.00  0.00     0.161 A 
HETATM    5  C5  UNL     1      -5.827  29.822 -19.901  1.00  0.00     0.124 A 
HETATM    6  N5  UNL     1      -5.730  28.876 -20.851  1.00  0.00    -0.332 N 
ATOM      7  H5  UNL     1      -5.652  29.059 -21.851  1.00  0.00     0.168 HD
HETATM    8  C6  UNL     1      -5.855  31.202 -19.899  1.00  0.00     0.145 A 
HETATM    9  N7  UNL     1      -5.962  31.861 -18.753  1.00  0.00    -0.175 N 
ATOM     10  H7  UNL     1      -5.984  32.881 -18.749  1.00  0.00     0.186 HD
HETATM   11  C7  UNL     1      -6.044  31.175 -17.589  1.00  0.00     0.685 A 
HETATM   12  N9  UNL     1      -6.024  29.835 -17.523  1.00  0.00    -0.115 N 
ENDROOT
BRANCH  12  13
HETATM   13  C8  UNL     1      -6.110  29.090 -16.285  1.00  0.00     0.397 C 
HETATM   14  O2  UNL     1      -5.191  28.046 -16.240  1.00  0.00    -0.333 OA
HETATM   15  C9  UNL     1      -5.741  27.068 -15.424  1.00  0.00     0.180 C 
HETATM   16  C11 UNL     1      -7.210  27.348 -15.451  1.00  0.00     0.177 C 
HETATM   17  O5  UNL     1      -7.369  28.517 -16.179  1.00  0.00    -0.333 OA
BRANCH  15  18
HETATM   18  C10 UNL     1      -5.133  27.212 -14.053  1.00  0.00     0.199 C 
BRANCH  18  19
HETATM   19  O3  UNL     1      -3.777  26.854 -14.172  1.00  0.00    -0.398 OA
ATOM     20  H3  UNL     1      -3.631  26.134 -13.571  1.00  0.00     0.209 HD
ENDBRANCH  18  19
ENDBRANCH  15  18
BRANCH  16  21
HETATM   21  C12 UNL     1      -7.803  27.568 -14.082  1.00  0.00     0.184 C 
BRANCH  21  22
HETATM   22  N10 UNL     1      -9.051  28.277 -14.265  1.00  0.00    -0.285 N 
HETATM   23  C13 UNL     1      -9.416  29.468 -13.795  1.00  0.00     0.140 A 
HETATM   24  C14 UNL     1     -10.691  29.711 -14.237  1.00  0.00     0.067 A 
HETATM   25  N11 UNL     1     -11.061  28.639 -14.973  1.00  0.00    -0.287 N 
HETATM   26  N12 UNL     1     -10.055  27.801 -14.967  1.00  0.00    -0.241 N 
ATOM     27  H11 UNL     1     -11.956  28.508 -15.445  1.00  0.00     0.188 HD
ATOM     28  H12 UNL     1     -10.050  26.899 -15.444  1.00  0.00     0.208 HD
BRANCH  24  29
HETATM   29  C15 UNL     1     -11.567  30.897 -14.000  1.00  0.00     0.224 C 
BRANCH  29  30
HETATM   30  O4  UNL     1     -12.525  30.642 -13.050  1.00  0.00    -0.395 OA
ATOM     31  H4  UNL     1     -12.171  30.688 -12.170  1.00  0.00     0.209 HD
ENDBRANCH  29  30
ENDBRANCH  24  29
ENDBRANCH  21  22
ENDBRANCH  16  21
ENDBRANCH  12  13
BRANCH  11  32
HETATM   32  N8  UNL     1      -6.150  31.813 -16.454  1.00  0.00    -0.234 N 
ATOM     33  H82 UNL     1      -5.594  32.663 -16.356  1.00  0.00     0.174 HD
ATOM     34  H81 UNL     1      -6.763  31.460 -15.720  1.00  0.00     0.174 HD
ENDBRANCH  11  32
BRANCH   1  35
HETATM   35  C2  UNL     1      -5.668  26.411 -21.018  1.00  0.00     0.292 C 
HETATM   36  N3  UNL     1      -4.437  25.908 -21.543  1.00  0.00    -0.295 N 
HETATM   37  C1  UNL     1      -4.365  24.691 -22.248  1.00  0.00     0.188 C 
ATOM     38  H3  UNL     1      -3.583  26.449 -21.402  1.00  0.00     0.171 HD
HETATM   39  N1  UNL     1      -3.247  24.259 -22.710  1.00  0.00    -0.373 N 
HETATM   40  N2  UNL     1      -5.527  23.897 -22.475  1.00  0.00    -0.064 NA
ATOM     41  H12 UNL     1      -3.194  23.378 -23.221  1.00  0.00     0.158 HD
ATOM     42  H11 UNL     1      -2.415  24.828 -22.548  1.00  0.00     0.158 HD
HETATM   43  O1  UNL     1      -6.710  25.740 -21.197  1.00  0.00    -0.264 OA
ENDBRANCH   1  35
BRANCH   8  44
HETATM   44  N6  UNL     1      -5.773  31.815 -21.038  1.00  0.00    -0.383 N 
ATOM     45  H62 UNL     1      -6.169  32.744 -21.180  1.00  0.00     0.157 HD
ATOM     46  H61 UNL     1      -5.295  31.342 -21.805  1.00  0.00     0.157 HD
ENDBRANCH   8  44
TORSDOF 10
ENDMDL
