MODEL 1
REMARK VINA RESULT: -7.252125255      0.000      0.000
REMARK  11 active torsions:
REMARK  status: ('A' for Active; 'I' for Inactive)
REMARK    1  A    between atoms: N1_1  and  C1_4 
REMARK    2  A    between atoms: C3_8  and  C4_9 
REMARK    3  A    between atoms: N5_14  and  C5_15 
REMARK    4  A    between atoms: C6_19  and  C7_20 
REMARK    5  A    between atoms: C7_20  and  O1_21 
REMARK    6  A    between atoms: C8_23  and  O2_24 
REMARK    7  A    between atoms: C9_26  and  N7_27 
REMARK    8  A    between atoms: N7_27  and  N8_29 
REMARK    9  A    between atoms: N8_29  and  N9_31 
REMARK   10  A    between atoms: N9_31  and  C10_32 
REMARK   11  A    between atoms: N10_34  and  N11_35 
ROOT
HETATM    1  C4  UNL     1      -7.941  29.666 -14.270  1.00  0.00     0.113 A 
HETATM    2  N3  UNL     1      -6.780  30.301 -13.903  1.00  0.00    -0.281 N 
ATOM      3  H3  UNL     1      -6.700  31.271 -13.595  1.00  0.00     0.188 HD
HETATM    4  N4  UNL     1      -5.787  29.440 -14.016  1.00  0.00    -0.236 N 
ATOM      5  H4  UNL     1      -4.811  29.650 -13.809  1.00  0.00     0.208 HD
HETATM    6  N5  UNL     1      -6.233  28.266 -14.438  1.00  0.00    -0.224 N 
HETATM    7  C9  UNL     1      -7.536  28.364 -14.609  1.00  0.00     0.172 A 
ENDROOT
BRANCH   7   8
HETATM    8  N7  UNL     1      -8.460  27.371 -15.126  1.00  0.00    -0.257 N 
ATOM      9  H7  UNL     1      -8.863  26.617 -14.570  1.00  0.00     0.191 HD
BRANCH   8  10
HETATM   10  N8  UNL     1      -8.740  27.587 -16.535  1.00  0.00    -0.173 N 
ATOM     11  H8  UNL     1      -9.666  27.972 -16.723  1.00  0.00     0.223 HD
BRANCH  10  12
HETATM   12  N9  UNL     1      -8.161  27.418 -17.395  1.00  0.00    -0.303 NA
BRANCH  12  13
HETATM   13  C10 UNL     1      -7.400  27.204 -18.595  1.00  0.00     0.218 A 
HETATM   14  C11 UNL     1      -6.681  28.220 -19.081  1.00  0.00     0.173 A 
HETATM   15  N10 UNL     1      -5.963  28.195 -20.170  1.00  0.00    -0.220 N 
HETATM   16  C12 UNL     1      -5.941  27.001 -20.899  1.00  0.00     0.347 A 
HETATM   17  O3  UNL     1      -5.271  26.924 -21.933  1.00  0.00    -0.245 OA
HETATM   18  N12 UNL     1      -6.710  25.945 -20.375  1.00  0.00    -0.271 N 
HETATM   19  C13 UNL     1      -7.411  25.992 -19.301  1.00  0.00     0.293 A 
ATOM     20  H12 UNL     1      -6.711  25.066 -20.893  1.00  0.00     0.174 HD
HETATM   21  O4  UNL     1      -8.133  25.040 -18.805  1.00  0.00    -0.264 OA
BRANCH  15  22
HETATM   22  N11 UNL     1      -5.208  29.302 -20.600  1.00  0.00    -0.335 N 
ATOM     23 2H11 UNL     1      -5.664  30.197 -20.778  1.00  0.00     0.177 HD
ATOM     24 1H11 UNL     1      -4.203  29.247 -20.767  1.00  0.00     0.177 HD
ENDBRANCH  15  22
ENDBRANCH  12  13
ENDBRANCH  10  12
ENDBRANCH   8  10
ENDBRANCH   7   8
BRANCH   1  25
HETATM   25  C3  UNL     1      -9.283  30.206 -14.160  1.00  0.00     0.080 A 
HETATM   26  C2  UNL     1     -10.044  30.222 -13.052  1.00  0.00     0.125 A 
HETATM   27  N2  UNL     1     -11.296  30.740 -12.999  1.00  0.00    -0.201 N 
HETATM   28  C1  UNL     1     -11.801  31.288 -14.208  1.00  0.00     0.678 A 
ATOM     29  H2  UNL     1     -11.845  30.738 -12.139  1.00  0.00     0.183 HD
HETATM   30  N13 UNL     1     -11.067  31.273 -15.290  1.00  0.00    -0.156 N 
HETATM   31  C14 UNL     1      -9.806  30.752 -15.342  1.00  0.00     0.273 A 
ATOM     32  H13 UNL     1     -11.458  31.672 -16.143  1.00  0.00     0.187 HD
HETATM   33  O5  UNL     1      -9.187  30.790 -16.416  1.00  0.00    -0.267 OA
BRANCH  28  34
HETATM   34  N1  UNL     1     -12.962  31.757 -14.079  1.00  0.00    -0.234 N 
ATOM     35  H12 UNL     1     -13.246  32.559 -13.516  1.00  0.00     0.174 HD
ATOM     36  H11 UNL     1     -13.657  31.235 -14.612  1.00  0.00     0.174 HD
ENDBRANCH  28  34
ENDBRANCH   1  25
BRANCH   6  37
HETATM   37  C5  UNL     1      -5.380  27.061 -14.593  1.00  0.00     0.341 A 
HETATM   38  N6  UNL     1      -5.136  26.774 -15.981  1.00  0.00    -0.041 N 
HETATM   39  C6  UNL     1      -3.800  27.226 -15.884  1.00  0.00     0.244 A 
ATOM     40  H62 UNL     1      -5.320  25.836 -16.336  1.00  0.00     0.280 HD
ATOM     41  H61 UNL     1      -5.749  27.179 -16.689  1.00  0.00     0.280 HD
HETATM   42  C8  UNL     1      -3.949  27.498 -14.435  1.00  0.00     0.203 A 
BRANCH  39  43
HETATM   43  C7  UNL     1      -2.698  26.229 -16.212  1.00  0.00     0.200 C 
BRANCH  43  44
HETATM   44  O1  UNL     1      -2.241  26.481 -17.524  1.00  0.00    -0.399 OA
ATOM     45  H1  UNL     1      -2.759  25.962 -18.129  1.00  0.00     0.209 HD
ENDBRANCH  43  44
ENDBRANCH  39  43
BRANCH  42  46
HETATM   46  O2  UNL     1      -3.159  26.748 -13.571  1.00  0.00    -0.389 OA
ATOM     47  H2  UNL     1      -2.370  27.165 -13.244  1.00  0.00     0.210 HD
ENDBRANCH  42  46
ENDBRANCH   6  37
TORSDOF 11
ENDMDL
MODEL 2
REMARK VINA RESULT: -7.062835492      1.643      1.979
REMARK  11 active torsions:
REMARK  status: ('A' for Active; 'I' for Inactive)
REMARK    1  A    between atoms: N1_1  and  C1_4 
REMARK    2  A    between atoms: C3_8  and  C4_9 
REMARK    3  A    between atoms: N5_14  and  C5_15 
REMARK    4  A    between atoms: C6_19  and  C7_20 
REMARK    5  A    between atoms: C7_20  and  O1_21 
REMARK    6  A    between atoms: C8_23  and  O2_24 
REMARK    7  A    between atoms: C9_26  and  N7_27 
REMARK    8  A    between atoms: N7_27  and  N8_29 
REMARK    9  A    between atoms: N8_29  and  N9_31 
REMARK   10  A    between atoms: N9_31  and  C10_32 
REMARK   11  A    between atoms: N10_34  and  N11_35 
ROOT
HETATM    1  C4  UNL     1      -7.844  29.139 -14.105  1.00  0.00     0.113 A 
HETATM    2  N3  UNL     1      -7.469  28.026 -13.393  1.00  0.00    -0.281 N 
ATOM      3  H3  UNL     1      -8.008  27.583 -12.648  1.00  0.00     0.188 HD
HETATM    4  N4  UNL     1      -6.292  27.631 -13.837  1.00  0.00    -0.236 N 
ATOM      5  H4  UNL     1      -5.776  26.826 -13.481  1.00  0.00     0.208 HD
HETATM    6  N5  UNL     1      -5.870  28.425 -14.811  1.00  0.00    -0.224 N 
HETATM    7  C9  UNL     1      -6.783  29.356 -15.000  1.00  0.00     0.172 A 
ENDROOT
BRANCH   7   8
HETATM    8  N7  UNL     1      -6.746  30.493 -15.902  1.00  0.00    -0.257 N 
ATOM      9  H7  UNL     1      -6.362  31.406 -15.660  1.00  0.00     0.191 HD
BRANCH   8  10
HETATM   10  N8  UNL     1      -7.325  30.167 -17.194  1.00  0.00    -0.173 N 
ATOM     11  H8  UNL     1      -7.990  30.859 -17.540  1.00  0.00     0.223 HD
BRANCH  10  12
HETATM   12  N9  UNL     1      -7.182  29.348 -17.836  1.00  0.00    -0.303 NA
BRANCH  12  13
HETATM   13  C10 UNL     1      -6.965  28.208 -18.683  1.00  0.00     0.218 A 
HETATM   14  C11 UNL     1      -6.115  28.328 -19.706  1.00  0.00     0.173 A 
HETATM   15  N10 UNL     1      -5.833  27.400 -20.578  1.00  0.00    -0.220 N 
HETATM   16  C12 UNL     1      -6.475  26.166 -20.435  1.00  0.00     0.347 A 
HETATM   17  O3  UNL     1      -6.237  25.252 -21.229  1.00  0.00    -0.245 OA
HETATM   18  N12 UNL     1      -7.372  26.060 -19.355  1.00  0.00    -0.271 N 
HETATM   19  C13 UNL     1      -7.636  26.988 -18.509  1.00  0.00     0.293 A 
ATOM     20  H12 UNL     1      -7.854  25.169 -19.235  1.00  0.00     0.174 HD
HETATM   21  O4  UNL     1      -8.463  26.919 -17.516  1.00  0.00    -0.264 OA
BRANCH  15  22
HETATM   22  N11 UNL     1      -4.900  27.598 -21.614  1.00  0.00    -0.335 N 
ATOM     23 2H11 UNL     1      -5.007  28.381 -22.258  1.00  0.00     0.177 HD
ATOM     24 1H11 UNL     1      -4.113  26.968 -21.767  1.00  0.00     0.177 HD
ENDBRANCH  15  22
ENDBRANCH  12  13
ENDBRANCH  10  12
ENDBRANCH   8  10
ENDBRANCH   7   8
BRANCH   1  25
HETATM   25  C3  UNL     1      -9.130  29.808 -14.032  1.00  0.00     0.080 A 
HETATM   26  C2  UNL     1      -9.333  31.109 -13.762  1.00  0.00     0.125 A 
HETATM   27  N2  UNL     1     -10.558  31.689 -13.705  1.00  0.00    -0.201 N 
HETATM   28  C1  UNL     1     -11.668  30.838 -13.948  1.00  0.00     0.678 A 
ATOM     29  H2  UNL     1     -10.675  32.681 -13.500  1.00  0.00     0.183 HD
HETATM   30  N13 UNL     1     -11.477  29.571 -14.207  1.00  0.00    -0.156 N 
HETATM   31  C14 UNL     1     -10.244  28.988 -14.266  1.00  0.00     0.273 A 
ATOM     32  H13 UNL     1     -12.295  28.984 -14.376  1.00  0.00     0.187 HD
HETATM   33  O5  UNL     1     -10.166  27.778 -14.525  1.00  0.00    -0.267 OA
BRANCH  28  34
HETATM   34  N1  UNL     1     -12.767  31.447 -13.887  1.00  0.00    -0.234 N 
ATOM     35  H12 UNL     1     -12.974  32.386 -14.227  1.00  0.00     0.174 HD
ATOM     36  H11 UNL     1     -13.496  30.898 -13.431  1.00  0.00     0.174 HD
ENDBRANCH  28  34
ENDBRANCH   1  25
BRANCH   6  37
HETATM   37  C5  UNL     1      -4.618  28.205 -15.577  1.00  0.00     0.341 A 
HETATM   38  N6  UNL     1      -3.499  28.009 -14.695  1.00  0.00    -0.041 N 
HETATM   39  C6  UNL     1      -3.457  26.626 -14.987  1.00  0.00     0.244 A 
ATOM     40  H62 UNL     1      -2.658  28.572 -14.824  1.00  0.00     0.280 HD
ATOM     41  H61 UNL     1      -3.571  28.312 -13.724  1.00  0.00     0.280 HD
HETATM   42  C8  UNL     1      -4.569  26.750 -15.956  1.00  0.00     0.203 A 
BRANCH  39  43
HETATM   43  C7  UNL     1      -2.172  26.078 -15.592  1.00  0.00     0.200 C 
BRANCH  43  44
HETATM   44  O1  UNL     1      -1.163  26.106 -14.604  1.00  0.00    -0.399 OA
ATOM     45  H1  UNL     1      -0.337  25.869 -15.010  1.00  0.00     0.209 HD
ENDBRANCH  43  44
ENDBRANCH  39  43
BRANCH  42  46
HETATM   46  O2  UNL     1      -4.281  26.461 -17.285  1.00  0.00    -0.389 OA
ATOM     47  H2  UNL     1      -3.362  26.436 -17.526  1.00  0.00     0.210 HD
ENDBRANCH  42  46
ENDBRANCH   6  37
TORSDOF 11
ENDMDL
MODEL 3
REMARK VINA RESULT: -6.938631296      0.824      1.173
REMARK  11 active torsions:
REMARK  status: ('A' for Active; 'I' for Inactive)
REMARK    1  A    between atoms: N1_1  and  C1_4 
REMARK    2  A    between atoms: C3_8  and  C4_9 
REMARK    3  A    between atoms: N5_14  and  C5_15 
REMARK    4  A    between atoms: C6_19  and  C7_20 
REMARK    5  A    between atoms: C7_20  and  O1_21 
REMARK    6  A    between atoms: C8_23  and  O2_24 
REMARK    7  A    between atoms: C9_26  and  N7_27 
REMARK    8  A    between atoms: N7_27  and  N8_29 
REMARK    9  A    between atoms: N8_29  and  N9_31 
REMARK   10  A    between atoms: N9_31  and  C10_32 
REMARK   11  A    between atoms: N10_34  and  N11_35 
ROOT
HETATM    1  C4  UNL     1      -7.952  29.637 -14.292  1.00  0.00     0.113 A 
HETATM    2  N3  UNL     1      -6.810  30.216 -13.797  1.00  0.00    -0.281 N 
ATOM      3  H3  UNL     1      -6.722  31.175 -13.461  1.00  0.00     0.188 HD
HETATM    4  N4  UNL     1      -5.846  29.317 -13.832  1.00  0.00    -0.236 N 
ATOM      5  H4  UNL     1      -4.887  29.481 -13.524  1.00  0.00     0.208 HD
HETATM    6  N5  UNL     1      -6.294  28.171 -14.322  1.00  0.00    -0.224 N 
HETATM    7  C9  UNL     1      -7.569  28.326 -14.618  1.00  0.00     0.172 A 
ENDROOT
BRANCH   7   8
HETATM    8  N7  UNL     1      -8.476  27.383 -15.247  1.00  0.00    -0.257 N 
ATOM      9  H7  UNL     1      -8.924  26.606 -14.761  1.00  0.00     0.191 HD
BRANCH   8  10
HETATM   10  N8  UNL     1      -8.664  27.683 -16.655  1.00  0.00    -0.173 N 
ATOM     11  H8  UNL     1      -9.529  28.184 -16.863  1.00  0.00     0.223 HD
BRANCH  10  12
HETATM   12  N9  UNL     1      -8.071  27.479 -17.498  1.00  0.00    -0.303 NA
BRANCH  12  13
HETATM   13  C10 UNL     1      -7.292  27.213 -18.676  1.00  0.00     0.218 A 
HETATM   14  C11 UNL     1      -6.543  28.199 -19.178  1.00  0.00     0.173 A 
HETATM   15  N10 UNL     1      -5.805  28.127 -20.251  1.00  0.00    -0.220 N 
HETATM   16  C12 UNL     1      -5.793  26.911 -20.942  1.00  0.00     0.347 A 
HETATM   17  O3  UNL     1      -5.104  26.789 -21.960  1.00  0.00    -0.245 OA
HETATM   18  N12 UNL     1      -6.593  25.887 -20.402  1.00  0.00    -0.271 N 
HETATM   19  C13 UNL     1      -7.313  25.980 -19.345  1.00  0.00     0.293 A 
ATOM     20  H12 UNL     1      -6.601  24.993 -20.894  1.00  0.00     0.174 HD
HETATM   21  O4  UNL     1      -8.065  25.058 -18.834  1.00  0.00    -0.264 OA
BRANCH  15  22
HETATM   22  N11 UNL     1      -5.020  29.206 -20.699  1.00  0.00    -0.335 N 
ATOM     23 2H11 UNL     1      -5.177  29.606 -21.623  1.00  0.00     0.177 HD
ATOM     24 1H11 UNL     1      -4.267  29.603 -20.137  1.00  0.00     0.177 HD
ENDBRANCH  15  22
ENDBRANCH  12  13
ENDBRANCH  10  12
ENDBRANCH   8  10
ENDBRANCH   7   8
BRANCH   1  25
HETATM   25  C3  UNL     1      -9.277  30.231 -14.302  1.00  0.00     0.080 A 
HETATM   26  C2  UNL     1      -9.894  30.777 -15.365  1.00  0.00     0.125 A 
HETATM   27  N2  UNL     1     -11.136  31.320 -15.324  1.00  0.00    -0.201 N 
HETATM   28  C1  UNL     1     -11.791  31.296 -14.064  1.00  0.00     0.678 A 
ATOM     29  H2  UNL     1     -11.576  31.723 -16.151  1.00  0.00     0.183 HD
HETATM   30  N13 UNL     1     -11.194  30.771 -13.026  1.00  0.00    -0.156 N 
HETATM   31  C14 UNL     1      -9.945  30.222 -13.069  1.00  0.00     0.273 A 
ATOM     32  H13 UNL     1     -11.690  30.770 -12.134  1.00  0.00     0.187 HD
HETATM   33  O5  UNL     1      -9.466  29.743 -12.030  1.00  0.00    -0.267 OA
BRANCH  28  34
HETATM   34  N1  UNL     1     -12.939  31.809 -14.106  1.00  0.00    -0.234 N 
ATOM     35  H12 UNL     1     -13.212  32.682 -14.556  1.00  0.00     0.174 HD
ATOM     36  H11 UNL     1     -13.636  31.251 -13.613  1.00  0.00     0.174 HD
ENDBRANCH  28  34
ENDBRANCH   1  25
BRANCH   6  37
HETATM   37  C5  UNL     1      -5.479  26.934 -14.419  1.00  0.00     0.341 A 
HETATM   38  N6  UNL     1      -5.180  26.616 -15.790  1.00  0.00    -0.041 N 
HETATM   39  C6  UNL     1      -3.835  27.022 -15.636  1.00  0.00     0.244 A 
ATOM     40  H62 UNL     1      -5.382  25.680 -16.140  1.00  0.00     0.280 HD
ATOM     41  H61 UNL     1      -5.745  27.031 -16.532  1.00  0.00     0.280 HD
HETATM   42  C8  UNL     1      -4.041  27.322 -14.201  1.00  0.00     0.203 A 
BRANCH  39  43
HETATM   43  C7  UNL     1      -2.756  25.981 -15.898  1.00  0.00     0.200 C 
BRANCH  43  44
HETATM   44  O1  UNL     1      -2.243  26.184 -17.199  1.00  0.00    -0.399 OA
ATOM     45  H1  UNL     1      -2.972  26.220 -17.808  1.00  0.00     0.209 HD
ENDBRANCH  43  44
ENDBRANCH  39  43
BRANCH  42  46
HETATM   46  O2  UNL     1      -3.321  26.558 -13.289  1.00  0.00    -0.389 OA
ATOM     47  H2  UNL     1      -2.475  26.235 -13.578  1.00  0.00     0.210 HD
ENDBRANCH  42  46
ENDBRANCH   6  37
TORSDOF 11
ENDMDL
MODEL 4
REMARK VINA RESULT: -6.891205580      1.737      5.755
REMARK  11 active torsions:
REMARK  status: ('A' for Active; 'I' for Inactive)
REMARK    1  A    between atoms: N1_1  and  C1_4 
REMARK    2  A    between atoms: C3_8  and  C4_9 
REMARK    3  A    between atoms: N5_14  and  C5_15 
REMARK    4  A    between atoms: C6_19  and  C7_20 
REMARK    5  A    between atoms: C7_20  and  O1_21 
REMARK    6  A    between atoms: C8_23  and  O2_24 
REMARK    7  A    between atoms: C9_26  and  N7_27 
REMARK    8  A    between atoms: N7_27  and  N8_29 
REMARK    9  A    between atoms: N8_29  and  N9_31 
REMARK   10  A    between atoms: N9_31  and  C10_32 
REMARK   11  A    between atoms: N10_34  and  N11_35 
ROOT
HETATM    1  C4  UNL     1      -5.995  28.748 -14.448  1.00  0.00     0.113 A 
HETATM    2  N3  UNL     1      -5.922  29.951 -13.789  1.00  0.00    -0.281 N 
ATOM      3  H3  UNL     1      -5.085  30.523 -13.679  1.00  0.00     0.188 HD
HETATM    4  N4  UNL     1      -7.122  30.236 -13.322  1.00  0.00    -0.236 N 
ATOM      5  H4  UNL     1      -7.353  31.074 -12.788  1.00  0.00     0.208 HD
HETATM    6  N5  UNL     1      -7.986  29.284 -13.641  1.00  0.00    -0.224 N 
HETATM    7  C9  UNL     1      -7.339  28.360 -14.322  1.00  0.00     0.172 A 
ENDROOT
BRANCH   7   8
HETATM    8  N7  UNL     1      -7.834  27.091 -14.826  1.00  0.00    -0.257 N 
ATOM      9  H7  UNL     1      -7.802  26.215 -14.306  1.00  0.00     0.191 HD
BRANCH   8  10
HETATM   10  N8  UNL     1      -8.380  27.227 -16.165  1.00  0.00    -0.173 N 
ATOM     11  H8  UNL     1      -9.381  27.421 -16.189  1.00  0.00     0.223 HD
BRANCH  10  12
HETATM   12  N9  UNL     1      -7.931  27.161 -17.112  1.00  0.00    -0.303 NA
BRANCH  12  13
HETATM   13  C10 UNL     1      -7.347  27.096 -18.423  1.00  0.00     0.218 A 
HETATM   14  C11 UNL     1      -6.685  28.164 -18.879  1.00  0.00     0.173 A 
HETATM   15  N10 UNL     1      -6.125  28.272 -20.051  1.00  0.00    -0.220 N 
HETATM   16  C12 UNL     1      -6.225  27.177 -20.915  1.00  0.00     0.347 A 
HETATM   17  O3  UNL     1      -5.705  27.226 -22.035  1.00  0.00    -0.245 OA
HETATM   18  N12 UNL     1      -6.932  26.065 -20.421  1.00  0.00    -0.271 N 
HETATM   19  C13 UNL     1      -7.476  25.980 -19.263  1.00  0.00     0.293 A 
ATOM     20  H12 UNL     1      -7.019  25.256 -21.038  1.00  0.00     0.174 HD
HETATM   21  O4  UNL     1      -8.139  24.974 -18.790  1.00  0.00    -0.264 OA
BRANCH  15  22
HETATM   22  N11 UNL     1      -5.418  29.424 -20.445  1.00  0.00    -0.335 N 
ATOM     23 2H11 UNL     1      -5.435  29.730 -21.418  1.00  0.00     0.177 HD
ATOM     24 1H11 UNL     1      -4.858  29.971 -19.791  1.00  0.00     0.177 HD
ENDBRANCH  15  22
ENDBRANCH  12  13
ENDBRANCH  10  12
ENDBRANCH   8  10
ENDBRANCH   7   8
BRANCH   1  25
HETATM   25  C3  UNL     1      -4.935  28.135 -15.228  1.00  0.00     0.080 A 
HETATM   26  C2  UNL     1      -4.412  26.912 -15.032  1.00  0.00     0.125 A 
HETATM   27  N2  UNL     1      -3.421  26.382 -15.791  1.00  0.00    -0.201 N 
HETATM   28  C1  UNL     1      -2.929  27.199 -16.843  1.00  0.00     0.678 A 
ATOM     29  H2  UNL     1      -3.048  25.449 -15.616  1.00  0.00     0.183 HD
HETATM   30  N13 UNL     1      -3.432  28.390 -17.036  1.00  0.00    -0.156 N 
HETATM   31  C14 UNL     1      -4.431  28.922 -16.274  1.00  0.00     0.273 A 
ATOM     32  H13 UNL     1      -3.057  28.954 -17.800  1.00  0.00     0.187 HD
HETATM   33  O5  UNL     1      -4.845  30.061 -16.539  1.00  0.00    -0.267 OA
BRANCH  28  34
HETATM   34  N1  UNL     1      -2.020  26.637 -17.508  1.00  0.00    -0.234 N 
ATOM     35  H12 UNL     1      -1.451  25.839 -17.227  1.00  0.00     0.174 HD
ATOM     36  H11 UNL     1      -1.871  27.074 -18.417  1.00  0.00     0.174 HD
ENDBRANCH  28  34
ENDBRANCH   1  25
BRANCH   6  37
HETATM   37  C5  UNL     1      -9.437  29.343 -13.333  1.00  0.00     0.341 A 
HETATM   38  N6  UNL     1      -9.838  30.679 -12.982  1.00  0.00    -0.041 N 
HETATM   39  C6  UNL     1     -10.494  30.853 -14.223  1.00  0.00     0.244 A 
ATOM     40  H62 UNL     1     -10.357  30.833 -12.118  1.00  0.00     0.280 HD
ATOM     41  H61 UNL     1      -9.128  31.353 -12.694  1.00  0.00     0.280 HD
HETATM   42  C8  UNL     1     -10.172  29.470 -14.640  1.00  0.00     0.203 A 
BRANCH  39  43
HETATM   43  C7  UNL     1     -11.986  31.154 -14.188  1.00  0.00     0.200 C 
BRANCH  43  44
HETATM   44  O1  UNL     1     -12.173  32.529 -14.450  1.00  0.00    -0.399 OA
ATOM     45  H1  UNL     1     -13.027  32.786 -14.121  1.00  0.00     0.209 HD
ENDBRANCH  43  44
ENDBRANCH  39  43
BRANCH  42  46
HETATM   46  O2  UNL     1     -11.244  28.607 -14.839  1.00  0.00    -0.389 OA
ATOM     47  H2  UNL     1     -11.545  28.500 -15.734  1.00  0.00     0.210 HD
ENDBRANCH  42  46
ENDBRANCH   6  37
TORSDOF 11
ENDMDL
MODEL 5
REMARK VINA RESULT: -6.792180608      2.036      6.001
REMARK  11 active torsions:
REMARK  status: ('A' for Active; 'I' for Inactive)
REMARK    1  A    between atoms: N1_1  and  C1_4 
REMARK    2  A    between atoms: C3_8  and  C4_9 
REMARK    3  A    between atoms: N5_14  and  C5_15 
REMARK    4  A    between atoms: C6_19  and  C7_20 
REMARK    5  A    between atoms: C7_20  and  O1_21 
REMARK    6  A    between atoms: C8_23  and  O2_24 
REMARK    7  A    between atoms: C9_26  and  N7_27 
REMARK    8  A    between atoms: N7_27  and  N8_29 
REMARK    9  A    between atoms: N8_29  and  N9_31 
REMARK   10  A    between atoms: N9_31  and  C10_32 
REMARK   11  A    between atoms: N10_34  and  N11_35 
ROOT
HETATM    1  C4  UNL     1      -6.439  27.669 -14.812  1.00  0.00     0.113 A 
HETATM    2  N3  UNL     1      -7.284  26.676 -14.382  1.00  0.00    -0.281 N 
ATOM      3  H3  UNL     1      -7.003  25.800 -13.941  1.00  0.00     0.188 HD
HETATM    4  N4  UNL     1      -8.523  27.051 -14.639  1.00  0.00    -0.236 N 
ATOM      5  H4  UNL     1      -9.353  26.498 -14.424  1.00  0.00     0.208 HD
HETATM    6  N5  UNL     1      -8.539  28.244 -15.215  1.00  0.00    -0.224 N 
HETATM    7  C9  UNL     1      -7.293  28.651 -15.342  1.00  0.00     0.172 A 
ENDROOT
BRANCH   7   8
HETATM    8  N7  UNL     1      -6.793  29.858 -15.976  1.00  0.00    -0.257 N 
ATOM      9  H7  UNL     1      -6.444  30.671 -15.469  1.00  0.00     0.191 HD
BRANCH   8  10
HETATM   10  N8  UNL     1      -6.851  29.762 -17.424  1.00  0.00    -0.173 N 
ATOM     11  H8  UNL     1      -7.083  30.638 -17.892  1.00  0.00     0.223 HD
BRANCH  10  12
HETATM   12  N9  UNL     1      -6.696  28.952 -18.076  1.00  0.00    -0.303 NA
BRANCH  12  13
HETATM   13  C10 UNL     1      -6.527  27.844 -18.974  1.00  0.00     0.218 A 
HETATM   14  C11 UNL     1      -5.413  27.785 -19.710  1.00  0.00     0.173 A 
HETATM   15  N10 UNL     1      -5.124  26.864 -20.586  1.00  0.00    -0.220 N 
HETATM   16  C12 UNL     1      -6.061  25.843 -20.779  1.00  0.00     0.347 A 
HETATM   17  O3  UNL     1      -5.832  24.943 -21.593  1.00  0.00    -0.245 OA
HETATM   18  N12 UNL     1      -7.231  25.926 -20.001  1.00  0.00    -0.271 N 
HETATM   19  C13 UNL     1      -7.496  26.843 -19.144  1.00  0.00     0.293 A 
ATOM     20  H12 UNL     1      -7.930  25.193 -20.129  1.00  0.00     0.174 HD
HETATM   21  O4  UNL     1      -8.567  26.947 -18.425  1.00  0.00    -0.264 OA
BRANCH  15  22
HETATM   22  N11 UNL     1      -3.912  26.858 -21.301  1.00  0.00    -0.335 N 
ATOM     23 2H11 UNL     1      -3.367  27.714 -21.396  1.00  0.00     0.177 HD
ATOM     24 1H11 UNL     1      -3.552  26.020 -21.759  1.00  0.00     0.177 HD
ENDBRANCH  15  22
ENDBRANCH  12  13
ENDBRANCH  10  12
ENDBRANCH   8  10
ENDBRANCH   7   8
BRANCH   1  25
HETATM   25  C3  UNL     1      -5.005  27.724 -14.597  1.00  0.00     0.080 A 
HETATM   26  C2  UNL     1      -4.370  28.441 -13.654  1.00  0.00     0.125 A 
HETATM   27  N2  UNL     1      -3.024  28.459 -13.492  1.00  0.00    -0.201 N 
HETATM   28  C1  UNL     1      -2.272  27.662 -14.396  1.00  0.00     0.678 A 
ATOM     29  H2  UNL     1      -2.576  29.013 -12.763  1.00  0.00     0.183 HD
HETATM   30  N13 UNL     1      -2.883  26.965 -15.318  1.00  0.00    -0.156 N 
HETATM   31  C14 UNL     1      -4.239  26.946 -15.478  1.00  0.00     0.273 A 
ATOM     32  H13 UNL     1      -2.316  26.404 -15.953  1.00  0.00     0.187 HD
HETATM   33  O5  UNL     1      -4.725  26.248 -16.381  1.00  0.00    -0.267 OA
BRANCH  28  34
HETATM   34  N1  UNL     1      -1.034  27.722 -14.179  1.00  0.00    -0.234 N 
ATOM     35  H12 UNL     1      -0.532  27.383 -13.358  1.00  0.00     0.174 HD
ATOM     36  H11 UNL     1      -0.524  28.176 -14.937  1.00  0.00     0.174 HD
ENDBRANCH  28  34
ENDBRANCH   1  25
BRANCH   6  37
HETATM   37  C5  UNL     1      -9.781  28.983 -15.558  1.00  0.00     0.341 A 
HETATM   38  N6  UNL     1     -10.841  28.667 -14.638  1.00  0.00    -0.041 N 
HETATM   39  C6  UNL     1     -10.731  29.929 -14.011  1.00  0.00     0.244 A 
ATOM     40  H62 UNL     1     -11.745  28.369 -15.004  1.00  0.00     0.280 HD
ATOM     41  H61 UNL     1     -10.775  27.821 -14.072  1.00  0.00     0.280 HD
HETATM   42  C8  UNL     1      -9.671  30.356 -14.953  1.00  0.00     0.203 A 
BRANCH  39  43
HETATM   43  C7  UNL     1     -11.961  30.826 -14.023  1.00  0.00     0.200 C 
BRANCH  43  44
HETATM   44  O1  UNL     1     -12.628  30.688 -12.785  1.00  0.00    -0.399 OA
ATOM     45  H1  UNL     1     -13.093  29.859 -12.784  1.00  0.00     0.209 HD
ENDBRANCH  43  44
ENDBRANCH  39  43
BRANCH  42  46
HETATM   46  O2  UNL     1      -9.965  31.430 -15.786  1.00  0.00    -0.389 OA
ATOM     47  H2  UNL     1      -9.226  31.912 -16.137  1.00  0.00     0.210 HD
ENDBRANCH  42  46
ENDBRANCH   6  37
TORSDOF 11
ENDMDL
