MODEL 1
REMARK VINA RESULT: -7.279882034      0.000      0.000
REMARK  11 active torsions:
REMARK  status: ('A' for Active; 'I' for Inactive)
REMARK    1  A    between atoms: C2_2  and  O1_3 
REMARK    2  A    between atoms: O1_3  and  C3_4 
REMARK    3  A    between atoms: C3_4  and  O2_5 
REMARK    4  A    between atoms: C5_10  and  O3_11 
REMARK    5  A    between atoms: C9_16  and  N2_17 
REMARK    6  A    between atoms: N2_17  and  N3_19 
REMARK    7  A    between atoms: N3_19  and  O4_20 
REMARK    8  A    between atoms: N3_19  and  C10_22 
REMARK    9  A    between atoms: C13_29  and  N7_30 
REMARK   10  A    between atoms: N7_30  and  N8_31 
REMARK   11  A    between atoms: C14_34  and  C15_35 
ROOT
HETATM    1  N2  UNL     1      -6.030  28.077 -15.671  1.00  0.00    -0.267 N 
ATOM      2  H2  UNL     1      -5.206  28.659 -15.520  1.00  0.00     0.190 HD
ENDROOT
BRANCH   1   3
HETATM    3  C9  UNL     1      -7.265  28.407 -15.064  1.00  0.00     0.133 A 
HETATM    4  C8  UNL     1      -8.161  29.317 -15.352  1.00  0.00     0.056 A 
HETATM    5  C4  UNL     1      -8.229  30.271 -16.331  1.00  0.00     0.107 A 
HETATM    6  C7  UNL     1      -9.202  29.195 -14.412  1.00  0.00     0.054 A 
HETATM    7  C3  UNL     1      -7.349  30.530 -17.242  1.00  0.00     0.206 C 
HETATM    8  N1  UNL     1      -9.366  31.061 -16.308  1.00  0.00    -0.332 N 
HETATM    9  C5  UNL     1     -10.345  30.956 -15.437  1.00  0.00     0.142 A 
ATOM     10  H1  UNL     1      -9.451  31.781 -17.025  1.00  0.00     0.168 HD
HETATM   11  C6  UNL     1     -10.305  30.017 -14.449  1.00  0.00     0.086 A 
HETATM   12  N9  UNL     1      -8.934  28.152 -13.490  1.00  0.00    -0.321 N 
HETATM   13  C16 UNL     1      -7.695  27.616 -13.872  1.00  0.00     0.275 A 
ATOM     14  H9  UNL     1      -9.520  27.853 -12.710  1.00  0.00     0.169 HD
HETATM   15  O7  UNL     1      -7.114  26.682 -13.314  1.00  0.00    -0.266 OA
BRANCH   7  16
HETATM   16  O1  UNL     1      -7.699  31.621 -18.100  1.00  0.00    -0.329 OA
BRANCH  16  17
HETATM   17  C2  UNL     1      -6.794  32.648 -18.361  1.00  0.00     0.173 C 
HETATM   18  C1  UNL     1      -6.570  33.580 -17.203  1.00  0.00     0.034 C 
ENDBRANCH  16  17
ENDBRANCH   7  16
BRANCH   7  19
HETATM   19  O2  UNL     1      -6.147  30.024 -17.605  1.00  0.00    -0.339 OA
ATOM     20  H2  UNL     1      -6.234  29.101 -17.814  1.00  0.00     0.220 HD
ENDBRANCH   7  19
BRANCH   9  21
HETATM   21  O3  UNL     1     -11.439  31.801 -15.506  1.00  0.00    -0.346 OA
ATOM     22  H3  UNL     1     -12.276  31.538 -15.142  1.00  0.00     0.219 HD
ENDBRANCH   9  21
ENDBRANCH   1   3
BRANCH   1  23
HETATM   23  N3  UNL     1      -5.956  26.960 -16.468  1.00  0.00    -0.144 N 
BRANCH  23  24
HETATM   24  O4  UNL     1      -6.987  26.147 -16.321  1.00  0.00    -0.266 OA
ATOM     25  H4  UNL     1      -7.026  25.469 -16.986  1.00  0.00     0.247 HD
ENDBRANCH  23  24
BRANCH  23  26
HETATM   26  C10 UNL     1      -5.554  27.102 -17.795  1.00  0.00     0.173 A 
HETATM   27  N4  UNL     1      -4.291  27.506 -18.028  1.00  0.00    -0.325 N 
HETATM   28  C11 UNL     1      -3.792  27.710 -19.252  1.00  0.00     0.145 A 
ATOM     29  H4  UNL     1      -3.680  27.666 -17.226  1.00  0.00     0.169 HD
HETATM   30  N5  UNL     1      -2.435  28.131 -19.414  1.00  0.00    -0.081 NA
HETATM   31  C12 UNL     1      -4.572  27.511 -20.355  1.00  0.00     0.131 A 
HETATM   32  N6  UNL     1      -4.106  27.706 -21.692  1.00  0.00    -0.095 NA
HETATM   33  C13 UNL     1      -5.916  27.086 -20.187  1.00  0.00     0.179 A 
HETATM   34  C14 UNL     1      -6.369  26.890 -18.870  1.00  0.00     0.133 A 
BRANCH  33  35
HETATM   35  N7  UNL     1      -6.604  26.927 -21.150  1.00  0.00    -0.330 NA
BRANCH  35  36
HETATM   36  N8  UNL     1      -7.311  26.788 -22.203  1.00  0.00    -0.280 N 
ATOM     37  H82 UNL     1      -7.758  27.247 -21.410  1.00  0.00     0.191 HD
ATOM     38  H81 UNL     1      -7.846  26.658 -23.061  1.00  0.00     0.191 HD
ENDBRANCH  35  36
ENDBRANCH  33  35
BRANCH  34  39
HETATM   39  C15 UNL     1      -7.731  26.446 -18.739  1.00  0.00     0.217 C 
HETATM   40  O5  UNL     1      -8.667  27.246 -18.489  1.00  0.00    -0.644 OA
HETATM   41  O6  UNL     1      -8.043  25.105 -18.888  1.00  0.00    -0.644 OA
ENDBRANCH  34  39
ENDBRANCH  23  26
ENDBRANCH   1  23
TORSDOF 11
ENDMDL
MODEL 2
REMARK VINA RESULT: -7.096592700      2.647      6.697
REMARK  11 active torsions:
REMARK  status: ('A' for Active; 'I' for Inactive)
REMARK    1  A    between atoms: C2_2  and  O1_3 
REMARK    2  A    between atoms: O1_3  and  C3_4 
REMARK    3  A    between atoms: C3_4  and  O2_5 
REMARK    4  A    between atoms: C5_10  and  O3_11 
REMARK    5  A    between atoms: C9_16  and  N2_17 
REMARK    6  A    between atoms: N2_17  and  N3_19 
REMARK    7  A    between atoms: N3_19  and  O4_20 
REMARK    8  A    between atoms: N3_19  and  C10_22 
REMARK    9  A    between atoms: C13_29  and  N7_30 
REMARK   10  A    between atoms: N7_30  and  N8_31 
REMARK   11  A    between atoms: C14_34  and  C15_35 
ROOT
HETATM    1  N2  UNL     1      -6.052  27.201 -18.423  1.00  0.00    -0.267 N 
ATOM      2  H2  UNL     1      -5.263  26.567 -18.296  1.00  0.00     0.190 HD
ENDROOT
BRANCH   1   3
HETATM    3  C9  UNL     1      -5.906  28.389 -19.178  1.00  0.00     0.133 A 
HETATM    4  C8  UNL     1      -5.962  28.613 -20.467  1.00  0.00     0.056 A 
HETATM    5  C4  UNL     1      -6.177  27.792 -21.541  1.00  0.00     0.107 A 
HETATM    6  C7  UNL     1      -5.747  29.991 -20.664  1.00  0.00     0.054 A 
HETATM    7  C3  UNL     1      -6.357  26.512 -21.530  1.00  0.00     0.206 C 
HETATM    8  N1  UNL     1      -6.165  28.419 -22.775  1.00  0.00    -0.332 N 
HETATM    9  C5  UNL     1      -5.966  29.703 -22.972  1.00  0.00     0.142 A 
ATOM     10  H1  UNL     1      -6.324  27.838 -23.598  1.00  0.00     0.168 HD
HETATM   11  C6  UNL     1      -5.748  30.546 -21.923  1.00  0.00     0.086 A 
HETATM   12  N9  UNL     1      -5.545  30.655 -19.428  1.00  0.00    -0.321 N 
HETATM   13  C16 UNL     1      -5.639  29.660 -18.442  1.00  0.00     0.275 A 
ATOM     14  H9  UNL     1      -5.368  31.649 -19.285  1.00  0.00     0.169 HD
HETATM   15  O7  UNL     1      -5.521  29.841 -17.227  1.00  0.00    -0.266 OA
BRANCH   7  16
HETATM   16  O1  UNL     1      -6.518  25.934 -22.830  1.00  0.00    -0.329 OA
BRANCH  16  17
HETATM   17  C2  UNL     1      -5.651  24.943 -23.287  1.00  0.00     0.173 C 
HETATM   18  C1  UNL     1      -6.054  24.330 -24.599  1.00  0.00     0.034 C 
ENDBRANCH  16  17
ENDBRANCH   7  16
BRANCH   7  19
HETATM   19  O2  UNL     1      -6.436  25.548 -20.583  1.00  0.00    -0.339 OA
ATOM     20  H2  UNL     1      -6.263  25.921 -19.726  1.00  0.00     0.220 HD
ENDBRANCH   7  19
BRANCH   9  21
HETATM   21  O3  UNL     1      -5.976  30.226 -24.254  1.00  0.00    -0.346 OA
ATOM     22  H3  UNL     1      -5.364  29.909 -24.908  1.00  0.00     0.219 HD
ENDBRANCH   9  21
ENDBRANCH   1   3
BRANCH   1  23
HETATM   23  N3  UNL     1      -7.273  26.913 -17.862  1.00  0.00    -0.144 N 
BRANCH  23  24
HETATM   24  O4  UNL     1      -7.664  25.669 -18.075  1.00  0.00    -0.266 OA
ATOM     25  H4  UNL     1      -7.007  25.025 -17.839  1.00  0.00     0.247 HD
ENDBRANCH  23  24
BRANCH  23  26
HETATM   26  C10 UNL     1      -7.546  27.360 -16.570  1.00  0.00     0.173 A 
HETATM   27  N4  UNL     1      -6.830  26.832 -15.560  1.00  0.00    -0.325 N 
HETATM   28  C11 UNL     1      -7.015  27.153 -14.275  1.00  0.00     0.145 A 
ATOM     29  H4  UNL     1      -6.107  26.148 -15.787  1.00  0.00     0.169 HD
HETATM   30  N5  UNL     1      -6.205  26.551 -13.261  1.00  0.00    -0.081 NA
HETATM   31  C12 UNL     1      -7.972  28.061 -13.922  1.00  0.00     0.131 A 
HETATM   32  N6  UNL     1      -8.222  28.453 -12.571  1.00  0.00    -0.095 NA
HETATM   33  C13 UNL     1      -8.766  28.659 -14.934  1.00  0.00     0.179 A 
HETATM   34  C14 UNL     1      -8.513  28.274 -16.263  1.00  0.00     0.133 A 
BRANCH  33  35
HETATM   35  N7  UNL     1      -9.615  29.441 -14.627  1.00  0.00    -0.330 NA
BRANCH  35  36
HETATM   36  N8  UNL     1     -10.523  30.256 -14.254  1.00  0.00    -0.280 N 
ATOM     37  H82 UNL     1     -10.816  29.495 -14.867  1.00  0.00     0.191 HD
ATOM     38  H81 UNL     1     -11.222  30.927 -13.937  1.00  0.00     0.191 HD
ENDBRANCH  35  36
ENDBRANCH  33  35
BRANCH  34  39
HETATM   39  C15 UNL     1      -9.328  28.911 -17.263  1.00  0.00     0.217 C 
HETATM   40  O5  UNL     1     -10.225  28.287 -17.882  1.00  0.00    -0.644 OA
HETATM   41  O6  UNL     1      -9.137  30.249 -17.568  1.00  0.00    -0.644 OA
ENDBRANCH  34  39
ENDBRANCH  23  26
ENDBRANCH   1  23
TORSDOF 11
ENDMDL
MODEL 3
REMARK VINA RESULT: -7.082545842      1.922      6.052
REMARK  11 active torsions:
REMARK  status: ('A' for Active; 'I' for Inactive)
REMARK    1  A    between atoms: C2_2  and  O1_3 
REMARK    2  A    between atoms: O1_3  and  C3_4 
REMARK    3  A    between atoms: C3_4  and  O2_5 
REMARK    4  A    between atoms: C5_10  and  O3_11 
REMARK    5  A    between atoms: C9_16  and  N2_17 
REMARK    6  A    between atoms: N2_17  and  N3_19 
REMARK    7  A    between atoms: N3_19  and  O4_20 
REMARK    8  A    between atoms: N3_19  and  C10_22 
REMARK    9  A    between atoms: C13_29  and  N7_30 
REMARK   10  A    between atoms: N7_30  and  N8_31 
REMARK   11  A    between atoms: C14_34  and  C15_35 
ROOT
HETATM    1  N2  UNL     1      -6.496  27.429 -17.299  1.00  0.00    -0.267 N 
ATOM      2  H2  UNL     1      -5.650  27.794 -16.862  1.00  0.00     0.190 HD
ENDROOT
BRANCH   1   3
HETATM    3  C9  UNL     1      -6.608  27.367 -18.709  1.00  0.00     0.133 A 
HETATM    4  C8  UNL     1      -6.181  28.170 -19.652  1.00  0.00     0.056 A 
HETATM    5  C4  UNL     1      -5.483  29.347 -19.619  1.00  0.00     0.107 A 
HETATM    6  C7  UNL     1      -6.570  27.614 -20.886  1.00  0.00     0.054 A 
HETATM    7  C3  UNL     1      -5.083  29.997 -18.576  1.00  0.00     0.206 C 
HETATM    8  N1  UNL     1      -5.210  29.906 -20.856  1.00  0.00    -0.332 N 
HETATM    9  C5  UNL     1      -5.568  29.398 -22.014  1.00  0.00     0.142 A 
ATOM     10  H1  UNL     1      -4.690  30.783 -20.869  1.00  0.00     0.168 HD
HETATM   11  C6  UNL     1      -6.264  28.227 -22.079  1.00  0.00     0.086 A 
HETATM   12  N9  UNL     1      -7.279  26.401 -20.695  1.00  0.00    -0.321 N 
HETATM   13  C16 UNL     1      -7.327  26.203 -19.307  1.00  0.00     0.275 A 
ATOM     14  H9  UNL     1      -7.673  25.799 -21.417  1.00  0.00     0.169 HD
HETATM   15  O7  UNL     1      -7.862  25.249 -18.736  1.00  0.00    -0.266 OA
BRANCH   7  16
HETATM   16  O1  UNL     1      -4.408  31.223 -18.875  1.00  0.00    -0.329 OA
BRANCH  16  17
HETATM   17  C2  UNL     1      -4.794  32.421 -18.275  1.00  0.00     0.173 C 
HETATM   18  C1  UNL     1      -6.136  32.928 -18.723  1.00  0.00     0.034 C 
ENDBRANCH  16  17
ENDBRANCH   7  16
BRANCH   7  19
HETATM   19  O2  UNL     1      -5.139  29.816 -17.236  1.00  0.00    -0.339 OA
ATOM     20  H2  UNL     1      -5.498  28.958 -17.039  1.00  0.00     0.220 HD
ENDBRANCH   7  19
BRANCH   9  21
HETATM   21  O3  UNL     1      -5.241  30.043 -23.194  1.00  0.00    -0.346 OA
ATOM     22  H3  UNL     1      -5.783  29.937 -23.967  1.00  0.00     0.219 HD
ENDBRANCH   9  21
ENDBRANCH   1   3
BRANCH   1  23
HETATM   23  N3  UNL     1      -7.545  26.990 -16.528  1.00  0.00    -0.144 N 
BRANCH  23  24
HETATM   24  O4  UNL     1      -7.377  25.762 -16.070  1.00  0.00    -0.266 OA
ATOM     25  H4  UNL     1      -8.113  25.191 -16.252  1.00  0.00     0.247 HD
ENDBRANCH  23  24
BRANCH  23  26
HETATM   26  C10 UNL     1      -8.100  27.855 -15.587  1.00  0.00     0.173 A 
HETATM   27  N4  UNL     1      -7.765  27.676 -14.295  1.00  0.00    -0.325 N 
HETATM   28  C11 UNL     1      -8.251  28.418 -13.294  1.00  0.00     0.145 A 
ATOM     29  H4  UNL     1      -7.103  26.933 -14.068  1.00  0.00     0.169 HD
HETATM   30  N5  UNL     1      -7.836  28.169 -11.949  1.00  0.00    -0.081 NA
HETATM   31  C12 UNL     1      -9.140  29.422 -13.550  1.00  0.00     0.131 A 
HETATM   32  N6  UNL     1      -9.698  30.255 -12.531  1.00  0.00    -0.095 NA
HETATM   33  C13 UNL     1      -9.541  29.669 -14.889  1.00  0.00     0.179 A 
HETATM   34  C14 UNL     1      -8.987  28.850 -15.888  1.00  0.00     0.133 A 
BRANCH  33  35
HETATM   35  N7  UNL     1     -10.332  30.536 -15.113  1.00  0.00    -0.330 NA
BRANCH  35  36
HETATM   36  N8  UNL     1     -11.140  31.494 -15.346  1.00  0.00    -0.280 N 
ATOM     37  H82 UNL     1     -10.426  31.317 -16.052  1.00  0.00     0.191 HD
ATOM     38  H81 UNL     1     -11.804  32.253 -15.499  1.00  0.00     0.191 HD
ENDBRANCH  35  36
ENDBRANCH  33  35
BRANCH  34  39
HETATM   39  C15 UNL     1      -9.406  29.138 -17.234  1.00  0.00     0.217 C 
HETATM   40  O5  UNL     1      -9.226  30.267 -17.756  1.00  0.00    -0.644 OA
HETATM   41  O6  UNL     1     -10.026  28.161 -17.995  1.00  0.00    -0.644 OA
ENDBRANCH  34  39
ENDBRANCH  23  26
ENDBRANCH   1  23
TORSDOF 11
ENDMDL
MODEL 4
REMARK VINA RESULT: -7.038484005      2.106      2.515
REMARK  11 active torsions:
REMARK  status: ('A' for Active; 'I' for Inactive)
REMARK    1  A    between atoms: C2_2  and  O1_3 
REMARK    2  A    between atoms: O1_3  and  C3_4 
REMARK    3  A    between atoms: C3_4  and  O2_5 
REMARK    4  A    between atoms: C5_10  and  O3_11 
REMARK    5  A    between atoms: C9_16  and  N2_17 
REMARK    6  A    between atoms: N2_17  and  N3_19 
REMARK    7  A    between atoms: N3_19  and  O4_20 
REMARK    8  A    between atoms: N3_19  and  C10_22 
REMARK    9  A    between atoms: C13_29  and  N7_30 
REMARK   10  A    between atoms: N7_30  and  N8_31 
REMARK   11  A    between atoms: C14_34  and  C15_35 
ROOT
HETATM    1  N2  UNL     1      -8.914  29.076 -16.876  1.00  0.00    -0.267 N 
ATOM      2  H2  UNL     1      -9.393  29.691 -17.534  1.00  0.00     0.190 HD
ENDROOT
BRANCH   1   3
HETATM    3  C9  UNL     1      -8.766  29.451 -15.519  1.00  0.00     0.133 A 
HETATM    4  C8  UNL     1      -8.214  30.500 -14.961  1.00  0.00     0.056 A 
HETATM    5  C4  UNL     1      -7.585  31.599 -15.479  1.00  0.00     0.107 A 
HETATM    6  C7  UNL     1      -8.357  30.358 -13.568  1.00  0.00     0.054 A 
HETATM    7  C3  UNL     1      -7.348  31.860 -16.722  1.00  0.00     0.206 C 
HETATM    8  N1  UNL     1      -7.129  32.513 -14.543  1.00  0.00    -0.332 N 
HETATM    9  C5  UNL     1      -7.256  32.393 -13.240  1.00  0.00     0.142 A 
ATOM     10  H1  UNL     1      -6.656  33.346 -14.894  1.00  0.00     0.168 HD
HETATM   11  C6  UNL     1      -7.876  31.308 -12.696  1.00  0.00     0.086 A 
HETATM   12  N9  UNL     1      -9.033  29.154 -13.246  1.00  0.00    -0.321 N 
HETATM   13  C16 UNL     1      -9.316  28.538 -14.474  1.00  0.00     0.275 A 
ATOM     14  H9  UNL     1      -9.265  28.808 -12.315  1.00  0.00     0.169 HD
HETATM   15  O7  UNL     1      -9.902  27.462 -14.619  1.00  0.00    -0.266 OA
BRANCH   7  16
HETATM   16  O1  UNL     1      -6.632  33.080 -16.938  1.00  0.00    -0.329 OA
BRANCH  16  17
HETATM   17  C2  UNL     1      -6.915  33.895 -18.033  1.00  0.00     0.173 C 
HETATM   18  C1  UNL     1      -5.769  34.058 -18.992  1.00  0.00     0.034 C 
ENDBRANCH  16  17
ENDBRANCH   7  16
BRANCH   7  19
HETATM   19  O2  UNL     1      -7.608  31.262 -17.908  1.00  0.00    -0.339 OA
ATOM     20  H2  UNL     1      -8.542  31.115 -17.999  1.00  0.00     0.220 HD
ENDBRANCH   7  19
BRANCH   9  21
HETATM   21  O3  UNL     1      -6.760  33.370 -12.394  1.00  0.00    -0.346 OA
ATOM     22  H3  UNL     1      -6.295  33.130 -11.601  1.00  0.00     0.219 HD
ENDBRANCH   9  21
ENDBRANCH   1   3
BRANCH   1  23
HETATM   23  N3  UNL     1      -8.403  27.872 -17.295  1.00  0.00    -0.144 N 
BRANCH  23  24
HETATM   24  O4  UNL     1      -9.253  27.172 -18.026  1.00  0.00    -0.266 OA
ATOM     25  H4  UNL     1      -9.536  27.628 -18.809  1.00  0.00     0.247 HD
ENDBRANCH  23  24
BRANCH  23  26
HETATM   26  C10 UNL     1      -7.096  27.823 -17.776  1.00  0.00     0.173 A 
HETATM   27  N4  UNL     1      -6.185  28.630 -17.200  1.00  0.00    -0.325 N 
HETATM   28  C11 UNL     1      -4.907  28.701 -17.588  1.00  0.00     0.145 A 
ATOM     29  H4  UNL     1      -6.487  29.222 -16.425  1.00  0.00     0.169 HD
HETATM   30  N5  UNL     1      -4.000  29.580 -16.917  1.00  0.00    -0.081 NA
HETATM   31  C12 UNL     1      -4.458  27.930 -18.622  1.00  0.00     0.131 A 
HETATM   32  N6  UNL     1      -3.107  27.952 -19.088  1.00  0.00    -0.095 NA
HETATM   33  C13 UNL     1      -5.362  27.055 -19.278  1.00  0.00     0.179 A 
HETATM   34  C14 UNL     1      -6.690  27.034 -18.813  1.00  0.00     0.133 A 
BRANCH  33  35
HETATM   35  N7  UNL     1      -4.975  26.392 -20.193  1.00  0.00    -0.330 NA
BRANCH  35  36
HETATM   36  N8  UNL     1      -4.552  25.725 -21.195  1.00  0.00    -0.280 N 
ATOM     37  H82 UNL     1      -3.844  26.095 -20.561  1.00  0.00     0.191 HD
ATOM     38  H81 UNL     1      -4.251  25.186 -22.007  1.00  0.00     0.191 HD
ENDBRANCH  35  36
ENDBRANCH  33  35
BRANCH  34  39
HETATM   39  C15 UNL     1      -7.573  26.125 -19.493  1.00  0.00     0.217 C 
HETATM   40  O5  UNL     1      -7.914  25.028 -18.984  1.00  0.00    -0.644 OA
HETATM   41  O6  UNL     1      -8.074  26.445 -20.744  1.00  0.00    -0.644 OA
ENDBRANCH  34  39
ENDBRANCH  23  26
ENDBRANCH   1  23
TORSDOF 11
ENDMDL
MODEL 5
REMARK VINA RESULT: -6.960864006      2.116      5.859
REMARK  11 active torsions:
REMARK  status: ('A' for Active; 'I' for Inactive)
REMARK    1  A    between atoms: C2_2  and  O1_3 
REMARK    2  A    between atoms: O1_3  and  C3_4 
REMARK    3  A    between atoms: C3_4  and  O2_5 
REMARK    4  A    between atoms: C5_10  and  O3_11 
REMARK    5  A    between atoms: C9_16  and  N2_17 
REMARK    6  A    between atoms: N2_17  and  N3_19 
REMARK    7  A    between atoms: N3_19  and  O4_20 
REMARK    8  A    between atoms: N3_19  and  C10_22 
REMARK    9  A    between atoms: C13_29  and  N7_30 
REMARK   10  A    between atoms: N7_30  and  N8_31 
REMARK   11  A    between atoms: C14_34  and  C15_35 
ROOT
HETATM    1  N2  UNL     1      -6.025  26.963 -17.481  1.00  0.00    -0.267 N 
ATOM      2  H2  UNL     1      -5.075  26.809 -17.146  1.00  0.00     0.190 HD
ENDROOT
BRANCH   1   3
HETATM    3  C9  UNL     1      -6.293  27.052 -18.869  1.00  0.00     0.133 A 
HETATM    4  C8  UNL     1      -5.813  27.840 -19.798  1.00  0.00     0.056 A 
HETATM    5  C4  UNL     1      -4.892  28.853 -19.768  1.00  0.00     0.107 A 
HETATM    6  C7  UNL     1      -6.432  27.485 -21.012  1.00  0.00     0.054 A 
HETATM    7  C3  UNL     1      -4.263  29.316 -18.739  1.00  0.00     0.206 C 
HETATM    8  N1  UNL     1      -4.643  29.459 -20.988  1.00  0.00    -0.332 N 
HETATM    9  C5  UNL     1      -5.214  29.137 -22.127  1.00  0.00     0.142 A 
ATOM     10  H1  UNL     1      -3.960  30.217 -21.003  1.00  0.00     0.168 HD
HETATM   11  C6  UNL     1      -6.135  28.134 -22.188  1.00  0.00     0.086 A 
HETATM   12  N9  UNL     1      -7.348  26.419 -20.821  1.00  0.00    -0.321 N 
HETATM   13  C16 UNL     1      -7.290  26.108 -19.454  1.00  0.00     0.275 A 
ATOM     14  H9  UNL     1      -7.928  25.972 -21.531  1.00  0.00     0.169 HD
HETATM   15  O7  UNL     1      -7.944  25.227 -18.890  1.00  0.00    -0.266 OA
BRANCH   7  16
HETATM   16  O1  UNL     1      -3.390  30.411 -19.032  1.00  0.00    -0.329 OA
BRANCH  16  17
HETATM   17  C2  UNL     1      -3.447  31.593 -18.295  1.00  0.00     0.173 C 
HETATM   18  C1  UNL     1      -4.683  32.413 -18.542  1.00  0.00     0.034 C 
ENDBRANCH  16  17
ENDBRANCH   7  16
BRANCH   7  19
HETATM   19  O2  UNL     1      -4.215  29.028 -17.417  1.00  0.00    -0.339 OA
ATOM     20  H2  UNL     1      -4.631  28.189 -17.253  1.00  0.00     0.220 HD
ENDBRANCH   7  19
BRANCH   9  21
HETATM   21  O3  UNL     1      -4.889  29.812 -23.291  1.00  0.00    -0.346 OA
ATOM     22  H3  UNL     1      -4.639  29.333 -24.072  1.00  0.00     0.219 HD
ENDBRANCH   9  21
ENDBRANCH   1   3
BRANCH   1  23
HETATM   23  N3  UNL     1      -7.066  27.086 -16.592  1.00  0.00    -0.144 N 
BRANCH  23  24
HETATM   24  O4  UNL     1      -7.152  26.073 -15.749  1.00  0.00    -0.266 OA
ATOM     25  H4  UNL     1      -7.464  25.273 -16.156  1.00  0.00     0.247 HD
ENDBRANCH  23  24
BRANCH  23  26
HETATM   26  C10 UNL     1      -7.298  28.322 -15.992  1.00  0.00     0.173 A 
HETATM   27  N4  UNL     1      -6.288  28.884 -15.302  1.00  0.00    -0.325 N 
HETATM   28  C11 UNL     1      -6.392  30.050 -14.655  1.00  0.00     0.145 A 
ATOM     29  H4  UNL     1      -5.394  28.393 -15.270  1.00  0.00     0.169 HD
HETATM   30  N5  UNL     1      -5.267  30.583 -13.951  1.00  0.00    -0.081 NA
HETATM   31  C12 UNL     1      -7.569  30.742 -14.668  1.00  0.00     0.131 A 
HETATM   32  N6  UNL     1      -7.751  31.994 -14.001  1.00  0.00    -0.095 NA
HETATM   33  C13 UNL     1      -8.679  30.210 -15.374  1.00  0.00     0.179 A 
HETATM   34  C14 UNL     1      -8.494  28.981 -16.032  1.00  0.00     0.133 A 
BRANCH  33  35
HETATM   35  N7  UNL     1      -9.714  30.806 -15.372  1.00  0.00    -0.330 NA
BRANCH  35  36
HETATM   36  N8  UNL     1     -10.818  31.442 -15.322  1.00  0.00    -0.280 N 
ATOM     37  H82 UNL     1     -10.202  31.534 -14.516  1.00  0.00     0.191 HD
ATOM     38  H81 UNL     1     -11.710  31.936 -15.318  1.00  0.00     0.191 HD
ENDBRANCH  35  36
ENDBRANCH  33  35
BRANCH  34  39
HETATM   39  C15 UNL     1      -9.636  28.480 -16.749  1.00  0.00     0.217 C 
HETATM   40  O5  UNL     1      -9.809  28.721 -17.969  1.00  0.00    -0.644 OA
HETATM   41  O6  UNL     1     -10.584  27.708 -16.097  1.00  0.00    -0.644 OA
ENDBRANCH  34  39
ENDBRANCH  23  26
ENDBRANCH   1  23
TORSDOF 11
ENDMDL
