MODEL 1
REMARK VINA RESULT: -4.500864193      0.000      0.000
REMARK  1 active torsions:
REMARK  status: ('A' for Active; 'I' for Inactive)
REMARK    1  A    between atoms: C6_8  and  O1_9 
ROOT
HETATM    1  C1  UNL     1      22.275  16.642  42.402  1.00  0.00     0.310 C 
HETATM    2  N1  UNL     1      21.173  16.500  43.368  1.00  0.00     0.092 N 
HETATM    3  C2  UNL     1      21.677  16.613  44.687  1.00  0.00     0.308 C 
HETATM    4  C3  UNL     1      20.937  17.472  45.625  1.00  0.00     0.256 C 
HETATM    5  C4  UNL     1      19.976  16.721  46.532  1.00  0.00     0.058 C 
HETATM    6  C5  UNL     1      18.602  16.984  45.983  1.00  0.00     0.126 C 
HETATM    7 BR1  UNL     1      17.736  15.332  45.513  1.00  0.00    -0.086 Br
HETATM    8  C6  UNL     1      18.799  17.903  44.827  1.00  0.00     0.274 C 
HETATM    9  C7  UNL     1      18.827  17.228  43.495  1.00  0.00     0.110 C 
HETATM   10  C8  UNL     1      20.198  17.478  42.991  1.00  0.00     0.255 C 
HETATM   11  C9  UNL     1      20.580  18.784  43.684  1.00  0.00     0.313 C 
HETATM   12  N2  UNL     1      20.122  18.488  45.040  1.00  0.00     0.133 N 
ENDROOT
BRANCH   8  13
HETATM   13  O1  UNL     1      17.865  18.959  44.857  1.00  0.00    -0.362 OA
ATOM     14  H1  UNL     1      17.137  18.784  44.273  1.00  0.00     0.212 HD
ENDBRANCH   8  13
TORSDOF 1
ENDMDL
MODEL 2
REMARK VINA RESULT: -4.021850189      2.325      3.561
REMARK  1 active torsions:
REMARK  status: ('A' for Active; 'I' for Inactive)
REMARK    1  A    between atoms: C6_8  and  O1_9 
ROOT
HETATM    1  C1  UNL     1      18.669  15.768  46.555  1.00  0.00     0.310 C 
HETATM    2  N1  UNL     1      18.952  16.376  45.244  1.00  0.00     0.092 N 
HETATM    3  C2  UNL     1      18.356  17.659  45.174  1.00  0.00     0.308 C 
HETATM    4  C3  UNL     1      19.176  18.760  44.641  1.00  0.00     0.256 C 
HETATM    5  C4  UNL     1      18.937  19.058  43.169  1.00  0.00     0.058 C 
HETATM    6  C5  UNL     1      20.117  18.485  42.437  1.00  0.00     0.126 C 
HETATM    7 BR1  UNL     1      19.542  17.180  41.147  1.00  0.00    -0.086 Br
HETATM    8  C6  UNL     1      21.012  17.928  43.489  1.00  0.00     0.274 C 
HETATM    9  C7  UNL     1      20.873  16.458  43.708  1.00  0.00     0.110 C 
HETATM   10  C8  UNL     1      20.375  16.345  45.101  1.00  0.00     0.255 C 
HETATM   11  C9  UNL     1      20.921  17.611  45.758  1.00  0.00     0.313 C 
HETATM   12  N2  UNL     1      20.591  18.589  44.723  1.00  0.00     0.133 N 
ENDROOT
BRANCH   8  13
HETATM   13  O1  UNL     1      22.354  18.294  43.256  1.00  0.00    -0.362 OA
ATOM     14  H1  UNL     1      22.543  19.147  43.630  1.00  0.00     0.212 HD
ENDBRANCH   8  13
TORSDOF 1
ENDMDL
MODEL 3
REMARK VINA RESULT: -3.202143388      1.129      1.340
REMARK  1 active torsions:
REMARK  status: ('A' for Active; 'I' for Inactive)
REMARK    1  A    between atoms: C6_8  and  O1_9 
ROOT
HETATM    1  C1  UNL     1      21.307  16.920  41.026  1.00  0.00     0.310 C 
HETATM    2  N1  UNL     1      20.843  16.878  42.423  1.00  0.00     0.092 N 
HETATM    3  C2  UNL     1      21.747  17.593  43.247  1.00  0.00     0.308 C 
HETATM    4  C3  UNL     1      21.175  18.527  44.231  1.00  0.00     0.256 C 
HETATM    5  C4  UNL     1      21.046  17.953  45.633  1.00  0.00     0.058 C 
HETATM    6  C5  UNL     1      19.587  17.644  45.817  1.00  0.00     0.126 C 
HETATM    7 BR1  UNL     1      19.336  15.777  46.204  1.00  0.00    -0.086 Br
HETATM    8  C6  UNL     1      18.920  18.087  44.561  1.00  0.00     0.274 C 
HETATM    9  C7  UNL     1      18.671  16.996  43.572  1.00  0.00     0.110 C 
HETATM   10  C8  UNL     1      19.501  17.372  42.402  1.00  0.00     0.255 C 
HETATM   11  C9  UNL     1      19.579  18.893  42.519  1.00  0.00     0.313 C 
HETATM   12  N2  UNL     1      19.865  19.017  43.947  1.00  0.00     0.133 N 
ENDROOT
BRANCH   8  13
HETATM   13  O1  UNL     1      17.743  18.812  44.843  1.00  0.00    -0.362 OA
ATOM     14  H1  UNL     1      17.922  19.529  45.440  1.00  0.00     0.212 HD
ENDBRANCH   8  13
TORSDOF 1
ENDMDL
MODEL 4
REMARK VINA RESULT: -3.151250743      1.625      2.220
REMARK  1 active torsions:
REMARK  status: ('A' for Active; 'I' for Inactive)
REMARK    1  A    between atoms: C6_8  and  O1_9 
ROOT
HETATM    1  C1  UNL     1      19.025  17.450  40.575  1.00  0.00     0.310 C 
HETATM    2  N1  UNL     1      19.296  17.187  41.998  1.00  0.00     0.092 N 
HETATM    3  C2  UNL     1      20.609  16.677  42.148  1.00  0.00     0.308 C 
HETATM    4  C3  UNL     1      21.441  17.248  43.219  1.00  0.00     0.256 C 
HETATM    5  C4  UNL     1      21.456  16.430  44.500  1.00  0.00     0.058 C 
HETATM    6  C5  UNL     1      20.576  17.169  45.469  1.00  0.00     0.126 C 
HETATM    7 BR1  UNL     1      19.127  16.048  46.054  1.00  0.00    -0.086 Br
HETATM    8  C6  UNL     1      20.128  18.395  44.752  1.00  0.00     0.274 C 
HETATM    9  C7  UNL     1      18.773  18.292  44.133  1.00  0.00     0.110 C 
HETATM   10  C8  UNL     1      19.028  18.418  42.678  1.00  0.00     0.255 C 
HETATM   11  C9  UNL     1      20.311  19.246  42.631  1.00  0.00     0.313 C 
HETATM   12  N2  UNL     1      21.087  18.559  43.661  1.00  0.00     0.133 N 
ENDROOT
BRANCH   8  13
HETATM   13  O1  UNL     1      20.237  19.532  45.579  1.00  0.00    -0.362 OA
ATOM     14  H1  UNL     1      21.146  19.784  45.691  1.00  0.00     0.212 HD
ENDBRANCH   8  13
TORSDOF 1
ENDMDL
MODEL 5
REMARK VINA RESULT: -2.188099367      2.383      3.769
REMARK  1 active torsions:
REMARK  status: ('A' for Active; 'I' for Inactive)
REMARK    1  A    between atoms: C6_8  and  O1_9 
ROOT
HETATM    1  C1  UNL     1      17.258  16.651  46.421  1.00  0.00     0.310 C 
HETATM    2  N1  UNL     1      18.209  16.947  45.336  1.00  0.00     0.092 N 
HETATM    3  C2  UNL     1      18.437  18.344  45.270  1.00  0.00     0.308 C 
HETATM    4  C3  UNL     1      19.831  18.799  45.141  1.00  0.00     0.256 C 
HETATM    5  C4  UNL     1      20.255  19.112  43.715  1.00  0.00     0.058 C 
HETATM    6  C5  UNL     1      21.113  17.957  43.279  1.00  0.00     0.126 C 
HETATM    7 BR1  UNL     1      20.368  17.115  41.718  1.00  0.00    -0.086 Br
HETATM    8  C6  UNL     1      21.201  17.053  44.459  1.00  0.00     0.274 C 
HETATM    9  C7  UNL     1      20.246  15.905  44.434  1.00  0.00     0.110 C 
HETATM   10  C8  UNL     1      19.363  16.143  45.601  1.00  0.00     0.255 C 
HETATM   11  C9  UNL     1      20.259  16.940  46.546  1.00  0.00     0.313 C 
HETATM   12  N2  UNL     1      20.834  17.892  45.598  1.00  0.00     0.133 N 
ENDROOT
BRANCH   8  13
HETATM   13  O1  UNL     1      22.528  16.622  44.667  1.00  0.00    -0.362 OA
ATOM     14  H1  UNL     1      22.660  16.352  45.568  1.00  0.00     0.212 HD
ENDBRANCH   8  13
TORSDOF 1
ENDMDL
