MODEL 1
REMARK VINA RESULT: -7.583903949      0.000      0.000
REMARK  4 active torsions:
REMARK  status: ('A' for Active; 'I' for Inactive)
REMARK    1  A    between atoms: N1_1  and  N2_4 
REMARK    2  A    between atoms: N2_4  and  S1_6 
REMARK    3  A    between atoms: S1_6  and  N3_9 
REMARK    4  A    between atoms: N3_9  and  C1_11 
ROOT
HETATM    1  C1  UNL     1      32.708  -0.512  78.385  1.00  0.00     0.099 C 
HETATM    2  C2  UNL     1      33.145  -0.751  79.805  1.00  0.00     0.031 C 
HETATM    3  C3  UNL     1      34.177  -1.847  79.911  1.00  0.00    -0.012 C 
HETATM    4  C4  UNL     1      35.577  -1.374  79.708  1.00  0.00     0.009 C 
HETATM    5  C5  UNL     1      35.968  -1.197  78.276  1.00  0.00    -0.013 C 
HETATM    6  C6  UNL     1      35.641  -2.416  77.434  1.00  0.00     0.010 C 
HETATM    7  C7  UNL     1      34.110  -2.423  77.548  1.00  0.00    -0.008 C 
HETATM    8  C8  UNL     1      33.822  -2.978  78.946  1.00  0.00     0.010 C 
HETATM    9  C9  UNL     1      33.765  -0.976  77.433  1.00  0.00     0.013 C 
HETATM   10  C10 UNL     1      35.006  -0.171  77.663  1.00  0.00     0.011 C 
ENDROOT
BRANCH   1  11
HETATM   11  N3  UNL     1      32.567   0.937  78.192  1.00  0.00    -0.296 N 
ATOM     12  H3  UNL     1      33.130   1.646  78.661  1.00  0.00     0.174 HD
BRANCH  11  13
HETATM   13  S1  UNL     1      31.325   1.263  77.072  1.00  0.00     0.332 S 
HETATM   14  O1  UNL     1      30.769  -0.038  76.545  1.00  0.00    -0.181 OA
HETATM   15  O2  UNL     1      30.193   2.015  77.757  1.00  0.00    -0.181 OA
BRANCH  13  16
HETATM   16  N2  UNL     1      31.845   2.192  75.749  1.00  0.00    -0.217 N 
ATOM     17  H2  UNL     1      31.413   3.078  75.485  1.00  0.00     0.201 HD
BRANCH  16  18
HETATM   18  N1  UNL     1      32.920   1.630  75.057  1.00  0.00    -0.335 N 
ATOM     19  H12 UNL     1      32.861   0.715  74.610  1.00  0.00     0.177 HD
ATOM     20  H11 UNL     1      33.752   2.219  75.045  1.00  0.00     0.177 HD
ENDBRANCH  16  18
ENDBRANCH  13  16
ENDBRANCH  11  13
ENDBRANCH   1  11
TORSDOF 4
ENDMDL
MODEL 2
REMARK VINA RESULT: -7.282527887      1.033      1.823
REMARK  4 active torsions:
REMARK  status: ('A' for Active; 'I' for Inactive)
REMARK    1  A    between atoms: N1_1  and  N2_4 
REMARK    2  A    between atoms: N2_4  and  S1_6 
REMARK    3  A    between atoms: S1_6  and  N3_9 
REMARK    4  A    between atoms: N3_9  and  C1_11 
ROOT
HETATM    1  C1  UNL     1      33.649   0.050  78.221  1.00  0.00     0.099 C 
HETATM    2  C2  UNL     1      35.109   0.379  78.381  1.00  0.00     0.031 C 
HETATM    3  C3  UNL     1      35.840  -0.651  79.208  1.00  0.00    -0.012 C 
HETATM    4  C4  UNL     1      36.333  -1.815  78.418  1.00  0.00     0.009 C 
HETATM    5  C5  UNL     1      35.292  -2.848  78.124  1.00  0.00    -0.013 C 
HETATM    6  C6  UNL     1      34.533  -3.271  79.367  1.00  0.00     0.010 C 
HETATM    7  C7  UNL     1      33.849  -1.946  79.734  1.00  0.00    -0.008 C 
HETATM    8  C8  UNL     1      34.953  -1.097  80.370  1.00  0.00     0.010 C 
HETATM    9  C9  UNL     1      33.424  -1.417  78.405  1.00  0.00     0.013 C 
HETATM   10  C10 UNL     1      34.171  -2.155  77.338  1.00  0.00     0.011 C 
ENDROOT
BRANCH   1  11
HETATM   11  N3  UNL     1      33.262   0.371  76.840  1.00  0.00    -0.296 N 
ATOM     12  H3  UNL     1      33.896   0.376  76.042  1.00  0.00     0.174 HD
BRANCH  11  13
HETATM   13  S1  UNL     1      31.599   0.736  76.766  1.00  0.00     0.332 S 
HETATM   14  O1  UNL     1      30.822  -0.520  76.453  1.00  0.00    -0.181 OA
HETATM   15  O2  UNL     1      31.123   1.261  78.113  1.00  0.00    -0.181 OA
BRANCH  13  16
HETATM   16  N2  UNL     1      31.223   1.899  75.588  1.00  0.00    -0.217 N 
ATOM     17  H2  UNL     1      30.849   1.663  74.669  1.00  0.00     0.201 HD
BRANCH  16  18
HETATM   18  N1  UNL     1      31.473   3.211  75.995  1.00  0.00    -0.335 N 
ATOM     19  H12 UNL     1      31.097   3.594  76.863  1.00  0.00     0.177 HD
ATOM     20  H11 UNL     1      32.059   3.737  75.347  1.00  0.00     0.177 HD
ENDBRANCH  16  18
ENDBRANCH  13  16
ENDBRANCH  11  13
ENDBRANCH   1  11
TORSDOF 4
ENDMDL
MODEL 3
REMARK VINA RESULT: -7.198856682      3.553      4.517
REMARK  4 active torsions:
REMARK  status: ('A' for Active; 'I' for Inactive)
REMARK    1  A    between atoms: N1_1  and  N2_4 
REMARK    2  A    between atoms: N2_4  and  S1_6 
REMARK    3  A    between atoms: S1_6  and  N3_9 
REMARK    4  A    between atoms: N3_9  and  C1_11 
ROOT
HETATM    1  C1  UNL     1      33.953   0.125  77.292  1.00  0.00     0.099 C 
HETATM    2  C2  UNL     1      33.000   1.288  77.346  1.00  0.00     0.031 C 
HETATM    3  C3  UNL     1      31.586   0.857  77.655  1.00  0.00    -0.012 C 
HETATM    4  C4  UNL     1      31.301   0.736  79.113  1.00  0.00     0.009 C 
HETATM    5  C5  UNL     1      31.783  -0.536  79.734  1.00  0.00    -0.013 C 
HETATM    6  C6  UNL     1      31.343  -1.761  78.955  1.00  0.00     0.010 C 
HETATM    7  C7  UNL     1      32.087  -1.524  77.633  1.00  0.00    -0.008 C 
HETATM    8  C8  UNL     1      31.275  -0.443  76.913  1.00  0.00     0.010 C 
HETATM    9  C9  UNL     1      33.417  -1.023  78.088  1.00  0.00     0.013 C 
HETATM   10  C10 UNL     1      33.302  -0.602  79.520  1.00  0.00     0.011 C 
ENDROOT
BRANCH   1  11
HETATM   11  N3  UNL     1      35.208   0.538  77.933  1.00  0.00    -0.296 N 
ATOM     12  H3  UNL     1      35.299   1.304  78.600  1.00  0.00     0.174 HD
BRANCH  11  13
HETATM   13  S1  UNL     1      36.493  -0.447  77.399  1.00  0.00     0.332 S 
HETATM   14  O1  UNL     1      37.722   0.402  77.183  1.00  0.00    -0.181 OA
HETATM   15  O2  UNL     1      36.821  -1.489  78.459  1.00  0.00    -0.181 OA
BRANCH  13  16
HETATM   16  N2  UNL     1      36.151  -1.263  75.950  1.00  0.00    -0.217 N 
ATOM     17  H2  UNL     1      36.192  -0.816  75.034  1.00  0.00     0.201 HD
BRANCH  16  18
HETATM   18  N1  UNL     1      35.807  -2.604  76.129  1.00  0.00    -0.335 N 
ATOM     19  H12 UNL     1      36.314  -3.216  76.770  1.00  0.00     0.177 HD
ATOM     20  H11 UNL     1      35.012  -2.902  75.564  1.00  0.00     0.177 HD
ENDBRANCH  16  18
ENDBRANCH  13  16
ENDBRANCH  11  13
ENDBRANCH   1  11
TORSDOF 4
ENDMDL
MODEL 4
REMARK VINA RESULT: -6.939420149      3.528      4.650
REMARK  4 active torsions:
REMARK  status: ('A' for Active; 'I' for Inactive)
REMARK    1  A    between atoms: N1_1  and  N2_4 
REMARK    2  A    between atoms: N2_4  and  S1_6 
REMARK    3  A    between atoms: S1_6  and  N3_9 
REMARK    4  A    between atoms: N3_9  and  C1_11 
ROOT
HETATM    1  C1  UNL     1      34.035   0.129  77.238  1.00  0.00     0.099 C 
HETATM    2  C2  UNL     1      33.060   1.276  77.246  1.00  0.00     0.031 C 
HETATM    3  C3  UNL     1      31.647   0.825  77.526  1.00  0.00    -0.012 C 
HETATM    4  C4  UNL     1      31.325   0.725  78.978  1.00  0.00     0.009 C 
HETATM    5  C5  UNL     1      31.813  -0.528  79.634  1.00  0.00    -0.013 C 
HETATM    6  C6  UNL     1      31.415  -1.773  78.866  1.00  0.00     0.010 C 
HETATM    7  C7  UNL     1      32.189  -1.547  77.559  1.00  0.00    -0.008 C 
HETATM    8  C8  UNL     1      31.378  -0.493  76.799  1.00  0.00     0.010 C 
HETATM    9  C9  UNL     1      33.498  -1.014  78.040  1.00  0.00     0.013 C 
HETATM   10  C10 UNL     1      33.337  -0.570  79.461  1.00  0.00     0.011 C 
ENDROOT
BRANCH   1  11
HETATM   11  N3  UNL     1      35.265   0.576  77.904  1.00  0.00    -0.296 N 
ATOM     12  H3  UNL     1      35.327   1.364  78.549  1.00  0.00     0.174 HD
BRANCH  11  13
HETATM   13  S1  UNL     1      36.575  -0.411  77.443  1.00  0.00     0.332 S 
HETATM   14  O1  UNL     1      36.217  -1.168  76.187  1.00  0.00    -0.181 OA
HETATM   15  O2  UNL     1      37.793   0.450  77.142  1.00  0.00    -0.181 OA
BRANCH  13  16
HETATM   16  N2  UNL     1      37.013  -1.539  78.635  1.00  0.00    -0.217 N 
ATOM     17  H2  UNL     1      37.675  -1.332  79.383  1.00  0.00     0.201 HD
BRANCH  16  18
HETATM   18  N1  UNL     1      36.382  -2.777  78.495  1.00  0.00    -0.335 N 
ATOM     19  H12 UNL     1      36.890  -3.621  78.231  1.00  0.00     0.177 HD
ATOM     20  H11 UNL     1      35.380  -2.749  78.681  1.00  0.00     0.177 HD
ENDBRANCH  16  18
ENDBRANCH  13  16
ENDBRANCH  11  13
ENDBRANCH   1  11
TORSDOF 4
ENDMDL
MODEL 5
REMARK VINA RESULT: -6.883751847      0.745      1.805
REMARK  4 active torsions:
REMARK  status: ('A' for Active; 'I' for Inactive)
REMARK    1  A    between atoms: N1_1  and  N2_4 
REMARK    2  A    between atoms: N2_4  and  S1_6 
REMARK    3  A    between atoms: S1_6  and  N3_9 
REMARK    4  A    between atoms: N3_9  and  C1_11 
ROOT
HETATM    1  C1  UNL     1      33.543  -0.442  77.631  1.00  0.00     0.099 C 
HETATM    2  C2  UNL     1      32.903  -1.768  77.318  1.00  0.00     0.031 C 
HETATM    3  C3  UNL     1      33.876  -2.916  77.438  1.00  0.00    -0.012 C 
HETATM    4  C4  UNL     1      33.994  -3.458  78.822  1.00  0.00     0.009 C 
HETATM    5  C5  UNL     1      34.883  -2.663  79.724  1.00  0.00    -0.013 C 
HETATM    6  C6  UNL     1      36.234  -2.376  79.097  1.00  0.00     0.010 C 
HETATM    7  C7  UNL     1      35.803  -1.506  77.907  1.00  0.00    -0.008 C 
HETATM    8  C8  UNL     1      35.236  -2.494  76.883  1.00  0.00     0.010 C 
HETATM    9  C9  UNL     1      34.744  -0.638  78.501  1.00  0.00     0.013 C 
HETATM   10  C10 UNL     1      34.304  -1.243  79.798  1.00  0.00     0.011 C 
ENDROOT
BRANCH   1  11
HETATM   11  N3  UNL     1      32.580   0.353  78.406  1.00  0.00    -0.296 N 
ATOM     12  H3  UNL     1      32.586   0.450  79.421  1.00  0.00     0.174 HD
BRANCH  11  13
HETATM   13  S1  UNL     1      31.452   1.090  77.363  1.00  0.00     0.332 S 
HETATM   14  O1  UNL     1      30.797   0.035  76.504  1.00  0.00    -0.181 OA
HETATM   15  O2  UNL     1      30.364   1.775  78.177  1.00  0.00    -0.181 OA
BRANCH  13  16
HETATM   16  N2  UNL     1      32.149   2.250  76.338  1.00  0.00    -0.217 N 
ATOM     17  H2  UNL     1      32.189   3.244  76.566  1.00  0.00     0.201 HD
BRANCH  16  18
HETATM   18  N1  UNL     1      32.663   1.718  75.154  1.00  0.00    -0.335 N 
ATOM     19  H12 UNL     1      33.168   0.831  75.130  1.00  0.00     0.177 HD
ATOM     20  H11 UNL     1      32.484   2.296  74.334  1.00  0.00     0.177 HD
ENDBRANCH  16  18
ENDBRANCH  13  16
ENDBRANCH  11  13
ENDBRANCH   1  11
TORSDOF 4
ENDMDL
