MODEL 1
REMARK VINA RESULT: -9.139781438      0.000      0.000
REMARK  8 active torsions:
REMARK  status: ('A' for Active; 'I' for Inactive)
REMARK       I    between atoms: C1_4  and  N3_6 
REMARK    1  A    between atoms: N3_6  and  C2_8 
REMARK    2  A    between atoms: C5_13  and  C6_14 
REMARK    3  A    between atoms: C6_14  and  N5_15 
REMARK    4  A    between atoms: N9_23  and  C9_24 
REMARK    5  A    between atoms: C9_24  and  C10_25 
REMARK    6  A    between atoms: C9_24  and  C11_30 
REMARK    7  A    between atoms: C10_25  and  N10_26 
REMARK       I    between atoms: C11_30  and  N11_32 
REMARK    8  A    between atoms: N11_32  and  C12_34 
ROOT
HETATM    1  N5  UNL     1      23.327  73.653   0.382  1.00  0.00    -0.253 N 
HETATM    2  N6  UNL     1      23.717  73.222   1.560  1.00  0.00    -0.238 N 
ATOM      3  H6  UNL     1      23.088  73.040   2.342  1.00  0.00     0.208 HD
HETATM    4  N7  UNL     1      25.023  73.054   1.607  1.00  0.00    -0.279 N 
ATOM      5  H7  UNL     1      25.551  72.727   2.415  1.00  0.00     0.189 HD
HETATM    6  C7  UNL     1      25.546  73.384   0.409  1.00  0.00     0.139 A 
HETATM    7  C8  UNL     1      26.665  73.513  -0.387  1.00  0.00     0.166 A 
HETATM    8  N8  UNL     1      27.989  73.228   0.010  1.00  0.00    -0.078 NA
HETATM    9  N9  UNL     1      26.272  73.952  -1.585  1.00  0.00    -0.260 N 
HETATM   10  N13 UNL     1      24.967  74.096  -1.558  1.00  0.00    -0.278 N 
ATOM     11  H13 UNL     1      24.412  74.421  -2.350  1.00  0.00     0.189 HD
HETATM   12  C15 UNL     1      24.447  73.765  -0.363  1.00  0.00     0.171 A 
ENDROOT
BRANCH   1  13
HETATM   13  C6  UNL     1      21.962  73.952  -0.038  1.00  0.00     0.210 C 
BRANCH  13  14
HETATM   14  C5  UNL     1      21.050  73.984   1.160  1.00  0.00     0.047 A 
HETATM   15  C4  UNL     1      20.253  72.908   1.451  1.00  0.00     0.045 A 
HETATM   16  C3  UNL     1      19.422  72.935   2.541  1.00  0.00     0.108 A 
HETATM   17  N4  UNL     1      19.415  74.039   3.306  1.00  0.00    -0.202 N 
HETATM   18  C2  UNL     1      20.185  75.109   3.046  1.00  0.00     0.684 A 
ATOM     19  H4  UNL     1      18.800  74.067   4.119  1.00  0.00     0.183 HD
HETATM   20  N14 UNL     1      20.995  75.062   1.969  1.00  0.00    -0.194 N 
ATOM     21  H14 UNL     1      21.585  75.867   1.759  1.00  0.00     0.184 HD
BRANCH  18  22
HETATM   22  N3  UNL     1      20.140  76.162   3.826  1.00  0.00    -0.164 N 
HETATM   23  C1  UNL     1      20.523  76.096   5.184  1.00  0.00     0.200 C 
HETATM   24  N1  UNL     1      21.671  76.515   5.536  1.00  0.00    -0.373 N 
HETATM   25  N2  UNL     1      19.636  75.567   6.155  1.00  0.00    -0.063 NA
ATOM     26  H12 UNL     1      21.948  76.468   6.516  1.00  0.00     0.158 HD
ATOM     27  H11 UNL     1      22.309  76.897   4.838  1.00  0.00     0.158 HD
ATOM     28  H3  UNL     1      19.819  77.051   3.442  1.00  0.00     0.187 HD
ENDBRANCH  18  22
ENDBRANCH  13  14
ENDBRANCH   1  13
BRANCH   9  29
HETATM   29  C9  UNL     1      27.075  74.242  -2.766  1.00  0.00     0.227 C 
BRANCH  29  30
HETATM   30  C10 UNL     1      26.488  73.516  -3.963  1.00  0.00     0.266 C 
BRANCH  30  31
HETATM   31  N10 UNL     1      27.345  72.499  -4.487  1.00  0.00    -0.077 N 
ATOM     32 3H10 UNL     1      28.289  72.859  -4.629  1.00  0.00     0.274 HD
ATOM     33 2H10 UNL     1      27.540  71.790  -3.779  1.00  0.00     0.274 HD
ATOM     34 1H10 UNL     1      26.989  72.069  -5.340  1.00  0.00     0.274 HD
ENDBRANCH  30  31
ENDBRANCH  29  30
BRANCH  29  35
HETATM   35  C11 UNL     1      27.237  75.675  -2.996  1.00  0.00     0.250 C 
HETATM   36  O1  UNL     1      27.714  76.444  -2.130  1.00  0.00    -0.271 OA
HETATM   37  N11 UNL     1      26.845  76.238  -4.237  1.00  0.00    -0.305 N 
ATOM     38  H11 UNL     1      26.028  75.898  -4.743  1.00  0.00     0.171 HD
BRANCH  37  39
HETATM   39  C12 UNL     1      27.586  77.219  -4.707  1.00  0.00     0.150 A 
HETATM   40  N12 UNL     1      27.732  78.431  -4.169  1.00  0.00    -0.346 N 
HETATM   41  C13 UNL     1      28.509  79.286  -4.769  1.00  0.00     0.097 A 
ATOM     42  H12 UNL     1      27.246  78.681  -3.308  1.00  0.00     0.167 HD
HETATM   43  C14 UNL     1      29.132  78.891  -5.922  1.00  0.00     0.070 A 
HETATM   44  S1  UNL     1      28.569  77.289  -6.096  1.00  0.00    -0.064 SA
ENDBRANCH  37  39
ENDBRANCH  29  35
ENDBRANCH   9  29
TORSDOF 8
ENDMDL
MODEL 2
REMARK VINA RESULT: -9.083388213      3.172      9.376
REMARK  8 active torsions:
REMARK  status: ('A' for Active; 'I' for Inactive)
REMARK       I    between atoms: C1_4  and  N3_6 
REMARK    1  A    between atoms: N3_6  and  C2_8 
REMARK    2  A    between atoms: C5_13  and  C6_14 
REMARK    3  A    between atoms: C6_14  and  N5_15 
REMARK    4  A    between atoms: N9_23  and  C9_24 
REMARK    5  A    between atoms: C9_24  and  C10_25 
REMARK    6  A    between atoms: C9_24  and  C11_30 
REMARK    7  A    between atoms: C10_25  and  N10_26 
REMARK       I    between atoms: C11_30  and  N11_32 
REMARK    8  A    between atoms: N11_32  and  C12_34 
ROOT
HETATM    1  N5  UNL     1      27.026  74.532  -4.996  1.00  0.00    -0.253 N 
HETATM    2  N6  UNL     1      27.542  73.574  -5.733  1.00  0.00    -0.238 N 
ATOM      3  H6  UNL     1      27.498  73.546  -6.751  1.00  0.00     0.208 HD
HETATM    4  N7  UNL     1      28.124  72.653  -4.991  1.00  0.00    -0.279 N 
ATOM      5  H7  UNL     1      28.592  71.818  -5.342  1.00  0.00     0.189 HD
HETATM    6  C7  UNL     1      28.000  72.997  -3.694  1.00  0.00     0.139 A 
HETATM    7  C8  UNL     1      28.253  72.699  -2.371  1.00  0.00     0.166 A 
HETATM    8  N8  UNL     1      28.946  71.560  -1.909  1.00  0.00    -0.078 NA
HETATM    9  N9  UNL     1      27.729  73.670  -1.620  1.00  0.00    -0.260 N 
HETATM   10  N13 UNL     1      27.168  74.547  -2.421  1.00  0.00    -0.278 N 
ATOM     11  H13 UNL     1      26.694  75.391  -2.101  1.00  0.00     0.189 HD
HETATM   12  C15 UNL     1      27.294  74.202  -3.715  1.00  0.00     0.171 A 
ENDROOT
BRANCH   1  13
HETATM   13  C6  UNL     1      26.307  75.712  -5.465  1.00  0.00     0.210 C 
BRANCH  13  14
HETATM   14  C5  UNL     1      27.190  76.927  -5.365  1.00  0.00     0.047 A 
HETATM   15  C4  UNL     1      27.040  77.806  -4.325  1.00  0.00     0.045 A 
HETATM   16  C3  UNL     1      27.843  78.913  -4.231  1.00  0.00     0.108 A 
HETATM   17  N4  UNL     1      28.772  79.105  -5.183  1.00  0.00    -0.202 N 
HETATM   18  C2  UNL     1      28.943  78.260  -6.214  1.00  0.00     0.684 A 
ATOM     19  H4  UNL     1      29.373  79.926  -5.120  1.00  0.00     0.183 HD
HETATM   20  N14 UNL     1      28.142  77.178  -6.287  1.00  0.00    -0.194 N 
ATOM     21  H14 UNL     1      28.260  76.528  -7.064  1.00  0.00     0.184 HD
BRANCH  18  22
HETATM   22  N3  UNL     1      29.865  78.495  -7.114  1.00  0.00    -0.164 N 
HETATM   23  C1  UNL     1      30.231  79.810  -7.478  1.00  0.00     0.200 C 
HETATM   24  N1  UNL     1      31.288  80.326  -6.996  1.00  0.00    -0.373 N 
HETATM   25  N2  UNL     1      29.426  80.556  -8.375  1.00  0.00    -0.063 NA
ATOM     26  H12 UNL     1      31.552  81.276  -7.258  1.00  0.00     0.158 HD
ATOM     27  H11 UNL     1      31.867  79.789  -6.351  1.00  0.00     0.158 HD
ATOM     28  H3  UNL     1      30.331  77.707  -7.565  1.00  0.00     0.187 HD
ENDBRANCH  18  22
ENDBRANCH  13  14
ENDBRANCH   1  13
BRANCH   9  29
HETATM   29  C9  UNL     1      27.733  73.813  -0.170  1.00  0.00     0.227 C 
BRANCH  29  30
HETATM   30  C10 UNL     1      28.463  75.090   0.205  1.00  0.00     0.266 C 
BRANCH  30  31
HETATM   31  N10 UNL     1      29.077  75.035   1.496  1.00  0.00    -0.077 N 
ATOM     32 3H10 UNL     1      28.445  74.618   2.179  1.00  0.00     0.274 HD
ATOM     33 2H10 UNL     1      29.825  74.341   1.511  1.00  0.00     0.274 HD
ATOM     34 1H10 UNL     1      29.417  75.940   1.822  1.00  0.00     0.274 HD
ENDBRANCH  30  31
ENDBRANCH  29  30
BRANCH  29  35
HETATM   35  C11 UNL     1      26.394  73.737   0.405  1.00  0.00     0.250 C 
HETATM   36  O1  UNL     1      26.022  74.482   1.342  1.00  0.00    -0.271 OA
HETATM   37  N11 UNL     1      25.464  72.792  -0.097  1.00  0.00    -0.305 N 
ATOM     38  H11 UNL     1      25.758  71.866  -0.407  1.00  0.00     0.171 HD
BRANCH  37  39
HETATM   39  C12 UNL     1      24.202  73.164  -0.144  1.00  0.00     0.150 A 
HETATM   40  N12 UNL     1      23.349  73.209   0.879  1.00  0.00    -0.346 N 
HETATM   41  C13 UNL     1      22.129  73.605   0.653  1.00  0.00     0.097 A 
ATOM     42  H12 UNL     1      23.645  72.941   1.817  1.00  0.00     0.167 HD
HETATM   43  C14 UNL     1      21.792  73.951  -0.628  1.00  0.00     0.070 A 
HETATM   44  S1  UNL     1      23.260  73.691  -1.461  1.00  0.00    -0.064 SA
ENDBRANCH  37  39
ENDBRANCH  29  35
ENDBRANCH   9  29
TORSDOF 8
ENDMDL
MODEL 3
REMARK VINA RESULT: -9.016765802      3.336      9.191
REMARK  8 active torsions:
REMARK  status: ('A' for Active; 'I' for Inactive)
REMARK       I    between atoms: C1_4  and  N3_6 
REMARK    1  A    between atoms: N3_6  and  C2_8 
REMARK    2  A    between atoms: C5_13  and  C6_14 
REMARK    3  A    between atoms: C6_14  and  N5_15 
REMARK    4  A    between atoms: N9_23  and  C9_24 
REMARK    5  A    between atoms: C9_24  and  C10_25 
REMARK    6  A    between atoms: C9_24  and  C11_30 
REMARK    7  A    between atoms: C10_25  and  N10_26 
REMARK       I    between atoms: C11_30  and  N11_32 
REMARK    8  A    between atoms: N11_32  and  C12_34 
ROOT
HETATM    1  N5  UNL     1      28.405  72.415  -5.183  1.00  0.00    -0.253 N 
HETATM    2  N6  UNL     1      28.908  71.205  -5.081  1.00  0.00    -0.238 N 
ATOM      3  H6  UNL     1      29.115  70.602  -5.877  1.00  0.00     0.208 HD
HETATM    4  N7  UNL     1      29.110  70.868  -3.824  1.00  0.00    -0.279 N 
ATOM      5  H7  UNL     1      29.492  69.979  -3.502  1.00  0.00     0.189 HD
HETATM    6  C7  UNL     1      28.730  71.891  -3.033  1.00  0.00     0.139 A 
HETATM    7  C8  UNL     1      28.585  72.399  -1.759  1.00  0.00     0.166 A 
HETATM    8  N8  UNL     1      28.924  71.723  -0.567  1.00  0.00    -0.078 NA
HETATM    9  N9  UNL     1      28.074  73.628  -1.858  1.00  0.00    -0.260 N 
HETATM   10  N13 UNL     1      27.899  73.895  -3.132  1.00  0.00    -0.278 N 
ATOM     11  H13 UNL     1      27.520  74.774  -3.484  1.00  0.00     0.189 HD
HETATM   12  C15 UNL     1      28.280  72.873  -3.918  1.00  0.00     0.171 A 
ENDROOT
BRANCH   1  13
HETATM   13  C6  UNL     1      28.051  73.121  -6.409  1.00  0.00     0.210 C 
BRANCH  13  14
HETATM   14  C5  UNL     1      28.863  74.383  -6.530  1.00  0.00     0.047 A 
HETATM   15  C4  UNL     1      30.203  74.319  -6.804  1.00  0.00     0.045 A 
HETATM   16  C3  UNL     1      30.945  75.467  -6.915  1.00  0.00     0.108 A 
HETATM   17  N4  UNL     1      30.319  76.644  -6.749  1.00  0.00    -0.202 N 
HETATM   18  C2  UNL     1      29.005  76.738  -6.481  1.00  0.00     0.684 A 
ATOM     19  H4  UNL     1      30.864  77.502  -6.830  1.00  0.00     0.183 HD
HETATM   20  N14 UNL     1      28.295  75.597  -6.376  1.00  0.00    -0.194 N 
ATOM     21  H14 UNL     1      27.297  75.654  -6.172  1.00  0.00     0.184 HD
BRANCH  18  22
HETATM   22  N3  UNL     1      28.445  77.913  -6.329  1.00  0.00    -0.164 N 
HETATM   23  C1  UNL     1      28.649  78.689  -5.165  1.00  0.00     0.200 C 
HETATM   24  N1  UNL     1      29.478  79.651  -5.186  1.00  0.00    -0.373 N 
HETATM   25  N2  UNL     1      27.933  78.398  -3.976  1.00  0.00    -0.063 NA
ATOM     26  H12 UNL     1      29.625  80.210  -4.346  1.00  0.00     0.158 HD
ATOM     27  H11 UNL     1      29.993  79.860  -6.041  1.00  0.00     0.158 HD
ATOM     28  H3  UNL     1      27.846  78.277  -7.070  1.00  0.00     0.187 HD
ENDBRANCH  18  22
ENDBRANCH  13  14
ENDBRANCH   1  13
BRANCH   9  29
HETATM   29  C9  UNL     1      27.741  74.573  -0.799  1.00  0.00     0.227 C 
BRANCH  29  30
HETATM   30  C10 UNL     1      27.492  75.940  -1.408  1.00  0.00     0.266 C 
BRANCH  30  31
HETATM   31  N10 UNL     1      27.170  76.943  -0.441  1.00  0.00    -0.077 N 
ATOM     32 3H10 UNL     1      26.162  77.094  -0.399  1.00  0.00     0.274 HD
ATOM     33 2H10 UNL     1      27.328  76.597   0.505  1.00  0.00     0.274 HD
ATOM     34 1H10 UNL     1      27.662  77.824  -0.591  1.00  0.00     0.274 HD
ENDBRANCH  30  31
ENDBRANCH  29  30
BRANCH  29  35
HETATM   35  C11 UNL     1      26.634  74.114   0.034  1.00  0.00     0.250 C 
HETATM   36  O1  UNL     1      26.420  74.575   1.180  1.00  0.00    -0.271 OA
HETATM   37  N11 UNL     1      25.757  73.109  -0.448  1.00  0.00    -0.305 N 
ATOM     38  H11 UNL     1      26.094  72.340  -1.027  1.00  0.00     0.171 HD
BRANCH  37  39
HETATM   39  C12 UNL     1      24.489  73.215  -0.115  1.00  0.00     0.150 A 
HETATM   40  N12 UNL     1      23.960  72.971   1.085  1.00  0.00    -0.346 N 
HETATM   41  C13 UNL     1      22.677  73.127   1.240  1.00  0.00     0.097 A 
ATOM     42  H12 UNL     1      24.547  72.670   1.862  1.00  0.00     0.167 HD
HETATM   43  C14 UNL     1      21.942  73.533   0.159  1.00  0.00     0.070 A 
HETATM   44  S1  UNL     1      23.141  73.675  -1.049  1.00  0.00    -0.064 SA
ENDBRANCH  37  39
ENDBRANCH  29  35
ENDBRANCH   9  29
TORSDOF 8
ENDMDL
MODEL 4
REMARK VINA RESULT: -8.991270262      1.491      1.795
REMARK  8 active torsions:
REMARK  status: ('A' for Active; 'I' for Inactive)
REMARK       I    between atoms: C1_4  and  N3_6 
REMARK    1  A    between atoms: N3_6  and  C2_8 
REMARK    2  A    between atoms: C5_13  and  C6_14 
REMARK    3  A    between atoms: C6_14  and  N5_15 
REMARK    4  A    between atoms: N9_23  and  C9_24 
REMARK    5  A    between atoms: C9_24  and  C10_25 
REMARK    6  A    between atoms: C9_24  and  C11_30 
REMARK    7  A    between atoms: C10_25  and  N10_26 
REMARK       I    between atoms: C11_30  and  N11_32 
REMARK    8  A    between atoms: N11_32  and  C12_34 
ROOT
HETATM    1  N5  UNL     1      24.632  73.523   0.730  1.00  0.00    -0.253 N 
HETATM    2  N6  UNL     1      25.380  74.218   1.558  1.00  0.00    -0.238 N 
ATOM      3  H6  UNL     1      25.209  74.291   2.561  1.00  0.00     0.208 HD
HETATM    4  N7  UNL     1      26.377  74.808   0.931  1.00  0.00    -0.279 N 
ATOM      5  H7  UNL     1      27.085  75.399   1.366  1.00  0.00     0.189 HD
HETATM    6  C7  UNL     1      26.307  74.504  -0.380  1.00  0.00     0.139 A 
HETATM    7  C8  UNL     1      26.837  74.638  -1.646  1.00  0.00     0.166 A 
HETATM    8  N8  UNL     1      27.984  75.392  -1.976  1.00  0.00    -0.078 NA
HETATM    9  N9  UNL     1      26.080  73.933  -2.490  1.00  0.00    -0.260 N 
HETATM   10  N13 UNL     1      25.111  73.376  -1.799  1.00  0.00    -0.278 N 
ATOM     11  H13 UNL     1      24.389  72.781  -2.206  1.00  0.00     0.189 HD
HETATM   12  C15 UNL     1      25.184  73.681  -0.492  1.00  0.00     0.171 A 
ENDROOT
BRANCH   1  13
HETATM   13  C6  UNL     1      23.445  72.741   1.062  1.00  0.00     0.210 C 
BRANCH  13  14
HETATM   14  C5  UNL     1      22.219  73.611   0.991  1.00  0.00     0.047 A 
HETATM   15  C4  UNL     1      21.522  73.729  -0.182  1.00  0.00     0.045 A 
HETATM   16  C3  UNL     1      20.404  74.520  -0.250  1.00  0.00     0.108 A 
HETATM   17  N4  UNL     1      20.019  75.169   0.862  1.00  0.00    -0.202 N 
HETATM   18  C2  UNL     1      20.682  75.072   2.027  1.00  0.00     0.684 A 
ATOM     19  H4  UNL     1      19.189  75.759   0.820  1.00  0.00     0.183 HD
HETATM   20  N14 UNL     1      21.778  74.289   2.071  1.00  0.00    -0.194 N 
ATOM     21  H14 UNL     1      22.291  74.207   2.948  1.00  0.00     0.184 HD
BRANCH  18  22
HETATM   22  N3  UNL     1      20.262  75.727   3.082  1.00  0.00    -0.164 N 
HETATM   23  C1  UNL     1      20.767  75.456   4.374  1.00  0.00     0.200 C 
HETATM   24  N1  UNL     1      21.648  76.220   4.878  1.00  0.00    -0.373 N 
HETATM   25  N2  UNL     1      20.296  74.338   5.107  1.00  0.00    -0.063 NA
ATOM     26  H12 UNL     1      22.012  76.025   5.811  1.00  0.00     0.158 HD
ATOM     27  H11 UNL     1      21.986  77.025   4.351  1.00  0.00     0.158 HD
ATOM     28  H3  UNL     1      19.552  76.450   2.967  1.00  0.00     0.187 HD
ENDBRANCH  18  22
ENDBRANCH  13  14
ENDBRANCH   1  13
BRANCH   9  29
HETATM   29  C9  UNL     1      26.227  73.757  -3.929  1.00  0.00     0.227 C 
BRANCH  29  30
HETATM   30  C10 UNL     1      25.082  72.909  -4.450  1.00  0.00     0.266 C 
BRANCH  30  31
HETATM   31  N10 UNL     1      24.914  72.989  -5.867  1.00  0.00    -0.077 N 
ATOM     32 3H10 UNL     1      25.655  73.549  -6.289  1.00  0.00     0.274 HD
ATOM     33 2H10 UNL     1      25.111  72.089  -6.306  1.00  0.00     0.274 HD
ATOM     34 1H10 UNL     1      23.995  73.334  -6.148  1.00  0.00     0.274 HD
ENDBRANCH  30  31
ENDBRANCH  29  30
BRANCH  29  35
HETATM   35  C11 UNL     1      26.360  75.026  -4.639  1.00  0.00     0.250 C 
HETATM   36  O1  UNL     1      25.398  75.814  -4.791  1.00  0.00    -0.271 OA
HETATM   37  N11 UNL     1      27.613  75.399  -5.187  1.00  0.00    -0.305 N 
ATOM     38  H11 UNL     1      28.245  74.710  -5.593  1.00  0.00     0.171 HD
BRANCH  37  39
HETATM   39  C12 UNL     1      27.925  76.677  -5.146  1.00  0.00     0.150 A 
HETATM   40  N12 UNL     1      27.574  77.550  -4.201  1.00  0.00    -0.346 N 
HETATM   41  C13 UNL     1      27.971  78.785  -4.318  1.00  0.00     0.097 A 
ATOM     42  H12 UNL     1      27.007  77.258  -3.405  1.00  0.00     0.167 HD
HETATM   43  C14 UNL     1      28.729  79.116  -5.409  1.00  0.00     0.070 A 
HETATM   44  S1  UNL     1      28.839  77.622  -6.229  1.00  0.00    -0.064 SA
ENDBRANCH  37  39
ENDBRANCH  29  35
ENDBRANCH   9  29
TORSDOF 8
ENDMDL
MODEL 5
REMARK VINA RESULT: -8.911300489      3.483     10.101
REMARK  8 active torsions:
REMARK  status: ('A' for Active; 'I' for Inactive)
REMARK       I    between atoms: C1_4  and  N3_6 
REMARK    1  A    between atoms: N3_6  and  C2_8 
REMARK    2  A    between atoms: C5_13  and  C6_14 
REMARK    3  A    between atoms: C6_14  and  N5_15 
REMARK    4  A    between atoms: N9_23  and  C9_24 
REMARK    5  A    between atoms: C9_24  and  C10_25 
REMARK    6  A    between atoms: C9_24  and  C11_30 
REMARK    7  A    between atoms: C10_25  and  N10_26 
REMARK       I    between atoms: C11_30  and  N11_32 
REMARK    8  A    between atoms: N11_32  and  C12_34 
ROOT
HETATM    1  N5  UNL     1      28.105  75.805  -5.762  1.00  0.00    -0.253 N 
HETATM    2  N6  UNL     1      28.868  75.274  -6.691  1.00  0.00    -0.238 N 
ATOM      3  H6  UNL     1      29.017  75.682  -7.613  1.00  0.00     0.208 HD
HETATM    4  N7  UNL     1      29.417  74.148  -6.282  1.00  0.00    -0.279 N 
ATOM      5  H7  UNL     1      30.046  73.562  -6.829  1.00  0.00     0.189 HD
HETATM    6  C7  UNL     1      29.012  73.900  -5.021  1.00  0.00     0.139 A 
HETATM    7  C8  UNL     1      29.052  73.076  -3.916  1.00  0.00     0.166 A 
HETATM    8  N8  UNL     1      29.790  71.876  -3.818  1.00  0.00    -0.078 NA
HETATM    9  N9  UNL     1      28.277  73.612  -2.970  1.00  0.00    -0.260 N 
HETATM   10  N13 UNL     1      27.766  74.724  -3.445  1.00  0.00    -0.278 N 
ATOM     11  H13 UNL     1      27.135  75.331  -2.922  1.00  0.00     0.189 HD
HETATM   12  C15 UNL     1      28.172  74.970  -4.703  1.00  0.00     0.171 A 
ENDROOT
BRANCH   1  13
HETATM   13  C6  UNL     1      27.338  77.043  -5.855  1.00  0.00     0.210 C 
BRANCH  13  14
HETATM   14  C5  UNL     1      28.271  78.222  -5.924  1.00  0.00     0.047 A 
HETATM   15  C4  UNL     1      28.738  78.803  -4.775  1.00  0.00     0.045 A 
HETATM   16  C3  UNL     1      29.588  79.877  -4.835  1.00  0.00     0.108 A 
HETATM   17  N4  UNL     1      29.943  80.336  -6.047  1.00  0.00    -0.202 N 
HETATM   18  C2  UNL     1      29.502  79.787  -7.191  1.00  0.00     0.684 A 
ATOM     19  H4  UNL     1      30.575  81.135  -6.100  1.00  0.00     0.183 HD
HETATM   20  N14 UNL     1      28.667  78.732  -7.109  1.00  0.00    -0.194 N 
ATOM     21  H14 UNL     1      28.324  78.306  -7.970  1.00  0.00     0.184 HD
BRANCH  18  22
HETATM   22  N3  UNL     1      29.881  80.275  -8.347  1.00  0.00    -0.164 N 
HETATM   23  C1  UNL     1      28.965  80.885  -9.233  1.00  0.00     0.200 C 
HETATM   24  N1  UNL     1      28.896  82.152  -9.294  1.00  0.00    -0.373 N 
HETATM   25  N2  UNL     1      28.124  80.090 -10.052  1.00  0.00    -0.063 NA
ATOM     26  H12 UNL     1      28.233  82.592  -9.934  1.00  0.00     0.158 HD
ATOM     27  H11 UNL     1      29.501  82.724  -8.705  1.00  0.00     0.158 HD
ATOM     28  H3  UNL     1      30.864  80.213  -8.613  1.00  0.00     0.187 HD
ENDBRANCH  18  22
ENDBRANCH  13  14
ENDBRANCH   1  13
BRANCH   9  29
HETATM   29  C9  UNL     1      27.994  73.121  -1.627  1.00  0.00     0.227 C 
BRANCH  29  30
HETATM   30  C10 UNL     1      29.197  73.377  -0.737  1.00  0.00     0.266 C 
BRANCH  30  31
HETATM   31  N10 UNL     1      28.864  74.019   0.497  1.00  0.00    -0.077 N 
ATOM     32 3H10 UNL     1      29.643  74.588   0.830  1.00  0.00     0.274 HD
ATOM     33 2H10 UNL     1      28.171  74.752   0.347  1.00  0.00     0.274 HD
ATOM     34 1H10 UNL     1      28.554  73.370   1.220  1.00  0.00     0.274 HD
ENDBRANCH  30  31
ENDBRANCH  29  30
BRANCH  29  35
HETATM   35  C11 UNL     1      26.757  73.668  -1.079  1.00  0.00     0.250 C 
HETATM   36  O1  UNL     1      26.587  74.897  -0.902  1.00  0.00    -0.271 OA
HETATM   37  N11 UNL     1      25.696  72.797  -0.725  1.00  0.00    -0.305 N 
ATOM     38  H11 UNL     1      25.874  71.877  -0.323  1.00  0.00     0.171 HD
BRANCH  37  39
HETATM   39  C12 UNL     1      24.472  73.229  -0.940  1.00  0.00     0.150 A 
HETATM   40  N12 UNL     1      23.596  73.624  -0.015  1.00  0.00    -0.346 N 
HETATM   41  C13 UNL     1      22.421  74.026  -0.405  1.00  0.00     0.097 A 
ATOM     42  H12 UNL     1      23.842  73.613   0.974  1.00  0.00     0.167 HD
HETATM   43  C14 UNL     1      22.151  74.017  -1.747  1.00  0.00     0.070 A 
HETATM   44  S1  UNL     1      23.615  73.427  -2.398  1.00  0.00    -0.064 SA
ENDBRANCH  37  39
ENDBRANCH  29  35
ENDBRANCH   9  29
TORSDOF 8
ENDMDL
