MODEL 1
REMARK VINA RESULT: -9.202380146      0.000      0.000
REMARK  6 active torsions:
REMARK  status: ('A' for Active; 'I' for Inactive)
REMARK    1  A    between atoms: C4_10  and  S1_11 
REMARK    2  A    between atoms: S1_11  and  C5_12 
REMARK    3  A    between atoms: C6_15  and  C7_16 
REMARK    4  A    between atoms: C8_21  and  N6_22 
REMARK    5  A    between atoms: C12_28  and  C13_29 
REMARK    6  A    between atoms: C15_34  and  N9_35 
ROOT
HETATM    1  C5  UNL     1      28.450  73.566  -3.696  1.00  0.00     0.120 A 
HETATM    2  N3  UNL     1      29.012  72.610  -4.498  1.00  0.00    -0.329 N 
ATOM      3  H3  UNL     1      29.130  72.675  -5.508  1.00  0.00     0.168 HD
HETATM    4  C6  UNL     1      29.378  71.584  -3.738  1.00  0.00     0.174 A 
HETATM    5  N5  UNL     1      29.047  71.898  -2.478  1.00  0.00    -0.322 N 
ATOM      6  H5  UNL     1      29.211  71.291  -1.675  1.00  0.00     0.169 HD
HETATM    7  C8  UNL     1      28.465  73.124  -2.402  1.00  0.00     0.140 A 
ENDROOT
BRANCH   1   8
HETATM    8  S1  UNL     1      27.811  75.102  -4.299  1.00  0.00    -0.079 SA
BRANCH   8   9
HETATM    9  C4  UNL     1      28.816  75.674  -5.659  1.00  0.00     0.072 C 
HETATM   10  C3  UNL     1      29.226  76.922  -5.762  1.00  0.00     0.087 C 
HETATM   11  C2  UNL     1      28.865  77.892  -4.748  1.00  0.00     0.261 C 
HETATM   12  C14 UNL     1      30.044  77.340  -6.891  1.00  0.00     0.203 C 
HETATM   13  N2  UNL     1      29.329  79.231  -4.899  1.00  0.00    -0.310 N 
HETATM   14  O1  UNL     1      28.160  77.577  -3.754  1.00  0.00    -0.267 OA
HETATM   15  C1  UNL     1      30.122  79.642  -5.989  1.00  0.00     0.116 C 
ATOM     16  H2  UNL     1      29.078  79.920  -4.189  1.00  0.00     0.170 HD
HETATM   17  N1  UNL     1      30.722  80.782  -5.945  1.00  0.00    -0.387 N 
HETATM   18  C15 UNL     1      30.283  78.791  -7.191  1.00  0.00     0.324 C 
ATOM     19  H12 UNL     1      30.611  81.368  -5.117  1.00  0.00     0.157 HD
ATOM     20  H11 UNL     1      31.296  81.079  -6.734  1.00  0.00     0.157 HD
HETATM   21  O4  UNL     1      30.588  76.516  -7.665  1.00  0.00    -0.289 OA
BRANCH  18  22
HETATM   22  N9  UNL     1      29.444  79.245  -8.286  1.00  0.00    -0.061 N 
ATOM     23  H93 UNL     1      29.004  78.460  -8.766  1.00  0.00     0.275 HD
ATOM     24  H92 UNL     1      28.605  79.712  -7.942  1.00  0.00     0.275 HD
ATOM     25  H91 UNL     1      29.961  79.837  -8.936  1.00  0.00     0.275 HD
ENDBRANCH  18  22
ENDBRANCH   8   9
ENDBRANCH   1   8
BRANCH   7  26
HETATM   26  N6  UNL     1      27.999  73.684  -1.185  1.00  0.00    -0.345 N 
HETATM   27  C9  UNL     1      26.625  73.382  -0.787  1.00  0.00     0.169 C 
HETATM   28  C10 UNL     1      26.419  73.636   0.645  1.00  0.00     0.075 C 
HETATM   29  N7  UNL     1      26.961  74.642   1.210  1.00  0.00    -0.398 N 
HETATM   30  C11 UNL     1      27.783  75.514   0.379  1.00  0.00     0.153 C 
ATOM     31  H7  UNL     1      26.826  74.829   2.203  1.00  0.00     0.158 HD
HETATM   32  C12 UNL     1      28.749  74.531  -0.320  1.00  0.00     0.193 C 
BRANCH  32  33
HETATM   33  C13 UNL     1      29.422  73.824   0.801  1.00  0.00     0.255 C 
HETATM   34  N8  UNL     1      29.766  74.556   1.951  1.00  0.00    -0.060 NA
HETATM   35  O3  UNL     1      29.680  72.596   0.726  1.00  0.00    -0.275 OA
ENDBRANCH  32  33
ENDBRANCH   7  26
BRANCH   4  36
HETATM   36  C7  UNL     1      30.023  70.329  -4.150  1.00  0.00     0.298 C 
HETATM   37  N4  UNL     1      29.822  69.144  -3.415  1.00  0.00    -0.054 NA
HETATM   38  O2  UNL     1      30.754  70.316  -5.160  1.00  0.00    -0.268 OA
ENDBRANCH   4  36
TORSDOF 6
ENDMDL
MODEL 2
REMARK VINA RESULT: -9.127059805      4.945      9.029
REMARK  6 active torsions:
REMARK  status: ('A' for Active; 'I' for Inactive)
REMARK    1  A    between atoms: C4_10  and  S1_11 
REMARK    2  A    between atoms: S1_11  and  C5_12 
REMARK    3  A    between atoms: C6_15  and  C7_16 
REMARK    4  A    between atoms: C8_21  and  N6_22 
REMARK    5  A    between atoms: C12_28  and  C13_29 
REMARK    6  A    between atoms: C15_34  and  N9_35 
ROOT
HETATM    1  C5  UNL     1      24.361  73.441  -0.970  1.00  0.00     0.120 A 
HETATM    2  N3  UNL     1      23.249  73.560  -1.758  1.00  0.00    -0.329 N 
ATOM      3  H3  UNL     1      22.289  73.637  -1.424  1.00  0.00     0.168 HD
HETATM    4  C6  UNL     1      23.630  73.559  -3.030  1.00  0.00     0.174 A 
HETATM    5  N5  UNL     1      24.965  73.439  -3.034  1.00  0.00    -0.322 N 
ATOM      6  H5  UNL     1      25.535  73.410  -3.879  1.00  0.00     0.169 HD
HETATM    7  C8  UNL     1      25.466  73.361  -1.772  1.00  0.00     0.140 A 
ENDROOT
BRANCH   1   8
HETATM    8  S1  UNL     1      24.311  73.388   0.798  1.00  0.00    -0.079 SA
BRANCH   8   9
HETATM    9  C4  UNL     1      22.645  73.694   1.358  1.00  0.00     0.072 C 
HETATM   10  C3  UNL     1      22.379  74.351   2.470  1.00  0.00     0.087 C 
HETATM   11  C2  UNL     1      23.461  74.857   3.290  1.00  0.00     0.261 C 
HETATM   12  C14 UNL     1      21.003  74.576   2.884  1.00  0.00     0.203 C 
HETATM   13  N2  UNL     1      23.129  75.561   4.485  1.00  0.00    -0.310 N 
HETATM   14  O1  UNL     1      24.667  74.687   2.973  1.00  0.00    -0.267 OA
HETATM   15  C1  UNL     1      21.798  75.782   4.891  1.00  0.00     0.116 C 
ATOM     16  H2  UNL     1      23.886  75.919   5.069  1.00  0.00     0.170 HD
HETATM   17  N1  UNL     1      21.553  76.634   5.827  1.00  0.00    -0.387 N 
HETATM   18  C15 UNL     1      20.668  75.055   4.266  1.00  0.00     0.324 C 
ATOM     19  H12 UNL     1      22.331  77.134   6.258  1.00  0.00     0.157 HD
ATOM     20  H11 UNL     1      20.590  76.794   6.121  1.00  0.00     0.157 HD
HETATM   21  O4  UNL     1      20.032  74.382   2.114  1.00  0.00    -0.289 OA
BRANCH  18  22
HETATM   22  N9  UNL     1      20.205  73.963   5.102  1.00  0.00    -0.061 N 
ATOM     23  H93 UNL     1      19.613  73.319   4.578  1.00  0.00     0.275 HD
ATOM     24  H92 UNL     1      20.966  73.324   5.336  1.00  0.00     0.275 HD
ATOM     25  H91 UNL     1      19.734  74.303   5.941  1.00  0.00     0.275 HD
ENDBRANCH  18  22
ENDBRANCH   8   9
ENDBRANCH   1   8
BRANCH   7  26
HETATM   26  N6  UNL     1      26.848  73.206  -1.499  1.00  0.00    -0.345 N 
HETATM   27  C9  UNL     1      27.725  72.870  -2.620  1.00  0.00     0.169 C 
HETATM   28  C10 UNL     1      29.128  73.169  -2.306  1.00  0.00     0.075 C 
HETATM   29  N7  UNL     1      29.594  72.944  -1.141  1.00  0.00    -0.398 N 
HETATM   30  C11 UNL     1      28.680  72.385  -0.151  1.00  0.00     0.153 C 
ATOM     31  H7  UNL     1      30.567  73.146  -0.911  1.00  0.00     0.158 HD
HETATM   32  C12 UNL     1      27.462  73.333  -0.219  1.00  0.00     0.193 C 
BRANCH  32  33
HETATM   33  C13 UNL     1      28.031  74.678   0.059  1.00  0.00     0.255 C 
HETATM   34  N8  UNL     1      28.937  74.819   1.125  1.00  0.00    -0.060 NA
HETATM   35  O3  UNL     1      27.711  75.671  -0.642  1.00  0.00    -0.275 OA
ENDBRANCH  32  33
ENDBRANCH   7  26
BRANCH   4  36
HETATM   36  C7  UNL     1      22.792  73.665  -4.233  1.00  0.00     0.298 C 
HETATM   37  N4  UNL     1      22.365  74.923  -4.702  1.00  0.00    -0.054 NA
HETATM   38  O2  UNL     1      22.458  72.630  -4.843  1.00  0.00    -0.268 OA
ENDBRANCH   4  36
TORSDOF 6
ENDMDL
MODEL 3
REMARK VINA RESULT: -8.840423584      1.018      1.096
REMARK  6 active torsions:
REMARK  status: ('A' for Active; 'I' for Inactive)
REMARK    1  A    between atoms: C4_10  and  S1_11 
REMARK    2  A    between atoms: S1_11  and  C5_12 
REMARK    3  A    between atoms: C6_15  and  C7_16 
REMARK    4  A    between atoms: C8_21  and  N6_22 
REMARK    5  A    between atoms: C12_28  and  C13_29 
REMARK    6  A    between atoms: C15_34  and  N9_35 
ROOT
HETATM    1  C5  UNL     1      28.020  74.017  -4.219  1.00  0.00     0.120 A 
HETATM    2  N3  UNL     1      28.320  73.101  -5.190  1.00  0.00    -0.329 N 
ATOM      3  H3  UNL     1      28.342  73.282  -6.193  1.00  0.00     0.168 HD
HETATM    4  C6  UNL     1      28.578  71.936  -4.606  1.00  0.00     0.174 A 
HETATM    5  N5  UNL     1      28.438  72.125  -3.287  1.00  0.00    -0.322 N 
ATOM      6  H5  UNL     1      28.577  71.396  -2.587  1.00  0.00     0.169 HD
HETATM    7  C8  UNL     1      28.091  73.406  -2.997  1.00  0.00     0.140 A 
ENDROOT
BRANCH   1   8
HETATM    8  S1  UNL     1      27.600  75.702  -4.555  1.00  0.00    -0.079 SA
BRANCH   8   9
HETATM    9  C4  UNL     1      28.572  76.298  -5.928  1.00  0.00     0.072 C 
HETATM   10  C3  UNL     1      29.174  77.470  -5.916  1.00  0.00     0.087 C 
HETATM   11  C2  UNL     1      29.060  78.333  -4.757  1.00  0.00     0.261 C 
HETATM   12  C14 UNL     1      29.956  77.912  -7.061  1.00  0.00     0.203 C 
HETATM   13  N2  UNL     1      29.725  79.594  -4.787  1.00  0.00    -0.310 N 
HETATM   14  O1  UNL     1      28.394  77.995  -3.745  1.00  0.00    -0.267 OA
HETATM   15  C1  UNL     1      30.485  80.026  -5.893  1.00  0.00     0.116 C 
ATOM     16  H2  UNL     1      29.649  80.207  -3.975  1.00  0.00     0.170 HD
HETATM   17  N1  UNL     1      31.266  81.044  -5.768  1.00  0.00    -0.387 N 
HETATM   18  C15 UNL     1      30.406  79.336  -7.202  1.00  0.00     0.324 C 
ATOM     19  H12 UNL     1      31.320  81.519  -4.867  1.00  0.00     0.157 HD
ATOM     20  H11 UNL     1      31.815  81.356  -6.568  1.00  0.00     0.157 HD
HETATM   21  O4  UNL     1      30.292  77.130  -7.983  1.00  0.00    -0.289 OA
BRANCH  18  22
HETATM   22  N9  UNL     1      29.568  80.060  -8.140  1.00  0.00    -0.061 N 
ATOM     23  H93 UNL     1      28.590  79.786  -8.053  1.00  0.00     0.275 HD
ATOM     24  H92 UNL     1      29.482  81.043  -7.880  1.00  0.00     0.275 HD
ATOM     25  H91 UNL     1      29.900  79.957  -9.100  1.00  0.00     0.275 HD
ENDBRANCH  18  22
ENDBRANCH   8   9
ENDBRANCH   1   8
BRANCH   7  26
HETATM   26  N6  UNL     1      27.859  73.863  -1.675  1.00  0.00    -0.345 N 
HETATM   27  C9  UNL     1      26.470  73.951  -1.225  1.00  0.00     0.169 C 
HETATM   28  C10 UNL     1      26.388  74.002   0.240  1.00  0.00     0.075 C 
HETATM   29  N7  UNL     1      27.241  74.668   0.914  1.00  0.00    -0.398 N 
HETATM   30  C11 UNL     1      28.286  75.364   0.172  1.00  0.00     0.153 C 
ATOM     31  H7  UNL     1      27.195  74.712   1.932  1.00  0.00     0.158 HD
HETATM   32  C12 UNL     1      28.862  74.262  -0.745  1.00  0.00     0.193 C 
BRANCH  32  33
HETATM   33  C13 UNL     1      29.290  73.193   0.194  1.00  0.00     0.255 C 
HETATM   34  N8  UNL     1      29.054  71.852  -0.157  1.00  0.00    -0.060 NA
HETATM   35  O3  UNL     1      29.852  73.477   1.282  1.00  0.00    -0.275 OA
ENDBRANCH  32  33
ENDBRANCH   7  26
BRANCH   4  36
HETATM   36  C7  UNL     1      28.947  70.661  -5.239  1.00  0.00     0.298 C 
HETATM   37  N4  UNL     1      29.311  69.549  -4.454  1.00  0.00    -0.054 NA
HETATM   38  O2  UNL     1      28.937  70.566  -6.482  1.00  0.00    -0.268 OA
ENDBRANCH   4  36
TORSDOF 6
ENDMDL
MODEL 4
REMARK VINA RESULT: -8.721421610      1.554      1.718
REMARK  6 active torsions:
REMARK  status: ('A' for Active; 'I' for Inactive)
REMARK    1  A    between atoms: C4_10  and  S1_11 
REMARK    2  A    between atoms: S1_11  and  C5_12 
REMARK    3  A    between atoms: C6_15  and  C7_16 
REMARK    4  A    between atoms: C8_21  and  N6_22 
REMARK    5  A    between atoms: C12_28  and  C13_29 
REMARK    6  A    between atoms: C15_34  and  N9_35 
ROOT
HETATM    1  C5  UNL     1      28.272  74.591  -4.916  1.00  0.00     0.120 A 
HETATM    2  N3  UNL     1      28.881  73.880  -5.913  1.00  0.00    -0.329 N 
ATOM      3  H3  UNL     1      28.970  74.173  -6.885  1.00  0.00     0.168 HD
HETATM    4  C6  UNL     1      29.338  72.742  -5.401  1.00  0.00     0.174 A 
HETATM    5  N5  UNL     1      29.015  72.745  -4.101  1.00  0.00    -0.322 N 
ATOM      6  H5  UNL     1      29.242  71.991  -3.453  1.00  0.00     0.169 HD
HETATM    7  C8  UNL     1      28.349  73.878  -3.751  1.00  0.00     0.140 A 
ENDROOT
BRANCH   1   8
HETATM    8  S1  UNL     1      27.511  76.170  -5.160  1.00  0.00    -0.079 SA
BRANCH   8   9
HETATM    9  C4  UNL     1      28.333  77.030  -6.490  1.00  0.00     0.072 C 
HETATM   10  C3  UNL     1      29.105  78.078  -6.287  1.00  0.00     0.087 C 
HETATM   11  C2  UNL     1      29.315  78.576  -4.942  1.00  0.00     0.261 C 
HETATM   12  C14 UNL     1      29.754  78.746  -7.405  1.00  0.00     0.203 C 
HETATM   13  N2  UNL     1      30.157  79.713  -4.768  1.00  0.00    -0.310 N 
HETATM   14  O1  UNL     1      28.775  78.032  -3.945  1.00  0.00    -0.267 OA
HETATM   15  C1  UNL     1      30.789  80.364  -5.848  1.00  0.00     0.116 C 
ATOM     16  H2  UNL     1      30.309  80.071  -3.824  1.00  0.00     0.170 HD
HETATM   17  N1  UNL     1      31.730  81.213  -5.615  1.00  0.00    -0.387 N 
HETATM   18  C15 UNL     1      30.394  80.094  -7.250  1.00  0.00     0.324 C 
ATOM     19  H12 UNL     1      32.002  81.398  -4.649  1.00  0.00     0.157 HD
ATOM     20  H11 UNL     1      32.187  81.683  -6.396  1.00  0.00     0.157 HD
HETATM   21  O4  UNL     1      29.811  78.233  -8.549  1.00  0.00    -0.289 OA
BRANCH  18  22
HETATM   22  N9  UNL     1      29.542  81.143  -7.779  1.00  0.00    -0.061 N 
ATOM     23  H93 UNL     1      29.788  82.053  -7.390  1.00  0.00     0.275 HD
ATOM     24  H92 UNL     1      29.746  81.329  -8.761  1.00  0.00     0.275 HD
ATOM     25  H91 UNL     1      28.553  80.934  -7.638  1.00  0.00     0.275 HD
ENDBRANCH  18  22
ENDBRANCH   8   9
ENDBRANCH   1   8
BRANCH   7  26
HETATM   26  N6  UNL     1      27.874  74.120  -2.437  1.00  0.00    -0.345 N 
HETATM   27  C9  UNL     1      26.431  74.035  -2.215  1.00  0.00     0.169 C 
HETATM   28  C10 UNL     1      26.122  73.868  -0.789  1.00  0.00     0.075 C 
HETATM   29  N7  UNL     1      26.792  74.493   0.097  1.00  0.00    -0.398 N 
HETATM   30  C11 UNL     1      27.864  75.367  -0.366  1.00  0.00     0.153 C 
ATOM     31  H7  UNL     1      26.587  74.386   1.091  1.00  0.00     0.158 HD
HETATM   32  C12 UNL     1      28.680  74.457  -1.311  1.00  0.00     0.193 C 
BRANCH  32  33
HETATM   33  C13 UNL     1      29.063  73.299  -0.461  1.00  0.00     0.255 C 
HETATM   34  N8  UNL     1      28.936  72.003  -0.990  1.00  0.00    -0.060 NA
HETATM   35  O3  UNL     1      29.493  73.472   0.708  1.00  0.00    -0.275 OA
ENDBRANCH  32  33
ENDBRANCH   7  26
BRANCH   4  36
HETATM   36  C7  UNL     1      30.060  71.660  -6.086  1.00  0.00     0.298 C 
HETATM   37  N4  UNL     1      30.381  70.468  -5.405  1.00  0.00    -0.054 NA
HETATM   38  O2  UNL     1      30.391  71.800  -7.279  1.00  0.00    -0.268 OA
ENDBRANCH   4  36
TORSDOF 6
ENDMDL
MODEL 5
REMARK VINA RESULT: -8.703315619      1.538      2.435
REMARK  6 active torsions:
REMARK  status: ('A' for Active; 'I' for Inactive)
REMARK    1  A    between atoms: C4_10  and  S1_11 
REMARK    2  A    between atoms: S1_11  and  C5_12 
REMARK    3  A    between atoms: C6_15  and  C7_16 
REMARK    4  A    between atoms: C8_21  and  N6_22 
REMARK    5  A    between atoms: C12_28  and  C13_29 
REMARK    6  A    between atoms: C15_34  and  N9_35 
ROOT
HETATM    1  C5  UNL     1      29.392  72.985  -5.124  1.00  0.00     0.120 A 
HETATM    2  N3  UNL     1      30.035  71.814  -5.421  1.00  0.00    -0.329 N 
ATOM      3  H3  UNL     1      30.546  71.618  -6.282  1.00  0.00     0.168 HD
HETATM    4  C6  UNL     1      29.882  70.977  -4.402  1.00  0.00     0.174 A 
HETATM    5  N5  UNL     1      29.150  71.618  -3.481  1.00  0.00    -0.322 N 
ATOM      6  H5  UNL     1      28.875  71.215  -2.586  1.00  0.00     0.169 HD
HETATM    7  C8  UNL     1      28.821  72.874  -3.885  1.00  0.00     0.140 A 
ENDROOT
BRANCH   1   8
HETATM    8  S1  UNL     1      29.332  74.377  -6.213  1.00  0.00    -0.079 SA
BRANCH   8   9
HETATM    9  C4  UNL     1      28.960  75.852  -5.278  1.00  0.00     0.072 C 
HETATM   10  C3  UNL     1      29.349  77.051  -5.661  1.00  0.00     0.087 C 
HETATM   11  C2  UNL     1      30.109  77.212  -6.884  1.00  0.00     0.261 C 
HETATM   12  C14 UNL     1      29.020  78.224  -4.864  1.00  0.00     0.203 C 
HETATM   13  N2  UNL     1      30.510  78.528  -7.260  1.00  0.00    -0.310 N 
HETATM   14  O1  UNL     1      30.417  76.229  -7.605  1.00  0.00    -0.267 OA
HETATM   15  C1  UNL     1      30.195  79.667  -6.492  1.00  0.00     0.116 C 
ATOM     16  H2  UNL     1      31.048  78.650  -8.119  1.00  0.00     0.170 HD
HETATM   17  N1  UNL     1      30.355  80.841  -7.001  1.00  0.00    -0.387 N 
HETATM   18  C15 UNL     1      29.682  79.548  -5.107  1.00  0.00     0.324 C 
ATOM     19  H12 UNL     1      30.708  80.922  -7.955  1.00  0.00     0.157 HD
ATOM     20  H11 UNL     1      30.126  81.664  -6.446  1.00  0.00     0.157 HD
HETATM   21  O4  UNL     1      28.173  78.188  -3.939  1.00  0.00    -0.289 OA
BRANCH  18  22
HETATM   22  N9  UNL     1      30.721  79.803  -4.127  1.00  0.00    -0.061 N 
ATOM     23  H93 UNL     1      30.796  79.038  -3.457  1.00  0.00     0.275 HD
ATOM     24  H92 UNL     1      31.650  79.740  -4.544  1.00  0.00     0.275 HD
ATOM     25  H91 UNL     1      30.585  80.698  -3.656  1.00  0.00     0.275 HD
ENDBRANCH  18  22
ENDBRANCH   8   9
ENDBRANCH   1   8
BRANCH   7  26
HETATM   26  N6  UNL     1      28.031  73.754  -3.105  1.00  0.00    -0.345 N 
HETATM   27  C9  UNL     1      26.651  73.983  -3.533  1.00  0.00     0.169 C 
HETATM   28  C10 UNL     1      25.839  74.533  -2.440  1.00  0.00     0.075 C 
HETATM   29  N7  UNL     1      26.329  75.394  -1.638  1.00  0.00    -0.398 N 
HETATM   30  C11 UNL     1      27.713  75.800  -1.855  1.00  0.00     0.153 C 
ATOM     31  H7  UNL     1      25.776  75.784  -0.875  1.00  0.00     0.158 HD
HETATM   32  C12 UNL     1      28.467  74.454  -1.943  1.00  0.00     0.193 C 
BRANCH  32  33
HETATM   33  C13 UNL     1      28.149  73.774  -0.660  1.00  0.00     0.255 C 
HETATM   34  N8  UNL     1      28.190  74.523   0.529  1.00  0.00    -0.060 NA
HETATM   35  O3  UNL     1      27.847  72.553  -0.635  1.00  0.00    -0.275 OA
ENDBRANCH  32  33
ENDBRANCH   7  26
BRANCH   4  36
HETATM   36  C7  UNL     1      30.393  69.605  -4.264  1.00  0.00     0.298 C 
HETATM   37  N4  UNL     1      31.407  69.128  -5.118  1.00  0.00    -0.054 NA
HETATM   38  O2  UNL     1      29.922  68.859  -3.383  1.00  0.00    -0.268 OA
ENDBRANCH   4  36
TORSDOF 6
ENDMDL
