MODEL 1
REMARK VINA RESULT: -9.151986201      0.000      0.000
REMARK  14 active torsions:
REMARK  status: ('A' for Active; 'I' for Inactive)
REMARK    1  A    between atoms: N1_2  and  C2_4 
REMARK    2  A    between atoms: C3_7  and  N3_8 
REMARK    3  A    between atoms: N3_8  and  C4_10 
REMARK    4  A    between atoms: C5_11  and  N4_12 
REMARK    5  A    between atoms: N6_27  and  C10_28 
REMARK    6  A    between atoms: C11_29  and  C12_30 
REMARK    7  A    between atoms: C14_36  and  C15_37 
REMARK    8  A    between atoms: C15_37  and  O7_38 
REMARK    9  A    between atoms: C15_37  and  C16_40 
REMARK   10  A    between atoms: C16_40  and  O8_41 
REMARK   11  A    between atoms: C16_40  and  C17_43 
REMARK   12  A    between atoms: C17_43  and  O9_44 
REMARK   13  A    between atoms: C17_43  and  C18_46 
REMARK   14  A    between atoms: C18_46  and  O10_47 
ROOT
HETATM    1  C2  UNL     1      26.197  72.606  -4.867  1.00  0.00     0.139 A 
HETATM    2  N2  UNL     1      26.700  73.264  -3.784  1.00  0.00    -0.175 N 
ATOM      3  H2  UNL     1      26.083  73.803  -3.177  1.00  0.00     0.186 HD
HETATM    4  C3  UNL     1      28.016  73.195  -3.523  1.00  0.00     0.682 A 
HETATM    5  N5  UNL     1      28.845  72.489  -4.307  1.00  0.00    -0.174 N 
ATOM      6  H5  UNL     1      29.839  72.458  -4.077  1.00  0.00     0.186 HD
HETATM    7  C8  UNL     1      28.398  71.810  -5.406  1.00  0.00     0.156 A 
HETATM    8  C9  UNL     1      27.050  71.893  -5.655  1.00  0.00     0.112 A 
HETATM    9  S2  UNL     1      27.298  70.911  -6.996  1.00  0.00     0.002 SA
HETATM   10  N6  UNL     1      28.868  71.020  -6.410  1.00  0.00    -0.266 N 
ENDROOT
BRANCH  10  11
HETATM   11  C10 UNL     1      30.119  70.480  -6.841  1.00  0.00     0.062 A 
HETATM   12  C11 UNL     1      30.709  70.614  -8.039  1.00  0.00     0.139 A 
HETATM   13  N7  UNL     1      31.948  69.927  -8.034  1.00  0.00    -0.294 N 
HETATM   14  C13 UNL     1      32.979  69.694  -8.985  1.00  0.00     0.251 C 
HETATM   15  C20 UNL     1      32.154  69.340  -6.712  1.00  0.00     0.191 A 
HETATM   16  O6  UNL     1      33.129  70.532  -9.891  1.00  0.00    -0.271 OA
HETATM   17  C14 UNL     1      33.833  68.454  -8.846  1.00  0.00     0.208 C 
HETATM   18  N8  UNL     1      32.956  67.490  -8.233  1.00  0.00    -0.343 N 
HETATM   19  C19 UNL     1      32.385  67.894  -6.983  1.00  0.00     0.242 C 
ATOM     20  H8  UNL     1      32.756  66.584  -8.658  1.00  0.00     0.163 HD
HETATM   21  O11 UNL     1      32.074  67.060  -6.108  1.00  0.00    -0.271 OA
HETATM   22  C21 UNL     1      30.938  69.648  -5.934  1.00  0.00     0.096 A 
BRANCH  12  23
HETATM   23  C12 UNL     1      30.106  71.376  -9.123  1.00  0.00     0.229 C 
HETATM   24  O4  UNL     1      29.605  70.717 -10.105  1.00  0.00    -0.643 OA
HETATM   25  O5  UNL     1      30.048  72.763  -9.150  1.00  0.00    -0.643 OA
ENDBRANCH  12  23
BRANCH  17  26
HETATM   26  C15 UNL     1      34.441  68.101 -10.141  1.00  0.00     0.181 C 
BRANCH  26  27
HETATM   27  O7  UNL     1      33.553  67.820 -11.168  1.00  0.00    -0.390 OA
ATOM     28  H7  UNL     1      33.320  68.553 -11.726  1.00  0.00     0.210 HD
ENDBRANCH  26  27
BRANCH  26  29
HETATM   29  C16 UNL     1      35.656  67.267 -10.166  1.00  0.00     0.180 C 
BRANCH  29  30
HETATM   30  O8  UNL     1      36.069  66.743  -8.950  1.00  0.00    -0.390 OA
ATOM     31  H8  UNL     1      36.869  67.103  -8.586  1.00  0.00     0.210 HD
ENDBRANCH  29  30
BRANCH  29  32
HETATM   32  C17 UNL     1      35.652  66.202 -11.223  1.00  0.00     0.173 C 
BRANCH  32  33
HETATM   33  O9  UNL     1      34.849  65.122 -10.983  1.00  0.00    -0.391 OA
ATOM     34  H9  UNL     1      34.559  64.639 -11.749  1.00  0.00     0.210 HD
ENDBRANCH  32  33
BRANCH  32  35
HETATM   35  C18 UNL     1      37.074  65.659 -11.442  1.00  0.00     0.198 C 
BRANCH  35  36
HETATM   36  O10 UNL     1      37.273  64.581 -10.596  1.00  0.00    -0.398 OA
ATOM     37  H10 UNL     1      38.205  64.481 -10.444  1.00  0.00     0.209 HD
ENDBRANCH  35  36
ENDBRANCH  32  35
ENDBRANCH  29  32
ENDBRANCH  26  29
ENDBRANCH  17  26
ENDBRANCH  10  11
BRANCH   4  38
HETATM   38  N3  UNL     1      28.482  73.824  -2.491  1.00  0.00    -0.203 N 
ATOM     39  H3  UNL     1      29.489  73.963  -2.415  1.00  0.00     0.179 HD
BRANCH  38  40
HETATM   40  C4  UNL     1      27.628  74.337  -1.442  1.00  0.00     0.280 C 
HETATM   41  C5  UNL     1      28.382  75.401  -0.679  1.00  0.00     0.225 C 
HETATM   42  C6  UNL     1      28.683  74.950   0.741  1.00  0.00     0.063 C 
HETATM   43  C7  UNL     1      27.367  74.693   1.444  1.00  0.00     0.192 C 
HETATM   44  O1  UNL     1      26.981  73.380   1.186  1.00  0.00    -0.274 OA
HETATM   45  S1  UNL     1      27.202  72.963  -0.403  1.00  0.00     0.289 S 
HETATM   46  O2  UNL     1      28.231  71.856  -0.558  1.00  0.00    -0.196 OA
HETATM   47  O3  UNL     1      25.891  72.394  -0.921  1.00  0.00    -0.196 OA
BRANCH  41  48
HETATM   48  N4  UNL     1      27.597  76.629  -0.620  1.00  0.00    -0.072 N 
ATOM     49  H43 UNL     1      26.758  76.573  -1.197  1.00  0.00     0.274 HD
ATOM     50  H42 UNL     1      27.147  76.751   0.288  1.00  0.00     0.274 HD
ATOM     51  H41 UNL     1      28.178  77.430  -0.868  1.00  0.00     0.274 HD
ENDBRANCH  41  48
ENDBRANCH  38  40
ENDBRANCH   4  38
BRANCH   1  52
HETATM   52  N1  UNL     1      24.802  72.692  -5.126  1.00  0.00    -0.379 N 
HETATM   53  C1  UNL     1      23.877  73.096  -4.108  1.00  0.00     0.147 C 
ATOM     54  H1  UNL     1      24.451  72.462  -6.056  1.00  0.00     0.160 HD
ENDBRANCH   1  52
TORSDOF 14
ENDMDL
MODEL 2
REMARK VINA RESULT: -8.624187162      2.683      4.665
REMARK  14 active torsions:
REMARK  status: ('A' for Active; 'I' for Inactive)
REMARK    1  A    between atoms: N1_2  and  C2_4 
REMARK    2  A    between atoms: C3_7  and  N3_8 
REMARK    3  A    between atoms: N3_8  and  C4_10 
REMARK    4  A    between atoms: C5_11  and  N4_12 
REMARK    5  A    between atoms: N6_27  and  C10_28 
REMARK    6  A    between atoms: C11_29  and  C12_30 
REMARK    7  A    between atoms: C14_36  and  C15_37 
REMARK    8  A    between atoms: C15_37  and  O7_38 
REMARK    9  A    between atoms: C15_37  and  C16_40 
REMARK   10  A    between atoms: C16_40  and  O8_41 
REMARK   11  A    between atoms: C16_40  and  C17_43 
REMARK   12  A    between atoms: C17_43  and  O9_44 
REMARK   13  A    between atoms: C17_43  and  C18_46 
REMARK   14  A    between atoms: C18_46  and  O10_47 
ROOT
HETATM    1  C2  UNL     1      27.225  73.511  -2.501  1.00  0.00     0.139 A 
HETATM    2  N2  UNL     1      25.939  73.429  -2.945  1.00  0.00    -0.175 N 
ATOM      3  H2  UNL     1      25.177  73.820  -2.391  1.00  0.00     0.186 HD
HETATM    4  C3  UNL     1      25.683  72.828  -4.119  1.00  0.00     0.682 A 
HETATM    5  N5  UNL     1      26.670  72.308  -4.864  1.00  0.00    -0.174 N 
ATOM      6  H5  UNL     1      26.439  71.860  -5.751  1.00  0.00     0.186 HD
HETATM    7  C8  UNL     1      27.978  72.360  -4.470  1.00  0.00     0.156 A 
HETATM    8  C9  UNL     1      28.218  72.979  -3.266  1.00  0.00     0.112 A 
HETATM    9  S2  UNL     1      29.851  72.657  -3.496  1.00  0.00     0.002 SA
HETATM   10  N6  UNL     1      29.215  71.982  -4.895  1.00  0.00    -0.266 N 
ENDROOT
BRANCH  10  11
HETATM   11  C10 UNL     1      29.794  71.309  -6.015  1.00  0.00     0.062 A 
HETATM   12  C11 UNL     1      30.407  70.116  -6.037  1.00  0.00     0.139 A 
HETATM   13  N7  UNL     1      30.820  69.821  -7.360  1.00  0.00    -0.294 N 
HETATM   14  C13 UNL     1      31.517  68.753  -7.988  1.00  0.00     0.251 C 
HETATM   15  C20 UNL     1      30.405  70.916  -8.235  1.00  0.00     0.191 A 
HETATM   16  O6  UNL     1      31.444  67.628  -7.463  1.00  0.00    -0.271 OA
HETATM   17  C14 UNL     1      32.301  69.035  -9.250  1.00  0.00     0.208 C 
HETATM   18  N8  UNL     1      32.722  70.405  -9.104  1.00  0.00    -0.343 N 
HETATM   19  C19 UNL     1      31.663  71.349  -8.905  1.00  0.00     0.242 C 
ATOM     20  H8  UNL     1      33.703  70.684  -9.140  1.00  0.00     0.163 HD
HETATM   21  O11 UNL     1      31.768  72.535  -9.280  1.00  0.00    -0.271 OA
HETATM   22  C21 UNL     1      29.778  71.925  -7.359  1.00  0.00     0.096 A 
BRANCH  12  23
HETATM   23  C12 UNL     1      30.570  69.302  -4.841  1.00  0.00     0.229 C 
HETATM   24  O4  UNL     1      31.721  68.769  -4.638  1.00  0.00    -0.643 OA
HETATM   25  O5  UNL     1      29.557  69.073  -3.920  1.00  0.00    -0.643 OA
ENDBRANCH  12  23
BRANCH  17  26
HETATM   26  C15 UNL     1      33.346  68.015  -9.444  1.00  0.00     0.181 C 
BRANCH  26  27
HETATM   27  O7  UNL     1      32.895  66.734  -9.721  1.00  0.00    -0.390 OA
ATOM     28  H7  UNL     1      33.441  66.220 -10.305  1.00  0.00     0.210 HD
ENDBRANCH  26  27
BRANCH  26  29
HETATM   29  C16 UNL     1      34.553  68.045  -8.598  1.00  0.00     0.180 C 
BRANCH  29  30
HETATM   30  O8  UNL     1      34.442  67.458  -7.346  1.00  0.00    -0.390 OA
ATOM     31  H8  UNL     1      35.126  67.668  -6.721  1.00  0.00     0.210 HD
ENDBRANCH  29  30
BRANCH  29  32
HETATM   32  C17 UNL     1      35.802  67.580  -9.287  1.00  0.00     0.173 C 
BRANCH  32  33
HETATM   33  O9  UNL     1      35.877  66.241  -9.553  1.00  0.00    -0.391 OA
ATOM     34  H9  UNL     1      35.472  65.954 -10.363  1.00  0.00     0.210 HD
ENDBRANCH  32  33
BRANCH  32  35
HETATM   35  C18 UNL     1      37.041  67.938  -8.450  1.00  0.00     0.198 C 
BRANCH  35  36
HETATM   36  O10 UNL     1      37.117  67.067  -7.376  1.00  0.00    -0.398 OA
ATOM     37  H10 UNL     1      37.177  67.575  -6.576  1.00  0.00     0.209 HD
ENDBRANCH  35  36
ENDBRANCH  32  35
ENDBRANCH  29  32
ENDBRANCH  26  29
ENDBRANCH  17  26
ENDBRANCH  10  11
BRANCH   4  38
HETATM   38  N3  UNL     1      24.456  72.757  -4.530  1.00  0.00    -0.203 N 
ATOM     39  H3  UNL     1      24.207  72.037  -5.207  1.00  0.00     0.179 HD
BRANCH  38  40
HETATM   40  C4  UNL     1      23.426  73.659  -4.064  1.00  0.00     0.280 C 
HETATM   41  C5  UNL     1      22.418  72.871  -3.261  1.00  0.00     0.225 C 
HETATM   42  C6  UNL     1      21.075  72.814  -3.970  1.00  0.00     0.063 C 
HETATM   43  C7  UNL     1      20.564  74.230  -4.131  1.00  0.00     0.192 C 
HETATM   44  O1  UNL     1      21.084  74.753  -5.313  1.00  0.00    -0.274 OA
HETATM   45  S1  UNL     1      22.691  74.391  -5.503  1.00  0.00     0.289 S 
HETATM   46  O2  UNL     1      22.931  73.508  -6.715  1.00  0.00    -0.196 OA
HETATM   47  O3  UNL     1      23.430  75.691  -5.776  1.00  0.00    -0.196 OA
BRANCH  41  48
HETATM   48  N4  UNL     1      22.226  73.486  -1.953  1.00  0.00    -0.072 N 
ATOM     49  H43 UNL     1      22.641  74.417  -1.904  1.00  0.00     0.274 HD
ATOM     50  H42 UNL     1      21.253  73.748  -1.793  1.00  0.00     0.274 HD
ATOM     51  H41 UNL     1      22.582  72.872  -1.220  1.00  0.00     0.274 HD
ENDBRANCH  41  48
ENDBRANCH  38  40
ENDBRANCH   4  38
BRANCH   1  52
HETATM   52  N1  UNL     1      27.474  74.150  -1.255  1.00  0.00    -0.379 N 
HETATM   53  C1  UNL     1      27.350  73.443  -0.014  1.00  0.00     0.147 C 
ATOM     54  H1  UNL     1      27.746  75.133  -1.245  1.00  0.00     0.160 HD
ENDBRANCH   1  52
TORSDOF 14
ENDMDL
MODEL 3
REMARK VINA RESULT: -8.512154964      2.245      2.582
REMARK  14 active torsions:
REMARK  status: ('A' for Active; 'I' for Inactive)
REMARK    1  A    between atoms: N1_2  and  C2_4 
REMARK    2  A    between atoms: C3_7  and  N3_8 
REMARK    3  A    between atoms: N3_8  and  C4_10 
REMARK    4  A    between atoms: C5_11  and  N4_12 
REMARK    5  A    between atoms: N6_27  and  C10_28 
REMARK    6  A    between atoms: C11_29  and  C12_30 
REMARK    7  A    between atoms: C14_36  and  C15_37 
REMARK    8  A    between atoms: C15_37  and  O7_38 
REMARK    9  A    between atoms: C15_37  and  C16_40 
REMARK   10  A    between atoms: C16_40  and  O8_41 
REMARK   11  A    between atoms: C16_40  and  C17_43 
REMARK   12  A    between atoms: C17_43  and  O9_44 
REMARK   13  A    between atoms: C17_43  and  C18_46 
REMARK   14  A    between atoms: C18_46  and  O10_47 
ROOT
HETATM    1  C2  UNL     1      25.832  73.070  -6.676  1.00  0.00     0.139 A 
HETATM    2  N2  UNL     1      26.275  74.241  -6.137  1.00  0.00    -0.175 N 
ATOM      3  H2  UNL     1      25.610  74.943  -5.814  1.00  0.00     0.186 HD
HETATM    4  C3  UNL     1      27.596  74.462  -6.034  1.00  0.00     0.682 A 
HETATM    5  N5  UNL     1      28.489  73.551  -6.451  1.00  0.00    -0.174 N 
ATOM      6  H5  UNL     1      29.484  73.753  -6.356  1.00  0.00     0.186 HD
HETATM    7  C8  UNL     1      28.103  72.359  -6.999  1.00  0.00     0.156 A 
HETATM    8  C9  UNL     1      26.748  72.153  -7.095  1.00  0.00     0.112 A 
HETATM    9  S2  UNL     1      27.086  70.657  -7.781  1.00  0.00     0.002 SA
HETATM   10  N6  UNL     1      28.645  71.224  -7.519  1.00  0.00    -0.266 N 
ENDROOT
BRANCH  10  11
HETATM   11  C10 UNL     1      29.943  70.681  -7.767  1.00  0.00     0.062 A 
HETATM   12  C11 UNL     1      30.678  70.771  -8.886  1.00  0.00     0.139 A 
HETATM   13  N7  UNL     1      31.911  70.101  -8.696  1.00  0.00    -0.294 N 
HETATM   14  C13 UNL     1      33.056  69.840  -9.499  1.00  0.00     0.251 C 
HETATM   15  C20 UNL     1      31.953  69.572  -7.334  1.00  0.00     0.191 A 
HETATM   16  O6  UNL     1      33.313  70.640 -10.415  1.00  0.00    -0.271 OA
HETATM   17  C14 UNL     1      33.893  68.617  -9.200  1.00  0.00     0.208 C 
HETATM   18  N8  UNL     1      32.952  67.669  -8.660  1.00  0.00    -0.343 N 
HETATM   19  C19 UNL     1      32.226  68.119  -7.510  1.00  0.00     0.242 C 
ATOM     20  H8  UNL     1      32.813  66.743  -9.067  1.00  0.00     0.163 HD
HETATM   21  O11 UNL     1      31.813  67.319  -6.646  1.00  0.00    -0.271 OA
HETATM   22  C21 UNL     1      30.647  69.898  -6.728  1.00  0.00     0.096 A 
BRANCH  12  23
HETATM   23  C12 UNL     1      30.212  71.480 -10.069  1.00  0.00     0.229 C 
HETATM   24  O4  UNL     1      30.426  72.745 -10.126  1.00  0.00    -0.643 OA
HETATM   25  O5  UNL     1      29.552  70.866 -11.125  1.00  0.00    -0.643 OA
ENDBRANCH  12  23
BRANCH  17  26
HETATM   26  C15 UNL     1      34.661  68.217 -10.392  1.00  0.00     0.181 C 
BRANCH  26  27
HETATM   27  O7  UNL     1      33.933  68.090 -11.565  1.00  0.00    -0.390 OA
ATOM     28  H7  UNL     1      34.327  68.474 -12.339  1.00  0.00     0.210 HD
ENDBRANCH  26  27
BRANCH  26  29
HETATM   29  C16 UNL     1      35.741  67.222 -10.256  1.00  0.00     0.180 C 
BRANCH  29  30
HETATM   30  O8  UNL     1      35.978  66.741  -8.977  1.00  0.00    -0.390 OA
ATOM     31  H8  UNL     1      35.686  65.855  -8.800  1.00  0.00     0.210 HD
ENDBRANCH  29  30
BRANCH  29  32
HETATM   32  C17 UNL     1      35.662  66.089 -11.237  1.00  0.00     0.173 C 
BRANCH  32  33
HETATM   33  O9  UNL     1      34.813  65.069 -10.909  1.00  0.00    -0.391 OA
ATOM     34  H9  UNL     1      35.155  64.190 -11.018  1.00  0.00     0.210 HD
ENDBRANCH  32  33
BRANCH  32  35
HETATM   35  C18 UNL     1      37.052  65.463 -11.444  1.00  0.00     0.198 C 
BRANCH  35  36
HETATM   36  O10 UNL     1      37.249  64.491 -10.477  1.00  0.00    -0.398 OA
ATOM     37  H10 UNL     1      38.150  64.196 -10.522  1.00  0.00     0.209 HD
ENDBRANCH  35  36
ENDBRANCH  32  35
ENDBRANCH  29  32
ENDBRANCH  26  29
ENDBRANCH  17  26
ENDBRANCH  10  11
BRANCH   4  38
HETATM   38  N3  UNL     1      28.005  75.579  -5.520  1.00  0.00    -0.203 N 
ATOM     39  H3  UNL     1      28.081  76.397  -6.123  1.00  0.00     0.179 HD
BRANCH  38  40
HETATM   40  C4  UNL     1      28.357  75.709  -4.123  1.00  0.00     0.280 C 
HETATM   41  C5  UNL     1      27.773  74.541  -3.364  1.00  0.00     0.225 C 
HETATM   42  C6  UNL     1      26.678  74.995  -2.414  1.00  0.00     0.063 C 
HETATM   43  C7  UNL     1      27.285  75.961  -1.419  1.00  0.00     0.192 C 
HETATM   44  O1  UNL     1      27.240  77.241  -1.967  1.00  0.00    -0.274 OA
HETATM   45  S1  UNL     1      27.688  77.255  -3.563  1.00  0.00     0.289 S 
HETATM   46  O2  UNL     1      26.545  77.683  -4.467  1.00  0.00    -0.196 OA
HETATM   47  O3  UNL     1      28.774  78.304  -3.732  1.00  0.00    -0.196 OA
BRANCH  41  48
HETATM   48  N4  UNL     1      28.813  73.874  -2.590  1.00  0.00    -0.072 N 
ATOM     49  H43 UNL     1      29.327  73.193  -3.148  1.00  0.00     0.274 HD
ATOM     50  H42 UNL     1      29.587  74.502  -2.369  1.00  0.00     0.274 HD
ATOM     51  H41 UNL     1      28.412  73.454  -1.750  1.00  0.00     0.274 HD
ENDBRANCH  41  48
ENDBRANCH  38  40
ENDBRANCH   4  38
BRANCH   1  52
HETATM   52  N1  UNL     1      24.430  72.856  -6.775  1.00  0.00    -0.379 N 
HETATM   53  C1  UNL     1      23.607  72.741  -5.607  1.00  0.00     0.147 C 
ATOM     54  H1  UNL     1      24.001  72.782  -7.698  1.00  0.00     0.160 HD
ENDBRANCH   1  52
TORSDOF 14
ENDMDL
MODEL 4
REMARK VINA RESULT: -8.475322989      1.179      1.558
REMARK  14 active torsions:
REMARK  status: ('A' for Active; 'I' for Inactive)
REMARK    1  A    between atoms: N1_2  and  C2_4 
REMARK    2  A    between atoms: C3_7  and  N3_8 
REMARK    3  A    between atoms: N3_8  and  C4_10 
REMARK    4  A    between atoms: C5_11  and  N4_12 
REMARK    5  A    between atoms: N6_27  and  C10_28 
REMARK    6  A    between atoms: C11_29  and  C12_30 
REMARK    7  A    between atoms: C14_36  and  C15_37 
REMARK    8  A    between atoms: C15_37  and  O7_38 
REMARK    9  A    between atoms: C15_37  and  C16_40 
REMARK   10  A    between atoms: C16_40  and  O8_41 
REMARK   11  A    between atoms: C16_40  and  C17_43 
REMARK   12  A    between atoms: C17_43  and  O9_44 
REMARK   13  A    between atoms: C17_43  and  C18_46 
REMARK   14  A    between atoms: C18_46  and  O10_47 
ROOT
HETATM    1  C2  UNL     1      26.135  72.649  -5.244  1.00  0.00     0.139 A 
HETATM    2  N2  UNL     1      26.648  73.593  -4.405  1.00  0.00    -0.175 N 
ATOM      3  H2  UNL     1      26.026  74.217  -3.890  1.00  0.00     0.186 HD
HETATM    4  C3  UNL     1      27.979  73.696  -4.264  1.00  0.00     0.682 A 
HETATM    5  N5  UNL     1      28.815  72.885  -4.930  1.00  0.00    -0.174 N 
ATOM      6  H5  UNL     1      29.821  72.992  -4.797  1.00  0.00     0.186 HD
HETATM    7  C8  UNL     1      28.358  71.921  -5.784  1.00  0.00     0.156 A 
HETATM    8  C9  UNL     1      26.994  71.832  -5.915  1.00  0.00     0.112 A 
HETATM    9  S2  UNL     1      27.240  70.570  -6.997  1.00  0.00     0.002 SA
HETATM   10  N6  UNL     1      28.830  70.945  -6.608  1.00  0.00    -0.266 N 
ENDROOT
BRANCH  10  11
HETATM   11  C10 UNL     1      30.093  70.416  -7.016  1.00  0.00     0.062 A 
HETATM   12  C11 UNL     1      30.703  70.551  -8.203  1.00  0.00     0.139 A 
HETATM   13  N7  UNL     1      31.948  69.876  -8.174  1.00  0.00    -0.294 N 
HETATM   14  C13 UNL     1      32.999  69.649  -9.105  1.00  0.00     0.251 C 
HETATM   15  C20 UNL     1      32.136  69.296  -6.846  1.00  0.00     0.191 A 
HETATM   16  O6  UNL     1      33.157  70.485 -10.012  1.00  0.00    -0.271 OA
HETATM   17  C14 UNL     1      33.862  68.418  -8.946  1.00  0.00     0.208 C 
HETATM   18  N8  UNL     1      32.983  67.447  -8.344  1.00  0.00    -0.343 N 
HETATM   19  C19 UNL     1      32.386  67.851  -7.106  1.00  0.00     0.242 C 
ATOM     20  H8  UNL     1      32.799  66.538  -8.769  1.00  0.00     0.163 HD
HETATM   21  O11 UNL     1      32.067  67.017  -6.234  1.00  0.00    -0.271 OA
HETATM   22  C21 UNL     1      30.904  69.595  -6.091  1.00  0.00     0.096 A 
BRANCH  12  23
HETATM   23  C12 UNL     1      30.113  71.303  -9.301  1.00  0.00     0.229 C 
HETATM   24  O4  UNL     1      29.608  70.635 -10.275  1.00  0.00    -0.643 OA
HETATM   25  O5  UNL     1      30.069  72.689  -9.349  1.00  0.00    -0.643 OA
ENDBRANCH  12  23
BRANCH  17  26
HETATM   26  C15 UNL     1      34.495  68.066 -10.228  1.00  0.00     0.181 C 
BRANCH  26  27
HETATM   27  O7  UNL     1      33.630  67.824 -11.284  1.00  0.00    -0.390 OA
ATOM     28  H7  UNL     1      34.016  67.419 -12.051  1.00  0.00     0.210 HD
ENDBRANCH  26  27
BRANCH  26  29
HETATM   29  C16 UNL     1      35.687  67.198 -10.232  1.00  0.00     0.180 C 
BRANCH  29  30
HETATM   30  O8  UNL     1      36.064  66.664  -9.008  1.00  0.00    -0.390 OA
ATOM     31  H8  UNL     1      35.980  65.723  -8.916  1.00  0.00     0.210 HD
ENDBRANCH  29  30
BRANCH  29  32
HETATM   32  C17 UNL     1      35.670  66.130 -11.287  1.00  0.00     0.173 C 
BRANCH  32  33
HETATM   33  O9  UNL     1      34.889  65.040 -11.025  1.00  0.00    -0.391 OA
ATOM     34  H9  UNL     1      35.234  64.201 -11.308  1.00  0.00     0.210 HD
ENDBRANCH  32  33
BRANCH  32  35
HETATM   35  C18 UNL     1      37.094  65.608 -11.543  1.00  0.00     0.198 C 
BRANCH  35  36
HETATM   36  O10 UNL     1      37.336  64.544 -10.689  1.00  0.00    -0.398 OA
ATOM     37  H10 UNL     1      38.030  64.788 -10.089  1.00  0.00     0.209 HD
ENDBRANCH  35  36
ENDBRANCH  32  35
ENDBRANCH  29  32
ENDBRANCH  26  29
ENDBRANCH  17  26
ENDBRANCH  10  11
BRANCH   4  38
HETATM   38  N3  UNL     1      28.455  74.598  -3.464  1.00  0.00    -0.203 N 
ATOM     39  H3  UNL     1      28.740  75.496  -3.852  1.00  0.00     0.179 HD
BRANCH  38  40
HETATM   40  C4  UNL     1      28.595  74.379  -2.041  1.00  0.00     0.280 C 
HETATM   41  C5  UNL     1      28.410  72.907  -1.755  1.00  0.00     0.225 C 
HETATM   42  C6  UNL     1      27.137  72.656  -0.965  1.00  0.00     0.063 C 
HETATM   43  C7  UNL     1      27.246  73.393   0.354  1.00  0.00     0.192 C 
HETATM   44  O1  UNL     1      26.787  74.695   0.167  1.00  0.00    -0.274 OA
HETATM   45  S1  UNL     1      27.354  75.363  -1.241  1.00  0.00     0.289 S 
HETATM   46  O2  UNL     1      26.228  75.669  -2.213  1.00  0.00    -0.196 OA
HETATM   47  O3  UNL     1      27.989  76.700  -0.898  1.00  0.00    -0.196 OA
BRANCH  41  48
HETATM   48  N4  UNL     1      29.540  72.397  -0.989  1.00  0.00    -0.072 N 
ATOM     49  H43 UNL     1      30.395  72.921  -1.176  1.00  0.00     0.274 HD
ATOM     50  H42 UNL     1      29.452  72.606   0.006  1.00  0.00     0.274 HD
ATOM     51  H41 UNL     1      29.660  71.398  -1.160  1.00  0.00     0.274 HD
ENDBRANCH  41  48
ENDBRANCH  38  40
ENDBRANCH   4  38
BRANCH   1  52
HETATM   52  N1  UNL     1      24.722  72.557  -5.380  1.00  0.00    -0.379 N 
HETATM   53  C1  UNL     1      23.842  72.956  -4.321  1.00  0.00     0.147 C 
ATOM     54  H1  UNL     1      24.327  72.200  -6.250  1.00  0.00     0.160 HD
ENDBRANCH   1  52
TORSDOF 14
ENDMDL
MODEL 5
REMARK VINA RESULT: -8.468569742      5.790     12.443
REMARK  14 active torsions:
REMARK  status: ('A' for Active; 'I' for Inactive)
REMARK    1  A    between atoms: N1_2  and  C2_4 
REMARK    2  A    between atoms: C3_7  and  N3_8 
REMARK    3  A    between atoms: N3_8  and  C4_10 
REMARK    4  A    between atoms: C5_11  and  N4_12 
REMARK    5  A    between atoms: N6_27  and  C10_28 
REMARK    6  A    between atoms: C11_29  and  C12_30 
REMARK    7  A    between atoms: C14_36  and  C15_37 
REMARK    8  A    between atoms: C15_37  and  O7_38 
REMARK    9  A    between atoms: C15_37  and  C16_40 
REMARK   10  A    between atoms: C16_40  and  O8_41 
REMARK   11  A    between atoms: C16_40  and  C17_43 
REMARK   12  A    between atoms: C17_43  and  O9_44 
REMARK   13  A    between atoms: C17_43  and  C18_46 
REMARK   14  A    between atoms: C18_46  and  O10_47 
ROOT
HETATM    1  C2  UNL     1      28.534  73.181  -6.704  1.00  0.00     0.139 A 
HETATM    2  N2  UNL     1      27.761  72.222  -7.289  1.00  0.00    -0.175 N 
ATOM      3  H2  UNL     1      27.887  71.989  -8.274  1.00  0.00     0.186 HD
HETATM    4  C3  UNL     1      26.833  71.586  -6.556  1.00  0.00     0.682 A 
HETATM    5  N5  UNL     1      26.651  71.875  -5.258  1.00  0.00    -0.174 N 
ATOM      6  H5  UNL     1      25.937  71.371  -4.733  1.00  0.00     0.186 HD
HETATM    7  C8  UNL     1      27.396  72.827  -4.619  1.00  0.00     0.156 A 
HETATM    8  C9  UNL     1      28.340  73.466  -5.386  1.00  0.00     0.112 A 
HETATM    9  S2  UNL     1      28.756  74.358  -4.024  1.00  0.00     0.002 SA
HETATM   10  N6  UNL     1      27.531  73.399  -3.391  1.00  0.00    -0.266 N 
ENDROOT
BRANCH  10  11
HETATM   11  C10 UNL     1      26.938  73.289  -2.096  1.00  0.00     0.062 A 
HETATM   12  C11 UNL     1      25.642  73.400  -1.768  1.00  0.00     0.139 A 
HETATM   13  N7  UNL     1      25.490  73.208  -0.372  1.00  0.00    -0.294 N 
HETATM   14  C13 UNL     1      24.399  73.229   0.540  1.00  0.00     0.251 C 
HETATM   15  C20 UNL     1      26.802  72.930   0.209  1.00  0.00     0.191 A 
HETATM   16  O6  UNL     1      23.271  72.952   0.097  1.00  0.00    -0.271 OA
HETATM   17  C14 UNL     1      24.664  73.584   1.986  1.00  0.00     0.208 C 
HETATM   18  N8  UNL     1      25.791  74.479   1.929  1.00  0.00    -0.343 N 
HETATM   19  C19 UNL     1      26.955  73.952   1.281  1.00  0.00     0.242 C 
ATOM     20  H8  UNL     1      25.763  75.420   2.321  1.00  0.00     0.163 HD
HETATM   21  O11 UNL     1      28.103  74.330   1.594  1.00  0.00    -0.271 OA
HETATM   22  C21 UNL     1      27.770  73.033  -0.901  1.00  0.00     0.096 A 
BRANCH  12  23
HETATM   23  C12 UNL     1      24.608  73.665  -2.757  1.00  0.00     0.229 C 
HETATM   24  O4  UNL     1      24.731  74.723  -3.475  1.00  0.00    -0.643 OA
HETATM   25  O5  UNL     1      23.507  72.844  -2.961  1.00  0.00    -0.643 OA
ENDBRANCH  12  23
BRANCH  17  26
HETATM   26  C15 UNL     1      23.432  74.074   2.628  1.00  0.00     0.181 C 
BRANCH  26  27
HETATM   27  O7  UNL     1      22.541  74.736   1.799  1.00  0.00    -0.390 OA
ATOM     28  H7  UNL     1      21.739  74.269   1.595  1.00  0.00     0.210 HD
ENDBRANCH  26  27
BRANCH  26  29
HETATM   29  C16 UNL     1      23.500  74.636   3.990  1.00  0.00     0.180 C 
BRANCH  29  30
HETATM   30  O8  UNL     1      23.804  75.986   4.084  1.00  0.00    -0.390 OA
ATOM     31  H8  UNL     1      24.096  76.293   4.934  1.00  0.00     0.210 HD
ENDBRANCH  29  30
BRANCH  29  32
HETATM   32  C17 UNL     1      22.321  74.302   4.855  1.00  0.00     0.173 C 
BRANCH  32  33
HETATM   33  O9  UNL     1      21.330  73.569   4.263  1.00  0.00    -0.391 OA
ATOM     34  H9  UNL     1      20.768  74.038   3.658  1.00  0.00     0.210 HD
ENDBRANCH  32  33
BRANCH  32  35
HETATM   35  C18 UNL     1      21.666  75.587   5.388  1.00  0.00     0.198 C 
BRANCH  35  36
HETATM   36  O10 UNL     1      20.935  75.275   6.522  1.00  0.00    -0.398 OA
ATOM     37  H10 UNL     1      20.016  75.438   6.345  1.00  0.00     0.209 HD
ENDBRANCH  35  36
ENDBRANCH  32  35
ENDBRANCH  29  32
ENDBRANCH  26  29
ENDBRANCH  17  26
ENDBRANCH  10  11
BRANCH   4  38
HETATM   38  N3  UNL     1      26.105  70.676  -7.123  1.00  0.00    -0.203 N 
ATOM     39  H3  UNL     1      26.267  69.699  -6.882  1.00  0.00     0.179 HD
BRANCH  38  40
HETATM   40  C4  UNL     1      25.071  70.994  -8.084  1.00  0.00     0.280 C 
HETATM   41  C5  UNL     1      24.058  71.900  -7.425  1.00  0.00     0.225 C 
HETATM   42  C6  UNL     1      22.720  71.200  -7.259  1.00  0.00     0.063 C 
HETATM   43  C7  UNL     1      22.209  70.824  -8.634  1.00  0.00     0.192 C 
HETATM   44  O1  UNL     1      22.736  69.580  -8.972  1.00  0.00    -0.274 OA
HETATM   45  S1  UNL     1      24.344  69.456  -8.589  1.00  0.00     0.289 S 
HETATM   46  O2  UNL     1      24.592  68.393  -7.532  1.00  0.00    -0.196 OA
HETATM   47  O3  UNL     1      25.084  68.993  -9.833  1.00  0.00    -0.196 OA
BRANCH  41  48
HETATM   48  N4  UNL     1      23.858  73.099  -8.230  1.00  0.00    -0.072 N 
ATOM     49  H43 UNL     1      24.534  73.164  -8.992  1.00  0.00     0.274 HD
ATOM     50  H42 UNL     1      23.007  73.046  -8.790  1.00  0.00     0.274 HD
ATOM     51  H41 UNL     1      23.873  73.929  -7.636  1.00  0.00     0.274 HD
ENDBRANCH  41  48
ENDBRANCH  38  40
ENDBRANCH   4  38
BRANCH   1  52
HETATM   52  N1  UNL     1      29.511  73.843  -7.498  1.00  0.00    -0.379 N 
HETATM   53  C1  UNL     1      30.834  74.088  -7.003  1.00  0.00     0.147 C 
ATOM     54  H1  UNL     1      29.265  74.149  -8.439  1.00  0.00     0.160 HD
ENDBRANCH   1  52
TORSDOF 14
ENDMDL
