MODEL 1
REMARK VINA RESULT: -10.411907210      0.000      0.000
REMARK  14 active torsions:
REMARK  status: ('A' for Active; 'I' for Inactive)
REMARK    1  A    between atoms: C2_7  and  N3_8 
REMARK    2  A    between atoms: C4_10  and  N4_11 
REMARK    3  A    between atoms: N4_11  and  C5_13 
REMARK    4  A    between atoms: C5_13  and  O1_14 
REMARK    5  A    between atoms: C5_13  and  C6_16 
REMARK    6  A    between atoms: C6_16  and  N5_17 
REMARK    7  A    between atoms: C6_16  and  C7_21 
REMARK    8  A    between atoms: C7_21  and  C8_22 
REMARK    9  A    between atoms: C8_22  and  N6_23 
REMARK       I    between atoms: N6_23  and  C9_25 
REMARK   10  A    between atoms: C9_25  and  C10_27 
REMARK   11  A    between atoms: C10_27  and  N7_28 
REMARK   12  A    between atoms: C10_27  and  C11_32 
REMARK   13  A    between atoms: C18_47  and  C19_48 
REMARK   14  A    between atoms: C20_53  and  N12_54 
ROOT
HETATM    1  N3  UNL     1      27.998  73.279  -4.793  1.00  0.00    -0.253 N 
HETATM    2  C3  UNL     1      28.307  74.455  -4.030  1.00  0.00     0.168 C 
HETATM    3  C4  UNL     1      27.570  74.390  -2.723  1.00  0.00     0.103 C 
HETATM    4  C14 UNL     1      26.087  74.446  -2.868  1.00  0.00     0.043 C 
HETATM    5  C15 UNL     1      25.472  73.275  -3.562  1.00  0.00     0.165 C 
HETATM    6  S1  UNL     1      26.302  73.022  -5.128  1.00  0.00     0.234 S 
HETATM    7  O3  UNL     1      25.794  74.064  -6.074  1.00  0.00    -0.205 OA
HETATM    8  O4  UNL     1      26.042  71.641  -5.612  1.00  0.00    -0.205 OA
ENDROOT
BRANCH   1   9
HETATM    9  C2  UNL     1      28.931  72.341  -5.278  1.00  0.00     0.164 A 
HETATM   10  N2  UNL     1      29.218  71.264  -4.543  1.00  0.00    -0.321 N 
HETATM   11  C1  UNL     1      30.057  70.283  -4.825  1.00  0.00     0.119 A 
ATOM     12  H2  UNL     1      28.728  71.189  -3.652  1.00  0.00     0.169 HD
HETATM   13  N1  UNL     1      30.192  69.321  -3.972  1.00  0.00    -0.385 N 
HETATM   14  C22 UNL     1      30.832  70.162  -5.968  1.00  0.00     0.112 A 
ATOM     15  H12 UNL     1      29.621  69.410  -3.131  1.00  0.00     0.157 HD
ATOM     16  H11 UNL     1      30.839  68.564  -4.190  1.00  0.00     0.157 HD
HETATM   17  C16 UNL     1      30.843  71.069  -7.002  1.00  0.00     0.113 A 
HETATM   18  C21 UNL     1      31.684  69.061  -6.131  1.00  0.00     0.301 A 
HETATM   19  S2  UNL     1      29.782  72.404  -6.751  1.00  0.00    -0.034 SA
HETATM   20  N8  UNL     1      31.614  70.884  -8.062  1.00  0.00    -0.183 N 
HETATM   21  C17 UNL     1      32.434  69.824  -8.221  1.00  0.00     0.709 A 
ATOM     22  H8  UNL     1      31.586  71.584  -8.803  1.00  0.00     0.185 HD
HETATM   23  N9  UNL     1      33.203  69.664  -9.306  1.00  0.00    -0.170 N 
HETATM   24  N13 UNL     1      32.447  68.918  -7.228  1.00  0.00     0.061 N 
HETATM   25  C18 UNL     1      34.030  68.593  -9.464  1.00  0.00     0.201 A 
ATOM     26  H9  UNL     1      33.168  70.371 -10.041  1.00  0.00     0.186 HD
HETATM   27  N11 UNL     1      34.039  67.690  -8.467  1.00  0.00    -0.170 N 
HETATM   28  C20 UNL     1      33.268  67.847  -7.376  1.00  0.00     0.702 A 
ATOM     29  H11 UNL     1      34.643  66.871  -8.539  1.00  0.00     0.186 HD
HETATM   30  O6  UNL     1      31.736  68.178  -5.229  1.00  0.00    -0.265 OA
BRANCH  25  31
HETATM   31  C19 UNL     1      34.855  68.436 -10.647  1.00  0.00     0.299 C 
HETATM   32  N10 UNL     1      35.730  67.334 -10.774  1.00  0.00    -0.054 NA
HETATM   33  O5  UNL     1      34.774  69.296 -11.550  1.00  0.00    -0.268 OA
ENDBRANCH  25  31
BRANCH  28  34
HETATM   34  N12 UNL     1      33.272  66.979  -6.410  1.00  0.00    -0.233 N 
ATOM     35 2H12 UNL     1      33.523  66.021  -6.657  1.00  0.00     0.174 HD
ATOM     36 1H12 UNL     1      33.036  67.243  -5.454  1.00  0.00     0.174 HD
ENDBRANCH  28  34
ENDBRANCH   1   9
BRANCH   3  37
HETATM   37  N4  UNL     1      27.943  75.610  -1.965  1.00  0.00    -0.366 N 
ATOM     38  H4  UNL     1      28.129  76.483  -2.457  1.00  0.00     0.161 HD
BRANCH  37  39
HETATM   39  C5  UNL     1      28.039  75.551  -0.571  1.00  0.00     0.146 C 
BRANCH  39  40
HETATM   40  O1  UNL     1      27.468  76.569   0.028  1.00  0.00    -0.348 OA
ATOM     41  H1  UNL     1      27.424  76.470   0.972  1.00  0.00     0.219 HD
ENDBRANCH  39  40
BRANCH  39  42
HETATM   42  C6  UNL     1      28.667  74.544   0.292  1.00  0.00     0.281 C 
BRANCH  42  43
HETATM   43  N5  UNL     1      29.207  75.220   1.514  1.00  0.00    -0.064 N 
ATOM     44  H53 UNL     1      28.468  75.566   2.125  1.00  0.00     0.275 HD
ATOM     45  H52 UNL     1      29.635  74.562   2.166  1.00  0.00     0.275 HD
ATOM     46  H51 UNL     1      29.851  75.958   1.228  1.00  0.00     0.275 HD
ENDBRANCH  42  43
BRANCH  42  47
HETATM   47  C7  UNL     1      27.774  73.503   0.800  1.00  0.00     0.031 C 
BRANCH  47  48
HETATM   48  C8  UNL     1      26.314  73.522   0.683  1.00  0.00     0.089 C 
BRANCH  48  49
HETATM   49  N6  UNL     1      25.503  73.964   1.737  1.00  0.00    -0.336 N 
HETATM   50  C9  UNL     1      24.186  73.722   2.088  1.00  0.00     0.252 C 
HETATM   51  O2  UNL     1      23.333  73.010   1.508  1.00  0.00    -0.271 OA
ATOM     52  H6  UNL     1      25.983  74.595   2.379  1.00  0.00     0.168 HD
BRANCH  50  53
HETATM   53  C10 UNL     1      23.605  74.375   3.342  1.00  0.00     0.279 C 
BRANCH  53  54
HETATM   54  N7  UNL     1      24.104  75.757   3.451  1.00  0.00    -0.066 N 
ATOM     55  H73 UNL     1      24.499  76.096   2.574  1.00  0.00     0.275 HD
ATOM     56  H72 UNL     1      23.346  76.434   3.540  1.00  0.00     0.275 HD
ATOM     57  H71 UNL     1      24.768  75.819   4.222  1.00  0.00     0.275 HD
ENDBRANCH  53  54
BRANCH  53  58
HETATM   58  C11 UNL     1      22.117  74.479   3.286  1.00  0.00     0.025 A 
HETATM   59  C12 UNL     1      21.293  75.415   4.052  1.00  0.00     0.007 A 
HETATM   60  C13 UNL     1      21.373  73.988   4.552  1.00  0.00     0.007 A 
ENDBRANCH  53  58
ENDBRANCH  50  53
ENDBRANCH  48  49
ENDBRANCH  47  48
ENDBRANCH  42  47
ENDBRANCH  39  42
ENDBRANCH  37  39
ENDBRANCH   3  37
TORSDOF 14
ENDMDL
MODEL 2
REMARK VINA RESULT: -10.128975478      1.326      1.742
REMARK  14 active torsions:
REMARK  status: ('A' for Active; 'I' for Inactive)
REMARK    1  A    between atoms: C2_7  and  N3_8 
REMARK    2  A    between atoms: C4_10  and  N4_11 
REMARK    3  A    between atoms: N4_11  and  C5_13 
REMARK    4  A    between atoms: C5_13  and  O1_14 
REMARK    5  A    between atoms: C5_13  and  C6_16 
REMARK    6  A    between atoms: C6_16  and  N5_17 
REMARK    7  A    between atoms: C6_16  and  C7_21 
REMARK    8  A    between atoms: C7_21  and  C8_22 
REMARK    9  A    between atoms: C8_22  and  N6_23 
REMARK       I    between atoms: N6_23  and  C9_25 
REMARK   10  A    between atoms: C9_25  and  C10_27 
REMARK   11  A    between atoms: C10_27  and  N7_28 
REMARK   12  A    between atoms: C10_27  and  C11_32 
REMARK   13  A    between atoms: C18_47  and  C19_48 
REMARK   14  A    between atoms: C20_53  and  N12_54 
ROOT
HETATM    1  N3  UNL     1      27.945  73.299  -4.804  1.00  0.00    -0.253 N 
HETATM    2  C3  UNL     1      28.247  74.482  -4.049  1.00  0.00     0.168 C 
HETATM    3  C4  UNL     1      27.514  74.418  -2.739  1.00  0.00     0.103 C 
HETATM    4  C14 UNL     1      26.031  74.461  -2.879  1.00  0.00     0.043 C 
HETATM    5  C15 UNL     1      25.423  73.281  -3.565  1.00  0.00     0.165 C 
HETATM    6  S1  UNL     1      26.251  73.026  -5.132  1.00  0.00     0.234 S 
HETATM    7  O3  UNL     1      25.731  74.058  -6.083  1.00  0.00    -0.205 OA
HETATM    8  O4  UNL     1      26.000  71.640  -5.607  1.00  0.00    -0.205 OA
ENDROOT
BRANCH   1   9
HETATM    9  C2  UNL     1      28.884  72.366  -5.287  1.00  0.00     0.164 A 
HETATM   10  N2  UNL     1      29.172  71.289  -4.553  1.00  0.00    -0.321 N 
HETATM   11  C1  UNL     1      30.017  70.312  -4.833  1.00  0.00     0.119 A 
ATOM     12  H2  UNL     1      28.679  71.209  -3.664  1.00  0.00     0.169 HD
HETATM   13  N1  UNL     1      30.153  69.349  -3.981  1.00  0.00    -0.385 N 
HETATM   14  C22 UNL     1      30.798  70.197  -5.972  1.00  0.00     0.112 A 
ATOM     15  H12 UNL     1      29.578  69.433  -3.142  1.00  0.00     0.157 HD
ATOM     16  H11 UNL     1      30.804  68.595  -4.198  1.00  0.00     0.157 HD
HETATM   17  C16 UNL     1      30.810  71.106  -7.004  1.00  0.00     0.113 A 
HETATM   18  C21 UNL     1      31.655  69.100  -6.134  1.00  0.00     0.301 A 
HETATM   19  S2  UNL     1      29.742  72.435  -6.756  1.00  0.00    -0.034 SA
HETATM   20  N8  UNL     1      31.586  70.926  -8.061  1.00  0.00    -0.183 N 
HETATM   21  C17 UNL     1      32.411  69.870  -8.218  1.00  0.00     0.709 A 
ATOM     22  H8  UNL     1      31.559  71.628  -8.801  1.00  0.00     0.185 HD
HETATM   23  N9  UNL     1      33.186  69.716  -9.301  1.00  0.00    -0.170 N 
HETATM   24  N13 UNL     1      32.424  68.963  -7.227  1.00  0.00     0.061 N 
HETATM   25  C18 UNL     1      34.019  68.649  -9.457  1.00  0.00     0.201 A 
ATOM     26  H9  UNL     1      33.152  70.424 -10.034  1.00  0.00     0.186 HD
HETATM   27  N11 UNL     1      34.027  67.744  -8.461  1.00  0.00    -0.170 N 
HETATM   28  C20 UNL     1      33.251  67.895  -7.374  1.00  0.00     0.702 A 
ATOM     29  H11 UNL     1      34.635  66.928  -8.533  1.00  0.00     0.186 HD
HETATM   30  O6  UNL     1      31.708  68.215  -5.233  1.00  0.00    -0.265 OA
BRANCH  25  31
HETATM   31  C19 UNL     1      34.850  68.498 -10.637  1.00  0.00     0.299 C 
HETATM   32  N10 UNL     1      34.417  68.991 -11.889  1.00  0.00    -0.054 NA
HETATM   33  O5  UNL     1      35.953  67.925 -10.521  1.00  0.00    -0.268 OA
ENDBRANCH  25  31
BRANCH  28  34
HETATM   34  N12 UNL     1      33.254  67.025  -6.409  1.00  0.00    -0.233 N 
ATOM     35 2H12 UNL     1      33.501  66.068  -6.659  1.00  0.00     0.174 HD
ATOM     36 1H12 UNL     1      33.020  67.288  -5.453  1.00  0.00     0.174 HD
ENDBRANCH  28  34
ENDBRANCH   1   9
BRANCH   3  37
HETATM   37  N4  UNL     1      27.880  75.645  -1.989  1.00  0.00    -0.366 N 
ATOM     38  H4  UNL     1      28.014  76.528  -2.482  1.00  0.00     0.161 HD
BRANCH  37  39
HETATM   39  C5  UNL     1      28.040  75.581  -0.602  1.00  0.00     0.146 C 
BRANCH  39  40
HETATM   40  O1  UNL     1      27.650  76.673   0.013  1.00  0.00    -0.348 OA
ATOM     41  H1  UNL     1      27.119  76.500   0.781  1.00  0.00     0.219 HD
ENDBRANCH  39  40
BRANCH  39  42
HETATM   42  C6  UNL     1      28.565  74.501   0.241  1.00  0.00     0.281 C 
BRANCH  42  43
HETATM   43  N5  UNL     1      29.148  75.094   1.486  1.00  0.00    -0.064 N 
ATOM     44  H53 UNL     1      29.960  75.679   1.293  1.00  0.00     0.275 HD
ATOM     45  H52 UNL     1      28.548  75.813   1.892  1.00  0.00     0.275 HD
ATOM     46  H51 UNL     1      29.357  74.344   2.145  1.00  0.00     0.275 HD
ENDBRANCH  42  43
BRANCH  42  47
HETATM   47  C7  UNL     1      27.576  73.531   0.712  1.00  0.00     0.031 C 
BRANCH  47  48
HETATM   48  C8  UNL     1      26.380  73.865   1.489  1.00  0.00     0.089 C 
BRANCH  48  49
HETATM   49  N6  UNL     1      25.094  73.700   0.957  1.00  0.00    -0.336 N 
HETATM   50  C9  UNL     1      23.841  73.561   1.528  1.00  0.00     0.252 C 
HETATM   51  O2  UNL     1      23.524  73.536   2.739  1.00  0.00    -0.271 OA
ATOM     52  H6  UNL     1      25.079  73.678  -0.063  1.00  0.00     0.168 HD
BRANCH  50  53
HETATM   53  C10 UNL     1      22.613  73.406   0.629  1.00  0.00     0.279 C 
BRANCH  53  54
HETATM   54  N7  UNL     1      21.489  74.170   1.198  1.00  0.00    -0.066 N 
ATOM     55  H73 UNL     1      21.242  73.853   2.135  1.00  0.00     0.275 HD
ATOM     56  H72 UNL     1      21.753  75.127   1.432  1.00  0.00     0.275 HD
ATOM     57  H71 UNL     1      20.696  74.135   0.558  1.00  0.00     0.275 HD
ENDBRANCH  53  54
BRANCH  53  58
HETATM   58  C11 UNL     1      22.839  73.965  -0.736  1.00  0.00     0.025 A 
HETATM   59  C12 UNL     1      21.828  74.596  -1.583  1.00  0.00     0.007 A 
HETATM   60  C13 UNL     1      22.197  73.162  -1.894  1.00  0.00     0.007 A 
ENDBRANCH  53  58
ENDBRANCH  50  53
ENDBRANCH  48  49
ENDBRANCH  47  48
ENDBRANCH  42  47
ENDBRANCH  39  42
ENDBRANCH  37  39
ENDBRANCH   3  37
TORSDOF 14
ENDMDL
MODEL 3
REMARK VINA RESULT: -9.963274964      2.667     13.202
REMARK  14 active torsions:
REMARK  status: ('A' for Active; 'I' for Inactive)
REMARK    1  A    between atoms: C2_7  and  N3_8 
REMARK    2  A    between atoms: C4_10  and  N4_11 
REMARK    3  A    between atoms: N4_11  and  C5_13 
REMARK    4  A    between atoms: C5_13  and  O1_14 
REMARK    5  A    between atoms: C5_13  and  C6_16 
REMARK    6  A    between atoms: C6_16  and  N5_17 
REMARK    7  A    between atoms: C6_16  and  C7_21 
REMARK    8  A    between atoms: C7_21  and  C8_22 
REMARK    9  A    between atoms: C8_22  and  N6_23 
REMARK       I    between atoms: N6_23  and  C9_25 
REMARK   10  A    between atoms: C9_25  and  C10_27 
REMARK   11  A    between atoms: C10_27  and  N7_28 
REMARK   12  A    between atoms: C10_27  and  C11_32 
REMARK   13  A    between atoms: C18_47  and  C19_48 
REMARK   14  A    between atoms: C20_53  and  N12_54 
ROOT
HETATM    1  N3  UNL     1      26.804  73.203  -4.158  1.00  0.00    -0.253 N 
HETATM    2  C3  UNL     1      27.210  72.022  -4.867  1.00  0.00     0.168 C 
HETATM    3  C4  UNL     1      28.673  71.788  -4.615  1.00  0.00     0.103 C 
HETATM    4  C14 UNL     1      29.555  72.851  -5.173  1.00  0.00     0.043 C 
HETATM    5  C15 UNL     1      29.404  74.197  -4.542  1.00  0.00     0.165 C 
HETATM    6  S1  UNL     1      27.675  74.662  -4.565  1.00  0.00     0.234 S 
HETATM    7  O3  UNL     1      27.348  75.093  -5.961  1.00  0.00    -0.205 OA
HETATM    8  O4  UNL     1      27.437  75.739  -3.569  1.00  0.00    -0.205 OA
ENDROOT
BRANCH   1   9
HETATM    9  C2  UNL     1      25.786  73.274  -3.187  1.00  0.00     0.164 A 
HETATM   10  N2  UNL     1      24.515  73.109  -3.558  1.00  0.00    -0.321 N 
HETATM   11  C1  UNL     1      23.432  73.140  -2.802  1.00  0.00     0.119 A 
ATOM     12  H2  UNL     1      24.359  72.937  -4.551  1.00  0.00     0.169 HD
HETATM   13  N1  UNL     1      22.282  72.954  -3.361  1.00  0.00    -0.385 N 
HETATM   14  C22 UNL     1      23.387  73.356  -1.433  1.00  0.00     0.112 A 
ATOM     15  H12 UNL     1      22.315  72.796  -4.369  1.00  0.00     0.157 HD
ATOM     16  H11 UNL     1      21.446  72.978  -2.777  1.00  0.00     0.157 HD
HETATM   17  C16 UNL     1      24.491  73.574  -0.642  1.00  0.00     0.113 A 
HETATM   18  C21 UNL     1      22.159  73.364  -0.759  1.00  0.00     0.301 A 
HETATM   19  S2  UNL     1      25.974  73.557  -1.518  1.00  0.00    -0.034 SA
HETATM   20  N8  UNL     1      24.366  73.773   0.661  1.00  0.00    -0.183 N 
HETATM   21  C17 UNL     1      23.184  73.781   1.311  1.00  0.00     0.709 A 
ATOM     22  H8  UNL     1      25.214  73.930   1.205  1.00  0.00     0.185 HD
HETATM   23  N9  UNL     1      23.089  73.986   2.632  1.00  0.00    -0.170 N 
HETATM   24  N13 UNL     1      22.085  73.570   0.567  1.00  0.00     0.061 N 
HETATM   25  C18 UNL     1      21.894  73.993   3.287  1.00  0.00     0.201 A 
ATOM     26  H9  UNL     1      23.944  74.142   3.167  1.00  0.00     0.186 HD
HETATM   27  N11 UNL     1      20.798  73.782   2.536  1.00  0.00    -0.170 N 
HETATM   28  C20 UNL     1      20.889  73.575   1.210  1.00  0.00     0.702 A 
ATOM     29  H11 UNL     1      19.880  73.779   2.981  1.00  0.00     0.186 HD
HETATM   30  O6  UNL     1      21.092  73.171  -1.409  1.00  0.00    -0.265 OA
BRANCH  25  31
HETATM   31  C19 UNL     1      21.812  74.215   4.718  1.00  0.00     0.299 C 
HETATM   32  N10 UNL     1      20.566  74.464   5.338  1.00  0.00    -0.054 NA
HETATM   33  O5  UNL     1      22.865  74.182   5.389  1.00  0.00    -0.268 OA
ENDBRANCH  25  31
BRANCH  28  34
HETATM   34  N12 UNL     1      19.834  73.371   0.480  1.00  0.00    -0.233 N 
ATOM     35 2H12 UNL     1      18.943  73.313   0.971  1.00  0.00     0.174 HD
ATOM     36 1H12 UNL     1      19.898  73.273  -0.533  1.00  0.00     0.174 HD
ENDBRANCH  28  34
ENDBRANCH   1   9
BRANCH   3  37
HETATM   37  N4  UNL     1      29.034  70.547  -5.343  1.00  0.00    -0.366 N 
ATOM     38  H4  UNL     1      28.553  70.300  -6.208  1.00  0.00     0.161 HD
BRANCH  37  39
HETATM   39  C5  UNL     1      30.038  69.717  -4.833  1.00  0.00     0.146 C 
BRANCH  39  40
HETATM   40  O1  UNL     1      29.716  69.164  -3.688  1.00  0.00    -0.348 OA
ATOM     41  H1  UNL     1      28.822  69.347  -3.423  1.00  0.00     0.219 HD
ENDBRANCH  39  40
BRANCH  39  42
HETATM   42  C6  UNL     1      31.360  69.387  -5.378  1.00  0.00     0.281 C 
BRANCH  42  43
HETATM   43  N5  UNL     1      31.889  68.178  -4.672  1.00  0.00    -0.064 N 
ATOM     44  H53 UNL     1      31.701  67.317  -5.184  1.00  0.00     0.275 HD
ATOM     45  H52 UNL     1      32.908  68.134  -4.688  1.00  0.00     0.275 HD
ATOM     46  H51 UNL     1      31.514  68.157  -3.724  1.00  0.00     0.275 HD
ENDBRANCH  42  43
BRANCH  42  47
HETATM   47  C7  UNL     1      31.386  69.038  -6.799  1.00  0.00     0.031 C 
BRANCH  47  48
HETATM   48  C8  UNL     1      32.329  69.583  -7.778  1.00  0.00     0.089 C 
BRANCH  48  49
HETATM   49  N6  UNL     1      33.356  68.797  -8.318  1.00  0.00    -0.336 N 
HETATM   50  C9  UNL     1      33.367  67.669  -9.120  1.00  0.00     0.252 C 
HETATM   51  O2  UNL     1      32.400  67.022  -9.585  1.00  0.00    -0.271 OA
ATOM     52  H6  UNL     1      34.289  69.124  -8.068  1.00  0.00     0.168 HD
BRANCH  50  53
HETATM   53  C10 UNL     1      34.702  67.057  -9.545  1.00  0.00     0.279 C 
BRANCH  53  54
HETATM   54  N7  UNL     1      34.746  66.947 -11.014  1.00  0.00    -0.066 N 
ATOM     55  H73 UNL     1      34.095  66.246 -11.368  1.00  0.00     0.275 HD
ATOM     56  H72 UNL     1      34.345  67.764 -11.474  1.00  0.00     0.275 HD
ATOM     57  H71 UNL     1      35.704  66.768 -11.313  1.00  0.00     0.275 HD
ENDBRANCH  53  54
BRANCH  53  58
HETATM   58  C11 UNL     1      35.864  67.912  -9.164  1.00  0.00     0.025 A 
HETATM   59  C12 UNL     1      37.216  67.818  -9.712  1.00  0.00     0.007 A 
HETATM   60  C13 UNL     1      36.972  67.198  -8.352  1.00  0.00     0.007 A 
ENDBRANCH  53  58
ENDBRANCH  50  53
ENDBRANCH  48  49
ENDBRANCH  47  48
ENDBRANCH  42  47
ENDBRANCH  39  42
ENDBRANCH  37  39
ENDBRANCH   3  37
TORSDOF 14
ENDMDL
MODEL 4
REMARK VINA RESULT: -9.854726708      3.446      5.071
REMARK  14 active torsions:
REMARK  status: ('A' for Active; 'I' for Inactive)
REMARK    1  A    between atoms: C2_7  and  N3_8 
REMARK    2  A    between atoms: C4_10  and  N4_11 
REMARK    3  A    between atoms: N4_11  and  C5_13 
REMARK    4  A    between atoms: C5_13  and  O1_14 
REMARK    5  A    between atoms: C5_13  and  C6_16 
REMARK    6  A    between atoms: C6_16  and  N5_17 
REMARK    7  A    between atoms: C6_16  and  C7_21 
REMARK    8  A    between atoms: C7_21  and  C8_22 
REMARK    9  A    between atoms: C8_22  and  N6_23 
REMARK       I    between atoms: N6_23  and  C9_25 
REMARK   10  A    between atoms: C9_25  and  C10_27 
REMARK   11  A    between atoms: C10_27  and  N7_28 
REMARK   12  A    between atoms: C10_27  and  C11_32 
REMARK   13  A    between atoms: C18_47  and  C19_48 
REMARK   14  A    between atoms: C20_53  and  N12_54 
ROOT
HETATM    1  N3  UNL     1      29.871  71.539  -6.468  1.00  0.00    -0.253 N 
HETATM    2  C3  UNL     1      29.094  72.700  -6.799  1.00  0.00     0.168 C 
HETATM    3  C4  UNL     1      29.517  73.833  -5.909  1.00  0.00     0.103 C 
HETATM    4  C14 UNL     1      29.215  73.609  -4.467  1.00  0.00     0.043 C 
HETATM    5  C15 UNL     1      29.971  72.491  -3.827  1.00  0.00     0.165 C 
HETATM    6  S1  UNL     1      29.762  71.007  -4.807  1.00  0.00     0.234 S 
HETATM    7  O3  UNL     1      28.394  70.472  -4.519  1.00  0.00    -0.205 OA
HETATM    8  O4  UNL     1      30.834  70.034  -4.471  1.00  0.00    -0.205 OA
ENDROOT
BRANCH   1   9
HETATM    9  C2  UNL     1      30.694  70.815  -7.355  1.00  0.00     0.164 A 
HETATM   10  N2  UNL     1      30.830  69.498  -7.192  1.00  0.00    -0.321 N 
HETATM   11  C1  UNL     1      31.550  68.656  -7.913  1.00  0.00     0.119 A 
ATOM     12  H2  UNL     1      30.315  69.089  -6.413  1.00  0.00     0.169 HD
HETATM   13  N1  UNL     1      31.548  67.405  -7.588  1.00  0.00    -0.385 N 
HETATM   14  C22 UNL     1      32.331  68.971  -9.015  1.00  0.00     0.112 A 
ATOM     15  H12 UNL     1      30.973  67.173  -6.777  1.00  0.00     0.157 HD
ATOM     16  H11 UNL     1      32.103  66.756  -8.145  1.00  0.00     0.157 HD
HETATM   17  C16 UNL     1      32.475  70.237  -9.532  1.00  0.00     0.113 A 
HETATM   18  C21 UNL     1      33.045  67.969  -9.685  1.00  0.00     0.301 A 
HETATM   19  S2  UNL     1      31.579  71.432  -8.672  1.00  0.00    -0.034 SA
HETATM   20  N8  UNL     1      33.241  70.458 -10.588  1.00  0.00    -0.183 N 
HETATM   21  C17 UNL     1      33.929  69.494 -11.234  1.00  0.00     0.709 A 
ATOM     22  H8  UNL     1      33.316  71.414 -10.934  1.00  0.00     0.185 HD
HETATM   23  N9  UNL     1      34.698  69.749 -12.302  1.00  0.00    -0.170 N 
HETATM   24  N13 UNL     1      33.810  68.244 -10.754  1.00  0.00     0.061 N 
HETATM   25  C18 UNL     1      35.392  68.773 -12.952  1.00  0.00     0.201 A 
ATOM     26  H9  UNL     1      34.765  70.709 -12.639  1.00  0.00     0.186 HD
HETATM   27  N11 UNL     1      35.268  67.525 -12.467  1.00  0.00    -0.170 N 
HETATM   28  C20 UNL     1      34.497  67.265 -11.396  1.00  0.00     0.702 A 
ATOM     29  H11 UNL     1      35.769  66.760 -12.920  1.00  0.00     0.186 HD
HETATM   30  O6  UNL     1      32.969  66.774  -9.277  1.00  0.00    -0.265 OA
BRANCH  25  31
HETATM   31  C19 UNL     1      36.217  69.069 -14.108  1.00  0.00     0.299 C 
HETATM   32  N10 UNL     1      36.136  68.273 -15.273  1.00  0.00    -0.054 NA
HETATM   33  O5  UNL     1      37.000  70.041 -14.050  1.00  0.00    -0.268 OA
ENDBRANCH  25  31
BRANCH  28  34
HETATM   34  N12 UNL     1      34.374  66.061 -10.923  1.00  0.00    -0.233 N 
ATOM     35 2H12 UNL     1      35.166  65.433 -11.059  1.00  0.00     0.174 HD
ATOM     36 1H12 UNL     1      33.527  65.762 -10.441  1.00  0.00     0.174 HD
ENDBRANCH  28  34
ENDBRANCH   1   9
BRANCH   3  37
HETATM   37  N4  UNL     1      28.707  75.010  -6.309  1.00  0.00    -0.366 N 
ATOM     38  H4  UNL     1      27.757  74.885  -6.657  1.00  0.00     0.161 HD
BRANCH  37  39
HETATM   39  C5  UNL     1      29.257  76.291  -6.204  1.00  0.00     0.146 C 
BRANCH  39  40
HETATM   40  O1  UNL     1      29.922  76.656  -7.276  1.00  0.00    -0.348 OA
ATOM     41  H1  UNL     1      30.391  75.939  -7.685  1.00  0.00     0.219 HD
ENDBRANCH  39  40
BRANCH  39  42
HETATM   42  C6  UNL     1      29.201  77.258  -5.101  1.00  0.00     0.281 C 
BRANCH  42  43
HETATM   43  N5  UNL     1      29.856  78.532  -5.537  1.00  0.00    -0.064 N 
ATOM     44  H53 UNL     1      29.856  78.641  -6.550  1.00  0.00     0.275 HD
ATOM     45  H52 UNL     1      29.298  79.354  -5.304  1.00  0.00     0.275 HD
ATOM     46  H51 UNL     1      30.795  78.575  -5.141  1.00  0.00     0.275 HD
ENDBRANCH  42  43
BRANCH  42  47
HETATM   47  C7  UNL     1      27.858  77.649  -4.674  1.00  0.00     0.031 C 
BRANCH  47  48
HETATM   48  C8  UNL     1      27.362  77.577  -3.299  1.00  0.00     0.089 C 
BRANCH  48  49
HETATM   49  N6  UNL     1      27.403  76.381  -2.570  1.00  0.00    -0.336 N 
HETATM   50  C9  UNL     1      27.592  76.092  -1.230  1.00  0.00     0.252 C 
HETATM   51  O2  UNL     1      27.797  76.876  -0.274  1.00  0.00    -0.271 OA
ATOM     52  H6  UNL     1      27.264  75.551  -3.147  1.00  0.00     0.168 HD
BRANCH  50  53
HETATM   53  C10 UNL     1      27.567  74.637  -0.759  1.00  0.00     0.279 C 
BRANCH  53  54
HETATM   54  N7  UNL     1      26.924  73.799  -1.787  1.00  0.00    -0.066 N 
ATOM     55  H73 UNL     1      25.951  74.062  -1.947  1.00  0.00     0.275 HD
ATOM     56  H72 UNL     1      27.282  73.994  -2.722  1.00  0.00     0.275 HD
ATOM     57  H71 UNL     1      27.021  72.816  -1.534  1.00  0.00     0.275 HD
ENDBRANCH  53  54
BRANCH  53  58
HETATM   58  C11 UNL     1      28.939  74.079  -0.575  1.00  0.00     0.025 A 
HETATM   59  C12 UNL     1      29.261  72.723  -0.132  1.00  0.00     0.007 A 
HETATM   60  C13 UNL     1      29.359  73.831   0.894  1.00  0.00     0.007 A 
ENDBRANCH  53  58
ENDBRANCH  50  53
ENDBRANCH  48  49
ENDBRANCH  47  48
ENDBRANCH  42  47
ENDBRANCH  39  42
ENDBRANCH  37  39
ENDBRANCH   3  37
TORSDOF 14
ENDMDL
MODEL 5
REMARK VINA RESULT: -9.815083343      4.409      9.617
REMARK  14 active torsions:
REMARK  status: ('A' for Active; 'I' for Inactive)
REMARK    1  A    between atoms: C2_7  and  N3_8 
REMARK    2  A    between atoms: C4_10  and  N4_11 
REMARK    3  A    between atoms: N4_11  and  C5_13 
REMARK    4  A    between atoms: C5_13  and  O1_14 
REMARK    5  A    between atoms: C5_13  and  C6_16 
REMARK    6  A    between atoms: C6_16  and  N5_17 
REMARK    7  A    between atoms: C6_16  and  C7_21 
REMARK    8  A    between atoms: C7_21  and  C8_22 
REMARK    9  A    between atoms: C8_22  and  N6_23 
REMARK       I    between atoms: N6_23  and  C9_25 
REMARK   10  A    between atoms: C9_25  and  C10_27 
REMARK   11  A    between atoms: C10_27  and  N7_28 
REMARK   12  A    between atoms: C10_27  and  C11_32 
REMARK   13  A    between atoms: C18_47  and  C19_48 
REMARK   14  A    between atoms: C20_53  and  N12_54 
ROOT
HETATM    1  N3  UNL     1      27.069  71.622  -7.184  1.00  0.00    -0.253 N 
HETATM    2  C3  UNL     1      28.073  71.360  -8.177  1.00  0.00     0.168 C 
HETATM    3  C4  UNL     1      27.668  72.029  -9.460  1.00  0.00     0.103 C 
HETATM    4  C14 UNL     1      26.425  71.468 -10.062  1.00  0.00     0.043 C 
HETATM    5  C15 UNL     1      25.180  71.681  -9.264  1.00  0.00     0.165 C 
HETATM    6  S1  UNL     1      25.452  71.100  -7.592  1.00  0.00     0.234 S 
HETATM    7  O3  UNL     1      25.378  69.605  -7.623  1.00  0.00    -0.205 OA
HETATM    8  O4  UNL     1      24.437  71.699  -6.687  1.00  0.00    -0.205 OA
ENDROOT
BRANCH   1   9
HETATM    9  C2  UNL     1      27.281  72.250  -5.941  1.00  0.00     0.164 A 
HETATM   10  N2  UNL     1      26.711  73.433  -5.700  1.00  0.00    -0.321 N 
HETATM   11  C1  UNL     1      26.791  74.171  -4.607  1.00  0.00     0.119 A 
ATOM     12  H2  UNL     1      26.141  73.815  -6.455  1.00  0.00     0.169 HD
HETATM   13  N1  UNL     1      26.156  75.296  -4.573  1.00  0.00    -0.385 N 
HETATM   14  C22 UNL     1      27.499  73.866  -3.455  1.00  0.00     0.112 A 
ATOM     15  H12 UNL     1      25.634  75.521  -5.421  1.00  0.00     0.157 HD
ATOM     16  H11 UNL     1      26.217  75.865  -3.729  1.00  0.00     0.157 HD
HETATM   17  C16 UNL     1      28.242  72.722  -3.276  1.00  0.00     0.113 A 
HETATM   18  C21 UNL     1      27.495  74.750  -2.368  1.00  0.00     0.301 A 
HETATM   19  S2  UNL     1      28.216  71.671  -4.642  1.00  0.00    -0.034 SA
HETATM   20  N8  UNL     1      28.893  72.503  -2.145  1.00  0.00    -0.183 N 
HETATM   21  C17 UNL     1      28.889  73.353  -1.097  1.00  0.00     0.709 A 
ATOM     22  H8  UNL     1      29.429  71.640  -2.060  1.00  0.00     0.185 HD
HETATM   23  N9  UNL     1      29.559  73.103   0.036  1.00  0.00    -0.170 N 
HETATM   24  N13 UNL     1      28.172  74.481  -1.239  1.00  0.00     0.061 N 
HETATM   25  C18 UNL     1      29.553  73.963   1.093  1.00  0.00     0.201 A 
ATOM     26  H9  UNL     1      30.093  72.237   0.110  1.00  0.00     0.186 HD
HETATM   27  N11 UNL     1      28.835  75.091   0.944  1.00  0.00    -0.170 N 
HETATM   28  C20 UNL     1      28.160  75.345  -0.191  1.00  0.00     0.702 A 
ATOM     29  H11 UNL     1      28.800  75.766   1.708  1.00  0.00     0.186 HD
HETATM   30  O6  UNL     1      26.837  75.827  -2.446  1.00  0.00    -0.265 OA
BRANCH  25  31
HETATM   31  C19 UNL     1      30.284  73.675   2.313  1.00  0.00     0.299 C 
HETATM   32  N10 UNL     1      30.619  72.345   2.653  1.00  0.00    -0.054 NA
HETATM   33  O5  UNL     1      30.610  74.626   3.053  1.00  0.00    -0.268 OA
ENDBRANCH  25  31
BRANCH  28  34
HETATM   34  N12 UNL     1      27.464  76.431  -0.341  1.00  0.00    -0.233 N 
ATOM     35 2H12 UNL     1      26.517  76.422   0.037  1.00  0.00     0.174 HD
ATOM     36 1H12 UNL     1      27.847  77.250  -0.812  1.00  0.00     0.174 HD
ENDBRANCH  28  34
ENDBRANCH   1   9
BRANCH   3  37
HETATM   37  N4  UNL     1      28.747  71.752 -10.440  1.00  0.00    -0.366 N 
ATOM     38  H4  UNL     1      28.699  70.928 -11.038  1.00  0.00     0.161 HD
BRANCH  37  39
HETATM   39  C5  UNL     1      29.830  72.631 -10.536  1.00  0.00     0.146 C 
BRANCH  39  40
HETATM   40  O1  UNL     1      29.602  73.646 -11.336  1.00  0.00    -0.348 OA
ATOM     41  H1  UNL     1      28.900  74.209 -11.033  1.00  0.00     0.219 HD
ENDBRANCH  39  40
BRANCH  39  42
HETATM   42  C6  UNL     1      31.147  72.583  -9.890  1.00  0.00     0.281 C 
BRANCH  42  43
HETATM   43  N5  UNL     1      32.208  72.728 -10.937  1.00  0.00    -0.064 N 
ATOM     44  H53 UNL     1      32.511  71.828 -11.309  1.00  0.00     0.275 HD
ATOM     45  H52 UNL     1      31.847  73.127 -11.804  1.00  0.00     0.275 HD
ATOM     46  H51 UNL     1      32.982  73.270 -10.552  1.00  0.00     0.275 HD
ENDBRANCH  42  43
BRANCH  42  47
HETATM   47  C7  UNL     1      31.417  73.652  -8.928  1.00  0.00     0.031 C 
BRANCH  47  48
HETATM   48  C8  UNL     1      30.683  73.858  -7.678  1.00  0.00     0.089 C 
BRANCH  48  49
HETATM   49  N6  UNL     1      30.164  75.114  -7.334  1.00  0.00    -0.336 N 
HETATM   50  C9  UNL     1      29.938  75.749  -6.125  1.00  0.00     0.252 C 
HETATM   51  O2  UNL     1      30.145  75.330  -4.963  1.00  0.00    -0.271 OA
ATOM     52  H6  UNL     1      29.898  75.676  -8.142  1.00  0.00     0.168 HD
BRANCH  50  53
HETATM   53  C10 UNL     1      29.354  77.162  -6.111  1.00  0.00     0.279 C 
BRANCH  53  54
HETATM   54  N7  UNL     1      28.048  77.160  -6.793  1.00  0.00    -0.066 N 
ATOM     55  H73 UNL     1      27.639  78.093  -6.849  1.00  0.00     0.275 HD
ATOM     56  H72 UNL     1      28.135  76.979  -7.793  1.00  0.00     0.275 HD
ATOM     57  H71 UNL     1      27.426  76.494  -6.334  1.00  0.00     0.275 HD
ENDBRANCH  53  54
BRANCH  53  58
HETATM   58  C11 UNL     1      29.091  77.650  -4.725  1.00  0.00     0.025 A 
HETATM   59  C12 UNL     1      27.986  78.516  -4.315  1.00  0.00     0.007 A 
HETATM   60  C13 UNL     1      29.342  79.161  -4.499  1.00  0.00     0.007 A 
ENDBRANCH  53  58
ENDBRANCH  50  53
ENDBRANCH  48  49
ENDBRANCH  47  48
ENDBRANCH  42  47
ENDBRANCH  39  42
ENDBRANCH  37  39
ENDBRANCH   3  37
TORSDOF 14
ENDMDL
