MODEL 1
REMARK VINA RESULT: -7.514469746      0.000      0.000
REMARK  5 active torsions:
REMARK  status: ('A' for Active; 'I' for Inactive)
REMARK    1  A    between atoms: C4_4  and  C5_5 
REMARK    2  A    between atoms: C5_5  and  C6_6 
REMARK    3  A    between atoms: C6_6  and  C7_7 
REMARK    4  A    between atoms: C7_7  and  O1_8 
REMARK    5  A    between atoms: C10_14  and  C11_15 
ROOT
HETATM    1  C7  UNL     1      31.455  -5.931  59.417  1.00  0.00     0.167 C 
HETATM    2  C8  UNL     1      32.568  -5.465  60.335  1.00  0.00     0.295 C 
HETATM    3  O2  UNL     1      33.772  -5.561  60.098  1.00  0.00    -0.262 OA
HETATM    4  O3  UNL     1      31.986  -4.927  61.470  1.00  0.00    -0.312 OA
HETATM    5  C9  UNL     1      30.580  -4.939  61.243  1.00  0.00     0.151 C 
HETATM    6  C10 UNL     1      29.767  -4.932  62.472  1.00  0.00     0.020 C 
HETATM    7  C14 UNL     1      28.729  -6.038  62.517  1.00  0.00     0.015 C 
HETATM    8  C15 UNL     1      28.048  -6.218  61.183  1.00  0.00     0.079 C 
HETATM    9  C16 UNL     1      29.087  -6.462  60.118  1.00  0.00     0.137 C 
HETATM   10  O4  UNL     1      28.688  -6.796  59.052  1.00  0.00    -0.297 OA
HETATM   11  C17 UNL     1      30.462  -6.263  60.507  1.00  0.00     0.130 C 
ENDROOT
BRANCH   1  12
HETATM   12  C6  UNL     1      31.877  -7.046  58.593  1.00  0.00     0.134 C 
BRANCH  12  13
HETATM   13  C5  UNL     1      31.874  -7.150  57.334  1.00  0.00    -0.152 C 
BRANCH  13  14
HETATM   14  C4  UNL     1      31.877  -7.266  55.948  1.00  0.00     0.053 C 
HETATM   15  C2  UNL     1      31.150  -8.281  55.408  1.00  0.00    -0.081 C 
HETATM   16  C1  UNL     1      31.100  -8.473  53.949  1.00  0.00     0.043 C 
HETATM   17  C3  UNL     1      30.426  -9.173  56.313  1.00  0.00     0.043 C 
ENDBRANCH  13  14
ENDBRANCH  12  13
ENDBRANCH   1  12
BRANCH   1  18
HETATM   18  O1  UNL     1      31.009  -4.802  58.743  1.00  0.00    -0.378 OA
ATOM     19  H1  UNL     1      31.017  -3.988  59.233  1.00  0.00     0.211 HD
ENDBRANCH   1  18
BRANCH   6  20
HETATM   20  C11 UNL     1      29.185  -3.564  62.739  1.00  0.00    -0.016 C 
HETATM   21  C12 UNL     1      29.375  -2.665  61.509  1.00  0.00     0.010 C 
HETATM   22  C13 UNL     1      29.704  -2.840  63.917  1.00  0.00     0.010 C 
ENDBRANCH   6  20
TORSDOF 5
ENDMDL
MODEL 2
REMARK VINA RESULT: -7.296545530      2.407      3.135
REMARK  5 active torsions:
REMARK  status: ('A' for Active; 'I' for Inactive)
REMARK    1  A    between atoms: C4_4  and  C5_5 
REMARK    2  A    between atoms: C5_5  and  C6_6 
REMARK    3  A    between atoms: C6_6  and  C7_7 
REMARK    4  A    between atoms: C7_7  and  O1_8 
REMARK    5  A    between atoms: C10_14  and  C11_15 
ROOT
HETATM    1  C7  UNL     1      30.755  -5.988  59.223  1.00  0.00     0.167 C 
HETATM    2  C8  UNL     1      32.254  -6.075  59.012  1.00  0.00     0.295 C 
HETATM    3  O2  UNL     1      32.826  -6.915  58.317  1.00  0.00    -0.262 OA
HETATM    4  O3  UNL     1      32.846  -5.056  59.737  1.00  0.00    -0.312 OA
HETATM    5  C9  UNL     1      31.782  -4.286  60.288  1.00  0.00     0.151 C 
HETATM    6  C10 UNL     1      32.147  -3.519  61.492  1.00  0.00     0.020 C 
HETATM    7  C14 UNL     1      31.211  -3.751  62.664  1.00  0.00     0.015 C 
HETATM    8  C15 UNL     1      29.768  -3.792  62.225  1.00  0.00     0.079 C 
HETATM    9  C16 UNL     1      29.600  -4.838  61.153  1.00  0.00     0.137 C 
HETATM   10  O4  UNL     1      28.487  -5.105  60.839  1.00  0.00    -0.297 OA
HETATM   11  C17 UNL     1      30.813  -5.409  60.617  1.00  0.00     0.130 C 
ENDROOT
BRANCH   1  12
HETATM   12  C6  UNL     1      30.126  -7.288  59.109  1.00  0.00     0.134 C 
BRANCH  12  13
HETATM   13  C5  UNL     1      29.310  -7.703  58.238  1.00  0.00    -0.152 C 
BRANCH  13  14
HETATM   14  C4  UNL     1      28.417  -8.164  57.276  1.00  0.00     0.053 C 
HETATM   15  C2  UNL     1      27.128  -7.741  57.372  1.00  0.00    -0.081 C 
HETATM   16  C1  UNL     1      26.120  -8.182  56.393  1.00  0.00     0.043 C 
HETATM   17  C3  UNL     1      26.773  -6.843  58.470  1.00  0.00     0.043 C 
ENDBRANCH  13  14
ENDBRANCH  12  13
ENDBRANCH   1  12
BRANCH   1  18
HETATM   18  O1  UNL     1      30.298  -5.005  58.355  1.00  0.00    -0.378 OA
ATOM     19  H1  UNL     1      30.511  -4.108  58.585  1.00  0.00     0.211 HD
ENDBRANCH   1  18
BRANCH   6  20
HETATM   20  C11 UNL     1      32.344  -2.056  61.173  1.00  0.00    -0.016 C 
HETATM   21  C12 UNL     1      32.101  -1.808  59.678  1.00  0.00     0.010 C 
HETATM   22  C13 UNL     1      33.653  -1.470  61.526  1.00  0.00     0.010 C 
ENDBRANCH   6  20
TORSDOF 5
ENDMDL
MODEL 3
REMARK VINA RESULT: -7.271489805      2.168      6.756
REMARK  5 active torsions:
REMARK  status: ('A' for Active; 'I' for Inactive)
REMARK    1  A    between atoms: C4_4  and  C5_5 
REMARK    2  A    between atoms: C5_5  and  C6_6 
REMARK    3  A    between atoms: C6_6  and  C7_7 
REMARK    4  A    between atoms: C7_7  and  O1_8 
REMARK    5  A    between atoms: C10_14  and  C11_15 
ROOT
HETATM    1  C7  UNL     1      29.600  -4.044  62.063  1.00  0.00     0.167 C 
HETATM    2  C8  UNL     1      29.159  -5.492  62.162  1.00  0.00     0.295 C 
HETATM    3  O2  UNL     1      28.253  -5.911  62.882  1.00  0.00    -0.262 OA
HETATM    4  O3  UNL     1      29.953  -6.238  61.309  1.00  0.00    -0.312 OA
HETATM    5  C9  UNL     1      30.779  -5.309  60.615  1.00  0.00     0.151 C 
HETATM    6  C10 UNL     1      32.030  -5.883  60.089  1.00  0.00     0.020 C 
HETATM    7  C14 UNL     1      33.270  -5.108  60.495  1.00  0.00     0.015 C 
HETATM    8  C15 UNL     1      33.048  -3.618  60.408  1.00  0.00     0.079 C 
HETATM    9  C16 UNL     1      31.849  -3.240  61.239  1.00  0.00     0.137 C 
HETATM   10  O4  UNL     1      31.662  -2.080  61.408  1.00  0.00    -0.297 OA
HETATM   11  C17 UNL     1      31.050  -4.330  61.745  1.00  0.00     0.130 C 
ENDROOT
BRANCH   1  12
HETATM   12  C6  UNL     1      29.359  -3.330  63.300  1.00  0.00     0.134 C 
BRANCH  12  13
HETATM   13  C5  UNL     1      30.166  -3.067  64.237  1.00  0.00    -0.152 C 
BRANCH  13  14
HETATM   14  C4  UNL     1      31.052  -2.773  65.268  1.00  0.00     0.053 C 
HETATM   15  C2  UNL     1      31.833  -3.788  65.725  1.00  0.00    -0.081 C 
HETATM   16  C1  UNL     1      32.797  -3.560  66.814  1.00  0.00     0.043 C 
HETATM   17  C3  UNL     1      31.688  -5.106  65.108  1.00  0.00     0.043 C 
ENDBRANCH  13  14
ENDBRANCH  12  13
ENDBRANCH   1  12
BRANCH   1  18
HETATM   18  O1  UNL     1      28.992  -3.530  60.926  1.00  0.00    -0.378 OA
ATOM     19  H1  UNL     1      28.049  -3.627  60.872  1.00  0.00     0.211 HD
ENDBRANCH   1  18
BRANCH   6  20
HETATM   20  C11 UNL     1      31.942  -6.120  58.599  1.00  0.00    -0.016 C 
HETATM   21  C12 UNL     1      30.923  -5.158  57.974  1.00  0.00     0.010 C 
HETATM   22  C13 UNL     1      31.603  -7.490  58.164  1.00  0.00     0.010 C 
ENDBRANCH   6  20
TORSDOF 5
ENDMDL
MODEL 4
REMARK VINA RESULT: -7.208047856      1.621      2.416
REMARK  5 active torsions:
REMARK  status: ('A' for Active; 'I' for Inactive)
REMARK    1  A    between atoms: C4_4  and  C5_5 
REMARK    2  A    between atoms: C5_5  and  C6_6 
REMARK    3  A    between atoms: C6_6  and  C7_7 
REMARK    4  A    between atoms: C7_7  and  O1_8 
REMARK    5  A    between atoms: C10_14  and  C11_15 
ROOT
HETATM    1  C7  UNL     1      31.364  -5.926  59.347  1.00  0.00     0.167 C 
HETATM    2  C8  UNL     1      32.499  -5.524  60.269  1.00  0.00     0.295 C 
HETATM    3  O2  UNL     1      33.697  -5.653  60.018  1.00  0.00    -0.262 OA
HETATM    4  O3  UNL     1      31.945  -5.000  61.424  1.00  0.00    -0.312 OA
HETATM    5  C9  UNL     1      30.537  -4.959  61.210  1.00  0.00     0.151 C 
HETATM    6  C10 UNL     1      29.734  -4.961  62.445  1.00  0.00     0.020 C 
HETATM    7  C14 UNL     1      28.660  -6.032  62.467  1.00  0.00     0.015 C 
HETATM    8  C15 UNL     1      27.963  -6.150  61.135  1.00  0.00     0.079 C 
HETATM    9  C16 UNL     1      28.984  -6.397  60.054  1.00  0.00     0.137 C 
HETATM   10  O4  UNL     1      28.566  -6.687  58.982  1.00  0.00    -0.297 OA
HETATM   11  C17 UNL     1      30.369  -6.256  60.436  1.00  0.00     0.130 C 
ENDROOT
BRANCH   1  12
HETATM   12  C6  UNL     1      31.742  -7.029  58.488  1.00  0.00     0.134 C 
BRANCH  12  13
HETATM   13  C5  UNL     1      31.618  -8.271  58.688  1.00  0.00    -0.152 C 
BRANCH  13  14
HETATM   14  C4  UNL     1      31.476  -9.637  58.908  1.00  0.00     0.053 C 
HETATM   15  C2  UNL     1      31.906 -10.122  60.104  1.00  0.00    -0.081 C 
HETATM   16  C1  UNL     1      31.790 -11.557  60.415  1.00  0.00     0.043 C 
HETATM   17  C3  UNL     1      32.483  -9.184  61.065  1.00  0.00     0.043 C 
ENDBRANCH  13  14
ENDBRANCH  12  13
ENDBRANCH   1  12
BRANCH   1  18
HETATM   18  O1  UNL     1      30.951  -4.763  58.711  1.00  0.00    -0.378 OA
ATOM     19  H1  UNL     1      30.227  -4.850  58.101  1.00  0.00     0.211 HD
ENDBRANCH   1  18
BRANCH   6  20
HETATM   20  C11 UNL     1      29.201  -3.582  62.756  1.00  0.00    -0.016 C 
HETATM   21  C12 UNL     1      29.389  -2.661  61.543  1.00  0.00     0.010 C 
HETATM   22  C13 UNL     1      29.769  -2.902  63.938  1.00  0.00     0.010 C 
ENDBRANCH   6  20
TORSDOF 5
ENDMDL
MODEL 5
REMARK VINA RESULT: -7.205776127      1.559      6.716
REMARK  5 active torsions:
REMARK  status: ('A' for Active; 'I' for Inactive)
REMARK    1  A    between atoms: C4_4  and  C5_5 
REMARK    2  A    between atoms: C5_5  and  C6_6 
REMARK    3  A    between atoms: C6_6  and  C7_7 
REMARK    4  A    between atoms: C7_7  and  O1_8 
REMARK    5  A    between atoms: C10_14  and  C11_15 
ROOT
HETATM    1  C7  UNL     1      29.676  -5.007  61.319  1.00  0.00     0.167 C 
HETATM    2  C8  UNL     1      28.708  -5.968  60.656  1.00  0.00     0.295 C 
HETATM    3  O2  UNL     1      27.559  -6.193  61.033  1.00  0.00    -0.262 OA
HETATM    4  O3  UNL     1      29.351  -6.536  59.569  1.00  0.00    -0.312 OA
HETATM    5  C9  UNL     1      30.617  -5.892  59.470  1.00  0.00     0.151 C 
HETATM    6  C10 UNL     1      31.646  -6.679  58.768  1.00  0.00     0.020 C 
HETATM    7  C14 UNL     1      32.937  -6.823  59.553  1.00  0.00     0.015 C 
HETATM    8  C15 UNL     1      33.328  -5.531  60.225  1.00  0.00     0.079 C 
HETATM    9  C16 UNL     1      32.191  -5.053  61.092  1.00  0.00     0.137 C 
HETATM   10  O4  UNL     1      32.422  -4.143  61.819  1.00  0.00    -0.297 OA
HETATM   11  C17 UNL     1      30.937  -5.752  60.949  1.00  0.00     0.130 C 
ENDROOT
BRANCH   1  12
HETATM   12  C6  UNL     1      29.413  -4.884  62.738  1.00  0.00     0.134 C 
BRANCH  12  13
HETATM   13  C5  UNL     1      29.740  -3.955  63.530  1.00  0.00    -0.152 C 
BRANCH  13  14
HETATM   14  C4  UNL     1      30.104  -2.936  64.404  1.00  0.00     0.053 C 
HETATM   15  C2  UNL     1      31.083  -3.211  65.307  1.00  0.00    -0.081 C 
HETATM   16  C1  UNL     1      31.526  -2.186  66.267  1.00  0.00     0.043 C 
HETATM   17  C3  UNL     1      31.679  -4.547  65.297  1.00  0.00     0.043 C 
ENDBRANCH  13  14
ENDBRANCH  12  13
ENDBRANCH   1  12
BRANCH   1  18
HETATM   18  O1  UNL     1      29.624  -3.833  60.579  1.00  0.00    -0.378 OA
ATOM     19  H1  UNL     1      29.909  -3.892  59.675  1.00  0.00     0.211 HD
ENDBRANCH   1  18
BRANCH   6  20
HETATM   20  C11 UNL     1      31.862  -6.171  57.362  1.00  0.00    -0.016 C 
HETATM   21  C12 UNL     1      31.135  -4.833  57.170  1.00  0.00     0.010 C 
HETATM   22  C13 UNL     1      31.461  -7.071  56.262  1.00  0.00     0.010 C 
ENDBRANCH   6  20
TORSDOF 5
ENDMDL
