MODEL 1
REMARK VINA RESULT: -7.354013384      0.000      0.000
REMARK  4 active torsions:
REMARK  status: ('A' for Active; 'I' for Inactive)
REMARK    1  A    between atoms: C2_2  and  C3_3 
REMARK    2  A    between atoms: C2_2  and  C13_19 
REMARK    3  A    between atoms: C3_3  and  N1_4 
REMARK    4  A    between atoms: C13_19  and  C14_20 
ROOT
HETATM    1  N1  UNL     1      31.166  -5.235  59.230  1.00  0.00    -0.373 N 
HETATM    2  C4  UNL     1      30.177  -6.164  59.575  1.00  0.00     0.066 C 
HETATM    3  C5  UNL     1      30.124  -7.393  58.699  1.00  0.00     0.083 C 
HETATM    4  C6  UNL     1      30.670  -7.143  57.332  1.00  0.00     0.079 C 
HETATM    5  C7  UNL     1      30.523  -5.688  56.934  1.00  0.00     0.083 C 
HETATM    6  C8  UNL     1      31.345  -4.858  57.886  1.00  0.00     0.066 C 
HETATM    7  C9  UNL     1      32.096  -7.615  57.275  1.00  0.00     0.067 C 
HETATM    8  C10 UNL     1      32.094  -8.721  56.223  1.00  0.00     0.169 C 
HETATM    9  C11 UNL     1      33.339  -8.712  55.496  1.00  0.00     0.072 C 
HETATM   10  N2  UNL     1      34.342  -8.723  54.925  1.00  0.00    -0.196 NA
HETATM   11  C12 UNL     1      30.951  -8.283  55.369  1.00  0.00     0.130 C 
HETATM   12  N3  UNL     1      30.919  -8.280  54.101  1.00  0.00    -0.382 N 
ATOM     13  H31 UNL     1      30.138  -7.981  53.517  1.00  0.00     0.158 HD
ATOM     14  H32 UNL     1      31.621  -8.559  53.416  1.00  0.00     0.158 HD
HETATM   15  O1  UNL     1      29.981  -7.898  56.315  1.00  0.00    -0.326 OA
ENDROOT
BRANCH   1  16
HETATM   16  C3  UNL     1      32.077  -4.776  60.203  1.00  0.00     0.131 C 
BRANCH  16  17
HETATM   17  C2  UNL     1      31.639  -3.474  60.898  1.00  0.00     0.000 C 
HETATM   18  C1  UNL     1      32.850  -2.575  60.823  1.00  0.00     0.011 C 
BRANCH  17  19
HETATM   19  C13 UNL     1      31.247  -3.859  62.274  1.00  0.00     0.014 C 
BRANCH  19  20
HETATM   20  C14 UNL     1      29.840  -3.609  62.682  1.00  0.00    -0.051 C 
HETATM   21  C15 UNL     1      29.691  -2.787  63.941  1.00  0.00     0.014 C 
HETATM   22  C16 UNL     1      28.956  -4.820  62.726  1.00  0.00     0.014 C 
HETATM   23  C17 UNL     1      29.248  -2.720  61.565  1.00  0.00     0.014 C 
ENDBRANCH  19  20
ENDBRANCH  17  19
ENDBRANCH  16  17
ENDBRANCH   1  16
TORSDOF 4
ENDMDL
MODEL 2
REMARK VINA RESULT: -7.320706150      1.395      2.722
REMARK  4 active torsions:
REMARK  status: ('A' for Active; 'I' for Inactive)
REMARK    1  A    between atoms: C2_2  and  C3_3 
REMARK    2  A    between atoms: C2_2  and  C13_19 
REMARK    3  A    between atoms: C3_3  and  N1_4 
REMARK    4  A    between atoms: C13_19  and  C14_20 
ROOT
HETATM    1  N1  UNL     1      30.589  -6.204  59.497  1.00  0.00    -0.373 N 
HETATM    2  C4  UNL     1      30.748  -5.013  58.779  1.00  0.00     0.066 C 
HETATM    3  C5  UNL     1      31.015  -5.187  57.303  1.00  0.00     0.083 C 
HETATM    4  C6  UNL     1      31.645  -6.504  56.989  1.00  0.00     0.079 C 
HETATM    5  C7  UNL     1      32.443  -7.031  58.166  1.00  0.00     0.083 C 
HETATM    6  C8  UNL     1      31.489  -7.269  59.308  1.00  0.00     0.066 C 
HETATM    7  C9  UNL     1      30.583  -7.466  56.537  1.00  0.00     0.067 C 
HETATM    8  C10 UNL     1      30.969  -7.821  55.103  1.00  0.00     0.169 C 
HETATM    9  C11 UNL     1      30.624  -9.192  54.825  1.00  0.00     0.072 C 
HETATM   10  N2  UNL     1      30.331 -10.284  54.590  1.00  0.00    -0.196 NA
HETATM   11  C12 UNL     1      32.448  -7.624  55.164  1.00  0.00     0.130 C 
HETATM   12  N3  UNL     1      33.328  -8.386  54.662  1.00  0.00    -0.382 N 
ATOM     13  H31 UNL     1      34.339  -8.251  54.703  1.00  0.00     0.158 HD
ATOM     14  H32 UNL     1      33.236  -9.254  54.135  1.00  0.00     0.158 HD
HETATM   15  O1  UNL     1      32.575  -6.424  55.891  1.00  0.00    -0.326 OA
ENDROOT
BRANCH   1  16
HETATM   16  C3  UNL     1      29.451  -6.396  60.307  1.00  0.00     0.131 C 
BRANCH  16  17
HETATM   17  C2  UNL     1      29.694  -6.100  61.798  1.00  0.00     0.000 C 
HETATM   18  C1  UNL     1      29.138  -7.304  62.521  1.00  0.00     0.011 C 
BRANCH  17  19
HETATM   19  C13 UNL     1      28.981  -4.833  62.082  1.00  0.00     0.014 C 
BRANCH  19  20
HETATM   20  C14 UNL     1      29.802  -3.653  62.459  1.00  0.00    -0.051 C 
HETATM   21  C15 UNL     1      31.294  -3.863  62.333  1.00  0.00     0.014 C 
HETATM   22  C16 UNL     1      29.460  -3.024  63.776  1.00  0.00     0.014 C 
HETATM   23  C17 UNL     1      29.472  -2.576  61.401  1.00  0.00     0.014 C 
ENDBRANCH  19  20
ENDBRANCH  17  19
ENDBRANCH  16  17
ENDBRANCH   1  16
TORSDOF 4
ENDMDL
MODEL 3
REMARK VINA RESULT: -7.319865048      1.739      2.697
REMARK  4 active torsions:
REMARK  status: ('A' for Active; 'I' for Inactive)
REMARK    1  A    between atoms: C2_2  and  C3_3 
REMARK    2  A    between atoms: C2_2  and  C13_19 
REMARK    3  A    between atoms: C3_3  and  N1_4 
REMARK    4  A    between atoms: C13_19  and  C14_20 
ROOT
HETATM    1  N1  UNL     1      28.659  -6.412  59.845  1.00  0.00    -0.373 N 
HETATM    2  C4  UNL     1      27.570  -6.333  58.969  1.00  0.00     0.066 C 
HETATM    3  C5  UNL     1      27.769  -7.021  57.639  1.00  0.00     0.083 C 
HETATM    4  C6  UNL     1      29.210  -7.120  57.259  1.00  0.00     0.079 C 
HETATM    5  C7  UNL     1      30.025  -6.003  57.880  1.00  0.00     0.083 C 
HETATM    6  C8  UNL     1      29.961  -6.157  59.378  1.00  0.00     0.066 C 
HETATM    7  C9  UNL     1      29.726  -8.483  57.626  1.00  0.00     0.067 C 
HETATM    8  C10 UNL     1      30.137  -9.110  56.296  1.00  0.00     0.169 C 
HETATM    9  C11 UNL     1      31.293  -9.951  56.484  1.00  0.00     0.072 C 
HETATM   10  N2  UNL     1      32.205 -10.642  56.633  1.00  0.00    -0.196 NA
HETATM   11  C12 UNL     1      30.467  -7.885  55.508  1.00  0.00     0.130 C 
HETATM   12  N3  UNL     1      31.467  -7.731  54.744  1.00  0.00    -0.382 N 
ATOM     13  H31 UNL     1      31.692  -6.894  54.205  1.00  0.00     0.158 HD
ATOM     14  H32 UNL     1      32.228  -8.366  54.506  1.00  0.00     0.158 HD
HETATM   15  O1  UNL     1      29.414  -7.008  55.836  1.00  0.00    -0.326 OA
ENDROOT
BRANCH   1  16
HETATM   16  C3  UNL     1      28.476  -6.880  61.161  1.00  0.00     0.131 C 
BRANCH  16  17
HETATM   17  C2  UNL     1      29.502  -6.323  62.166  1.00  0.00     0.000 C 
HETATM   18  C1  UNL     1      29.746  -7.460  63.130  1.00  0.00     0.011 C 
BRANCH  17  19
HETATM   19  C13 UNL     1      28.870  -5.130  62.774  1.00  0.00     0.014 C 
BRANCH  19  20
HETATM   20  C14 UNL     1      29.586  -3.835  62.649  1.00  0.00    -0.051 C 
HETATM   21  C15 UNL     1      29.586  -2.995  63.906  1.00  0.00     0.014 C 
HETATM   22  C16 UNL     1      29.221  -3.007  61.453  1.00  0.00     0.014 C 
HETATM   23  C17 UNL     1      31.070  -4.213  62.436  1.00  0.00     0.014 C 
ENDBRANCH  19  20
ENDBRANCH  17  19
ENDBRANCH  16  17
ENDBRANCH   1  16
TORSDOF 4
ENDMDL
MODEL 4
REMARK VINA RESULT: -7.283010008      1.868      2.899
REMARK  4 active torsions:
REMARK  status: ('A' for Active; 'I' for Inactive)
REMARK    1  A    between atoms: C2_2  and  C3_3 
REMARK    2  A    between atoms: C2_2  and  C13_19 
REMARK    3  A    between atoms: C3_3  and  N1_4 
REMARK    4  A    between atoms: C13_19  and  C14_20 
ROOT
HETATM    1  N1  UNL     1      28.858  -6.324  59.593  1.00  0.00    -0.373 N 
HETATM    2  C4  UNL     1      28.166  -6.779  58.465  1.00  0.00     0.066 C 
HETATM    3  C5  UNL     1      28.920  -7.771  57.610  1.00  0.00     0.083 C 
HETATM    4  C6  UNL     1      30.400  -7.632  57.748  1.00  0.00     0.079 C 
HETATM    5  C7  UNL     1      30.791  -6.218  58.129  1.00  0.00     0.083 C 
HETATM    6  C8  UNL     1      30.201  -5.919  59.483  1.00  0.00     0.066 C 
HETATM    7  C9  UNL     1      30.904  -8.653  58.730  1.00  0.00     0.067 C 
HETATM    8  C10 UNL     1      31.846  -9.537  57.917  1.00  0.00     0.169 C 
HETATM    9  C11 UNL     1      32.943  -9.978  58.742  1.00  0.00     0.072 C 
HETATM   10  N2  UNL     1      33.812 -10.351  59.405  1.00  0.00    -0.196 NA
HETATM   11  C12 UNL     1      32.294  -8.569  56.873  1.00  0.00     0.130 C 
HETATM   12  N3  UNL     1      33.479  -8.419  56.446  1.00  0.00    -0.382 N 
ATOM     13  H31 UNL     1      33.785  -7.758  55.732  1.00  0.00     0.158 HD
ATOM     14  H32 UNL     1      34.344  -8.894  56.702  1.00  0.00     0.158 HD
HETATM   15  O1  UNL     1      31.098  -7.913  56.519  1.00  0.00    -0.326 OA
ENDROOT
BRANCH   1  16
HETATM   16  C3  UNL     1      28.261  -6.399  60.868  1.00  0.00     0.131 C 
BRANCH  16  17
HETATM   17  C2  UNL     1      29.247  -6.172  62.029  1.00  0.00     0.000 C 
HETATM   18  C1  UNL     1      29.198  -7.455  62.825  1.00  0.00     0.011 C 
BRANCH  17  19
HETATM   19  C13 UNL     1      28.752  -4.980  62.756  1.00  0.00     0.014 C 
BRANCH  19  20
HETATM   20  C14 UNL     1      29.595  -3.757  62.722  1.00  0.00    -0.051 C 
HETATM   21  C15 UNL     1      29.573  -2.947  63.998  1.00  0.00     0.014 C 
HETATM   22  C16 UNL     1      29.405  -2.875  61.525  1.00  0.00     0.014 C 
HETATM   23  C17 UNL     1      31.049  -4.272  62.615  1.00  0.00     0.014 C 
ENDBRANCH  19  20
ENDBRANCH  17  19
ENDBRANCH  16  17
ENDBRANCH   1  16
TORSDOF 4
ENDMDL
MODEL 5
REMARK VINA RESULT: -7.267035136      1.248      1.374
REMARK  4 active torsions:
REMARK  status: ('A' for Active; 'I' for Inactive)
REMARK    1  A    between atoms: C2_2  and  C3_3 
REMARK    2  A    between atoms: C2_2  and  C13_19 
REMARK    3  A    between atoms: C3_3  and  N1_4 
REMARK    4  A    between atoms: C13_19  and  C14_20 
ROOT
HETATM    1  N1  UNL     1      31.738  -5.646  60.313  1.00  0.00    -0.373 N 
HETATM    2  C4  UNL     1      31.886  -6.919  60.875  1.00  0.00     0.066 C 
HETATM    3  C5  UNL     1      31.986  -8.050  59.878  1.00  0.00     0.083 C 
HETATM    4  C6  UNL     1      31.327  -7.723  58.579  1.00  0.00     0.079 C 
HETATM    5  C7  UNL     1      30.208  -6.717  58.762  1.00  0.00     0.083 C 
HETATM    6  C8  UNL     1      30.813  -5.435  59.274  1.00  0.00     0.066 C 
HETATM    7  C9  UNL     1      32.367  -7.256  57.599  1.00  0.00     0.067 C 
HETATM    8  C10 UNL     1      32.322  -8.284  56.471  1.00  0.00     0.169 C 
HETATM    9  C11 UNL     1      32.587  -7.641  55.208  1.00  0.00     0.072 C 
HETATM   10  N2  UNL     1      32.819  -7.134  54.197  1.00  0.00    -0.196 NA
HETATM   11  C12 UNL     1      30.904  -8.739  56.574  1.00  0.00     0.130 C 
HETATM   12  N3  UNL     1      30.108  -8.938  55.607  1.00  0.00    -0.382 N 
ATOM     13  H31 UNL     1      29.138  -9.249  55.677  1.00  0.00     0.158 HD
ATOM     14  H32 UNL     1      30.243  -8.840  54.601  1.00  0.00     0.158 HD
HETATM   15  O1  UNL     1      30.718  -8.876  57.963  1.00  0.00    -0.326 OA
ENDROOT
BRANCH   1  16
HETATM   16  C3  UNL     1      32.608  -4.602  60.686  1.00  0.00     0.131 C 
BRANCH  16  17
HETATM   17  C2  UNL     1      31.883  -3.322  61.140  1.00  0.00     0.000 C 
HETATM   18  C1  UNL     1      32.933  -2.240  61.060  1.00  0.00     0.011 C 
BRANCH  17  19
HETATM   19  C13 UNL     1      31.391  -3.597  62.510  1.00  0.00     0.014 C 
BRANCH  19  20
HETATM   20  C14 UNL     1      29.925  -3.530  62.740  1.00  0.00    -0.051 C 
HETATM   21  C15 UNL     1      29.519  -2.748  63.968  1.00  0.00     0.014 C 
HETATM   22  C16 UNL     1      29.200  -4.841  62.676  1.00  0.00     0.014 C 
HETATM   23  C17 UNL     1      29.369  -2.706  61.556  1.00  0.00     0.014 C 
ENDBRANCH  19  20
ENDBRANCH  17  19
ENDBRANCH  16  17
ENDBRANCH   1  16
TORSDOF 4
ENDMDL
