MODEL 1
REMARK VINA RESULT: -7.006349740      0.000      0.000
REMARK  4 active torsions:
REMARK  status: ('A' for Active; 'I' for Inactive)
REMARK    1  A    between atoms: C1_2  and  C2_3 
REMARK       I    between atoms: C1_2  and  N2_11 
REMARK    2  A    between atoms: C2_3  and  S1_4 
REMARK    3  A    between atoms: S1_4  and  C3_5 
REMARK    4  A    between atoms: N2_11  and  C6_13 
ROOT
HETATM    1  O1  UNL     1      29.213  -7.287  59.916  1.00  0.00    -0.273 OA
HETATM    2  C1  UNL     1      28.293  -6.440  59.759  1.00  0.00     0.227 C 
HETATM    3  N2  UNL     1      28.338  -5.286  60.543  1.00  0.00    -0.356 N 
ATOM      4  H2  UNL     1      27.599  -4.594  60.423  1.00  0.00     0.162 HD
ENDROOT
BRANCH   3   5
HETATM    5  C6  UNL     1      29.395  -5.010  61.538  1.00  0.00     0.084 C 
HETATM    6  C7  UNL     1      29.054  -5.706  62.783  1.00  0.00     0.025 C 
HETATM    7  C8  UNL     1      30.195  -6.351  63.519  1.00  0.00     0.002 C 
HETATM    8  C9  UNL     1      31.485  -5.635  63.476  1.00  0.00     0.000 C 
HETATM    9  C10 UNL     1      31.738  -4.763  64.690  1.00  0.00     0.000 C 
HETATM   10  C11 UNL     1      30.758  -3.624  64.799  1.00  0.00     0.000 C 
HETATM   11  C12 UNL     1      30.744  -2.749  63.593  1.00  0.00     0.000 C 
HETATM   12  C13 UNL     1      29.429  -2.813  62.820  1.00  0.00     0.002 C 
HETATM   13  C14 UNL     1      29.633  -3.562  61.550  1.00  0.00     0.025 C 
ENDBRANCH   3   5
BRANCH   2  14
HETATM   14  C2  UNL     1      27.204  -6.638  58.790  1.00  0.00     0.184 C 
BRANCH  14  15
HETATM   15  S1  UNL     1      27.795  -7.324  57.226  1.00  0.00    -0.096 SA
BRANCH  15  16
HETATM   16  C3  UNL     1      29.335  -6.602  56.763  1.00  0.00     0.108 C 
HETATM   17  N1  UNL     1      29.928  -5.650  57.303  1.00  0.00    -0.358 N 
HETATM   18  C4  UNL     1      31.143  -5.195  56.812  1.00  0.00     0.072 C 
ATOM     19  H1  UNL     1      29.514  -5.197  58.117  1.00  0.00     0.166 HD
HETATM   20  C5  UNL     1      31.865  -6.252  56.005  1.00  0.00     0.126 C 
HETATM   21  S2  UNL     1      30.357  -7.145  55.402  1.00  0.00    -0.100 SA
ENDBRANCH  15  16
ENDBRANCH  14  15
ENDBRANCH   2  14
TORSDOF 4
ENDMDL
MODEL 2
REMARK VINA RESULT: -6.902367272      6.285      9.187
REMARK  4 active torsions:
REMARK  status: ('A' for Active; 'I' for Inactive)
REMARK    1  A    between atoms: C1_2  and  C2_3 
REMARK       I    between atoms: C1_2  and  N2_11 
REMARK    2  A    between atoms: C2_3  and  S1_4 
REMARK    3  A    between atoms: S1_4  and  C3_5 
REMARK    4  A    between atoms: N2_11  and  C6_13 
ROOT
HETATM    1  O1  UNL     1      31.048  -3.450  66.974  1.00  0.00    -0.273 OA
HETATM    2  C1  UNL     1      32.198  -3.626  66.490  1.00  0.00     0.227 C 
HETATM    3  N2  UNL     1      32.283  -3.982  65.143  1.00  0.00    -0.356 N 
ATOM      4  H2  UNL     1      33.209  -4.126  64.742  1.00  0.00     0.162 HD
ENDROOT
BRANCH   3   5
HETATM    5  C6  UNL     1      31.108  -4.162  64.266  1.00  0.00     0.084 C 
HETATM    6  C7  UNL     1      31.353  -5.316  63.393  1.00  0.00     0.025 C 
HETATM    7  C8  UNL     1      30.181  -6.222  63.144  1.00  0.00     0.002 C 
HETATM    8  C9  UNL     1      28.861  -5.568  63.045  1.00  0.00     0.000 C 
HETATM    9  C10 UNL     1      28.424  -5.293  61.620  1.00  0.00     0.000 C 
HETATM   10  C11 UNL     1      29.313  -4.298  60.923  1.00  0.00     0.000 C 
HETATM   11  C12 UNL     1      29.405  -2.995  61.640  1.00  0.00     0.000 C 
HETATM   12  C13 UNL     1      30.798  -2.713  62.198  1.00  0.00     0.002 C 
HETATM   13  C14 UNL     1      30.782  -2.857  63.679  1.00  0.00     0.025 C 
ENDBRANCH   3   5
BRANCH   2  14
HETATM   14  C2  UNL     1      33.419  -3.466  67.295  1.00  0.00     0.184 C 
BRANCH  14  15
HETATM   15  S1  UNL     1      33.801  -1.730  67.623  1.00  0.00    -0.096 SA
BRANCH  15  16
HETATM   16  C3  UNL     1      32.637  -1.030  68.745  1.00  0.00     0.108 C 
HETATM   17  N1  UNL     1      31.468  -0.672  68.513  1.00  0.00    -0.358 N 
HETATM   18  C4  UNL     1      30.674  -0.133  69.515  1.00  0.00     0.072 C 
ATOM     19  H1  UNL     1      31.088  -0.776  67.573  1.00  0.00     0.166 HD
HETATM   20  C5  UNL     1      31.142  -0.538  70.895  1.00  0.00     0.126 C 
HETATM   21  S2  UNL     1      32.938  -0.721  70.479  1.00  0.00    -0.100 SA
ENDBRANCH  15  16
ENDBRANCH  14  15
ENDBRANCH   2  14
TORSDOF 4
ENDMDL
MODEL 3
REMARK VINA RESULT: -6.862698252      1.612      3.032
REMARK  4 active torsions:
REMARK  status: ('A' for Active; 'I' for Inactive)
REMARK    1  A    between atoms: C1_2  and  C2_3 
REMARK       I    between atoms: C1_2  and  N2_11 
REMARK    2  A    between atoms: C2_3  and  S1_4 
REMARK    3  A    between atoms: S1_4  and  C3_5 
REMARK    4  A    between atoms: N2_11  and  C6_13 
ROOT
HETATM    1  O1  UNL     1      31.239  -7.628  59.483  1.00  0.00    -0.273 OA
HETATM    2  C1  UNL     1      31.403  -6.717  58.627  1.00  0.00     0.227 C 
HETATM    3  N2  UNL     1      31.316  -5.395  59.068  1.00  0.00    -0.356 N 
ATOM      4  H2  UNL     1      31.449  -4.651  58.384  1.00  0.00     0.162 HD
ENDROOT
BRANCH   3   5
HETATM    5  C6  UNL     1      31.042  -5.013  60.469  1.00  0.00     0.084 C 
HETATM    6  C7  UNL     1      29.626  -4.652  60.583  1.00  0.00     0.025 C 
HETATM    7  C8  UNL     1      28.920  -5.113  61.827  1.00  0.00     0.002 C 
HETATM    8  C9  UNL     1      29.720  -5.112  63.068  1.00  0.00     0.000 C 
HETATM    9  C10 UNL     1      29.527  -3.871  63.916  1.00  0.00     0.000 C 
HETATM   10  C11 UNL     1      30.018  -2.622  63.233  1.00  0.00     0.000 C 
HETATM   11  C12 UNL     1      31.453  -2.697  62.840  1.00  0.00     0.000 C 
HETATM   12  C13 UNL     1      31.662  -2.701  61.327  1.00  0.00     0.002 C 
HETATM   13  C14 UNL     1      32.077  -4.058  60.884  1.00  0.00     0.025 C 
ENDBRANCH   3   5
BRANCH   2  14
HETATM   14  C2  UNL     1      31.679  -7.012  57.212  1.00  0.00     0.184 C 
BRANCH  14  15
HETATM   15  S1  UNL     1      30.265  -6.647  56.149  1.00  0.00    -0.096 SA
BRANCH  15  16
HETATM   16  C3  UNL     1      28.747  -6.978  56.982  1.00  0.00     0.108 C 
HETATM   17  N1  UNL     1      28.153  -6.260  57.807  1.00  0.00    -0.358 N 
HETATM   18  C4  UNL     1      26.958  -6.668  58.379  1.00  0.00     0.072 C 
ATOM     19  H1  UNL     1      28.552  -5.358  58.066  1.00  0.00     0.166 HD
HETATM   20  C5  UNL     1      26.243  -7.700  57.533  1.00  0.00     0.126 C 
HETATM   21  S2  UNL     1      27.754  -8.447  56.763  1.00  0.00    -0.100 SA
ENDBRANCH  15  16
ENDBRANCH  14  15
ENDBRANCH   2  14
TORSDOF 4
ENDMDL
MODEL 4
REMARK VINA RESULT: -6.818105232      3.349      7.219
REMARK  4 active torsions:
REMARK  status: ('A' for Active; 'I' for Inactive)
REMARK    1  A    between atoms: C1_2  and  C2_3 
REMARK       I    between atoms: C1_2  and  N2_11 
REMARK    2  A    between atoms: C2_3  and  S1_4 
REMARK    3  A    between atoms: S1_4  and  C3_5 
REMARK    4  A    between atoms: N2_11  and  C6_13 
ROOT
HETATM    1  O1  UNL     1      32.259  -4.896  59.792  1.00  0.00    -0.273 OA
HETATM    2  C1  UNL     1      31.593  -4.100  59.078  1.00  0.00     0.227 C 
HETATM    3  N2  UNL     1      30.810  -4.647  58.060  1.00  0.00    -0.356 N 
ATOM      4  H2  UNL     1      30.267  -4.010  57.477  1.00  0.00     0.162 HD
ENDROOT
BRANCH   3   5
HETATM    5  C6  UNL     1      30.724  -6.094  57.778  1.00  0.00     0.084 C 
HETATM    6  C7  UNL     1      31.657  -6.412  56.692  1.00  0.00     0.025 C 
HETATM    7  C8  UNL     1      32.421  -7.699  56.825  1.00  0.00     0.002 C 
HETATM    8  C9  UNL     1      31.695  -8.826  57.445  1.00  0.00     0.000 C 
HETATM    9  C10 UNL     1      31.078  -9.778  56.440  1.00  0.00     0.000 C 
HETATM   10  C11 UNL     1      29.996  -9.130  55.618  1.00  0.00     0.000 C 
HETATM   11  C12 UNL     1      28.899  -8.555  56.447  1.00  0.00     0.000 C 
HETATM   12  C13 UNL     1      28.824  -7.031  56.370  1.00  0.00     0.002 C 
HETATM   13  C14 UNL     1      29.304  -6.443  57.649  1.00  0.00     0.025 C 
ENDBRANCH   3   5
BRANCH   2  14
HETATM   14  C2  UNL     1      31.623  -2.644  59.292  1.00  0.00     0.184 C 
BRANCH  14  15
HETATM   15  S1  UNL     1      32.490  -2.194  60.812  1.00  0.00    -0.096 SA
BRANCH  15  16
HETATM   16  C3  UNL     1      31.541  -2.631  62.232  1.00  0.00     0.108 C 
HETATM   17  N1  UNL     1      31.927  -2.731  63.411  1.00  0.00    -0.358 N 
HETATM   18  C4  UNL     1      31.048  -3.089  64.422  1.00  0.00     0.072 C 
ATOM     19  H1  UNL     1      32.904  -2.547  63.637  1.00  0.00     0.166 HD
HETATM   20  C5  UNL     1      29.609  -2.796  64.058  1.00  0.00     0.126 C 
HETATM   21  S2  UNL     1      29.793  -3.000  62.226  1.00  0.00    -0.100 SA
ENDBRANCH  15  16
ENDBRANCH  14  15
ENDBRANCH   2  14
TORSDOF 4
ENDMDL
MODEL 5
REMARK VINA RESULT: -6.810054293      6.885      9.978
REMARK  4 active torsions:
REMARK  status: ('A' for Active; 'I' for Inactive)
REMARK    1  A    between atoms: C1_2  and  C2_3 
REMARK       I    between atoms: C1_2  and  N2_11 
REMARK    2  A    between atoms: C2_3  and  S1_4 
REMARK    3  A    between atoms: S1_4  and  C3_5 
REMARK    4  A    between atoms: N2_11  and  C6_13 
ROOT
HETATM    1  O1  UNL     1      31.071  -3.971  67.364  1.00  0.00    -0.273 OA
HETATM    2  C1  UNL     1      31.435  -2.852  66.914  1.00  0.00     0.227 C 
HETATM    3  N2  UNL     1      31.238  -2.610  65.553  1.00  0.00    -0.356 N 
ATOM      4  H2  UNL     1      31.528  -1.707  65.179  1.00  0.00     0.162 HD
ENDROOT
BRANCH   3   5
HETATM    5  C6  UNL     1      30.633  -3.587  64.625  1.00  0.00     0.084 C 
HETATM    6  C7  UNL     1      31.709  -4.249  63.881  1.00  0.00     0.025 C 
HETATM    7  C8  UNL     1      31.546  -5.724  63.644  1.00  0.00     0.002 C 
HETATM    8  C9  UNL     1      30.168  -6.196  63.402  1.00  0.00     0.000 C 
HETATM    9  C10 UNL     1      29.823  -6.341  61.933  1.00  0.00     0.000 C 
HETATM   10  C11 UNL     1      29.830  -5.024  61.204  1.00  0.00     0.000 C 
HETATM   11  C12 UNL     1      28.903  -4.022  61.800  1.00  0.00     0.000 C 
HETATM   12  C13 UNL     1      29.627  -2.826  62.416  1.00  0.00     0.002 C 
HETATM   13  C14 UNL     1      29.553  -2.907  63.899  1.00  0.00     0.025 C 
ENDBRANCH   3   5
BRANCH   2  14
HETATM   14  C2  UNL     1      32.046  -1.824  67.771  1.00  0.00     0.184 C 
BRANCH  14  15
HETATM   15  S1  UNL     1      32.601  -2.494  69.354  1.00  0.00    -0.096 SA
BRANCH  15  16
HETATM   16  C3  UNL     1      31.741  -1.740  70.695  1.00  0.00     0.108 C 
HETATM   17  N1  UNL     1      31.417  -2.251  71.782  1.00  0.00    -0.358 N 
HETATM   18  C4  UNL     1      30.736  -1.517  72.742  1.00  0.00     0.072 C 
ATOM     19  H1  UNL     1      31.656  -3.224  71.971  1.00  0.00     0.166 HD
HETATM   20  C5  UNL     1      30.936  -0.027  72.569  1.00  0.00     0.126 C 
HETATM   21  S2  UNL     1      31.183  -0.043  70.733  1.00  0.00    -0.100 SA
ENDBRANCH  15  16
ENDBRANCH  14  15
ENDBRANCH   2  14
TORSDOF 4
ENDMDL
