MODEL 1
REMARK VINA RESULT: -8.120990089      0.000      0.000
REMARK  5 active torsions:
REMARK  status: ('A' for Active; 'I' for Inactive)
REMARK    1  A    between atoms: C2_2  and  C4_4 
REMARK    2  A    between atoms: C4_4  and  O2_6 
REMARK    3  A    between atoms: O2_6  and  C5_7 
REMARK    4  A    between atoms: C5_7  and  C6_8 
REMARK    5  A    between atoms: C6_8  and  C7_9 
ROOT
HETATM    1  C7  UNL     1      29.403  -5.175  62.070  1.00  0.00    -0.081 C 
HETATM    2  C8  UNL     1      30.473  -5.627  61.470  1.00  0.00    -0.011 C 
HETATM    3  C9  UNL     1      31.926  -5.289  61.488  1.00  0.00     0.103 C 
HETATM    4  C10 UNL     1      32.202  -3.830  61.601  1.00  0.00     0.172 C 
HETATM    5  O3  UNL     1      33.347  -4.090  60.804  1.00  0.00    -0.345 OA
HETATM    6  C11 UNL     1      32.474  -4.938  60.100  1.00  0.00     0.171 C 
HETATM    7  C12 UNL     1      33.053  -6.024  59.316  1.00  0.00     0.080 C 
HETATM    8  O4  UNL     1      31.483  -4.144  59.543  1.00  0.00    -0.342 OA
HETATM    9  C13 UNL     1      31.349  -3.166  60.556  1.00  0.00     0.088 C 
HETATM   10  C14 UNL     1      32.107  -1.947  60.056  1.00  0.00     0.049 C 
HETATM   11  C15 UNL     1      29.959  -2.875  60.950  1.00  0.00     0.041 C 
HETATM   12  C16 UNL     1      29.714  -2.788  62.418  1.00  0.00     0.007 C 
HETATM   13  C17 UNL     1      29.273  -4.056  63.080  1.00  0.00     0.034 C 
ENDROOT
BRANCH   1  14
HETATM   14  C6  UNL     1      28.131  -5.823  61.743  1.00  0.00     0.060 C 
BRANCH  14  15
HETATM   15  C5  UNL     1      28.089  -6.647  60.502  1.00  0.00     0.183 C 
BRANCH  15  16
HETATM   16  O2  UNL     1      27.102  -6.225  59.585  1.00  0.00    -0.321 OA
BRANCH  16  17
HETATM   17  C4  UNL     1      26.586  -6.962  58.562  1.00  0.00     0.262 C 
HETATM   18  O1  UNL     1      25.336  -7.024  58.430  1.00  0.00    -0.265 OA
BRANCH  17  19
HETATM   19  C2  UNL     1      27.457  -7.701  57.591  1.00  0.00     0.077 C 
HETATM   20  C1  UNL     1      26.613  -8.363  56.517  1.00  0.00     0.020 C 
HETATM   21  C3  UNL     1      28.347  -6.690  56.915  1.00  0.00     0.020 C 
ENDBRANCH  17  19
ENDBRANCH  16  17
ENDBRANCH  15  16
ENDBRANCH  14  15
ENDBRANCH   1  14
TORSDOF 5
ENDMDL
MODEL 2
REMARK VINA RESULT: -7.962855569      3.718      7.200
REMARK  5 active torsions:
REMARK  status: ('A' for Active; 'I' for Inactive)
REMARK    1  A    between atoms: C2_2  and  C4_4 
REMARK    2  A    between atoms: C4_4  and  O2_6 
REMARK    3  A    between atoms: O2_6  and  C5_7 
REMARK    4  A    between atoms: C5_7  and  C6_8 
REMARK    5  A    between atoms: C6_8  and  C7_9 
ROOT
HETATM    1  C7  UNL     1      29.839  -3.359  63.086  1.00  0.00    -0.081 C 
HETATM    2  C8  UNL     1      30.452  -2.637  62.183  1.00  0.00    -0.011 C 
HETATM    3  C9  UNL     1      30.731  -2.771  60.724  1.00  0.00     0.103 C 
HETATM    4  C10 UNL     1      31.037  -4.165  60.297  1.00  0.00     0.172 C 
HETATM    5  O3  UNL     1      31.898  -3.572  59.337  1.00  0.00    -0.345 OA
HETATM    6  C11 UNL     1      32.228  -2.706  60.394  1.00  0.00     0.171 C 
HETATM    7  C12 UNL     1      32.783  -1.398  60.065  1.00  0.00     0.080 C 
HETATM    8  O4  UNL     1      32.820  -3.471  61.389  1.00  0.00    -0.342 OA
HETATM    9  C13 UNL     1      32.083  -4.671  61.252  1.00  0.00     0.088 C 
HETATM   10  C14 UNL     1      32.983  -5.623  60.481  1.00  0.00     0.049 C 
HETATM   11  C15 UNL     1      31.579  -5.230  62.519  1.00  0.00     0.041 C 
HETATM   12  C16 UNL     1      30.163  -5.696  62.496  1.00  0.00     0.007 C 
HETATM   13  C17 UNL     1      29.142  -4.692  62.932  1.00  0.00     0.034 C 
ENDROOT
BRANCH   1  14
HETATM   14  C6  UNL     1      29.801  -2.828  64.450  1.00  0.00     0.060 C 
BRANCH  14  15
HETATM   15  C5  UNL     1      31.095  -2.760  65.187  1.00  0.00     0.183 C 
BRANCH  15  16
HETATM   16  O2  UNL     1      30.994  -3.180  66.532  1.00  0.00    -0.321 OA
BRANCH  16  17
HETATM   17  C4  UNL     1      31.134  -2.391  67.633  1.00  0.00     0.262 C 
HETATM   18  O1  UNL     1      30.578  -2.743  68.706  1.00  0.00    -0.265 OA
BRANCH  17  19
HETATM   19  C2  UNL     1      31.926  -1.118  67.609  1.00  0.00     0.077 C 
HETATM   20  C1  UNL     1      31.501  -0.206  68.745  1.00  0.00     0.020 C 
HETATM   21  C3  UNL     1      33.374  -1.477  67.830  1.00  0.00     0.020 C 
ENDBRANCH  17  19
ENDBRANCH  16  17
ENDBRANCH  15  16
ENDBRANCH  14  15
ENDBRANCH   1  14
TORSDOF 5
ENDMDL
MODEL 3
REMARK VINA RESULT: -7.850730709      1.933      3.113
REMARK  5 active torsions:
REMARK  status: ('A' for Active; 'I' for Inactive)
REMARK    1  A    between atoms: C2_2  and  C4_4 
REMARK    2  A    between atoms: C4_4  and  O2_6 
REMARK    3  A    between atoms: O2_6  and  C5_7 
REMARK    4  A    between atoms: C5_7  and  C6_8 
REMARK    5  A    between atoms: C6_8  and  C7_9 
ROOT
HETATM    1  C7  UNL     1      31.130  -5.112  59.249  1.00  0.00    -0.081 C 
HETATM    2  C8  UNL     1      31.953  -4.194  59.686  1.00  0.00    -0.011 C 
HETATM    3  C9  UNL     1      32.555  -3.846  61.006  1.00  0.00     0.103 C 
HETATM    4  C10 UNL     1      31.628  -4.033  62.156  1.00  0.00     0.172 C 
HETATM    5  O3  UNL     1      32.296  -2.928  62.743  1.00  0.00    -0.345 OA
HETATM    6  C11 UNL     1      32.252  -2.406  61.438  1.00  0.00     0.171 C 
HETATM    7  C12 UNL     1      33.224  -1.381  61.073  1.00  0.00     0.080 C 
HETATM    8  O4  UNL     1      30.917  -2.233  61.104  1.00  0.00    -0.342 OA
HETATM    9  C13 UNL     1      30.348  -3.342  61.773  1.00  0.00     0.088 C 
HETATM   10  C14 UNL     1      29.732  -2.786  63.047  1.00  0.00     0.049 C 
HETATM   11  C15 UNL     1      29.408  -4.135  60.960  1.00  0.00     0.041 C 
HETATM   12  C16 UNL     1      29.574  -5.614  61.048  1.00  0.00     0.007 C 
HETATM   13  C17 UNL     1      30.456  -6.232  60.010  1.00  0.00     0.034 C 
ENDROOT
BRANCH   1  14
HETATM   14  C6  UNL     1      30.795  -5.082  57.824  1.00  0.00     0.060 C 
BRANCH  14  15
HETATM   15  C5  UNL     1      30.908  -6.366  57.074  1.00  0.00     0.183 C 
BRANCH  15  16
HETATM   16  O2  UNL     1      29.706  -6.750  56.440  1.00  0.00    -0.321 OA
BRANCH  16  17
HETATM   17  C4  UNL     1      28.777  -7.615  56.933  1.00  0.00     0.262 C 
HETATM   18  O1  UNL     1      29.144  -8.767  57.279  1.00  0.00    -0.265 OA
BRANCH  17  19
HETATM   19  C2  UNL     1      27.332  -7.239  57.076  1.00  0.00     0.077 C 
HETATM   20  C1  UNL     1      26.446  -8.458  56.891  1.00  0.00     0.020 C 
HETATM   21  C3  UNL     1      27.128  -6.735  58.482  1.00  0.00     0.020 C 
ENDBRANCH  17  19
ENDBRANCH  16  17
ENDBRANCH  15  16
ENDBRANCH  14  15
ENDBRANCH   1  14
TORSDOF 5
ENDMDL
MODEL 4
REMARK VINA RESULT: -7.691383233      2.572      4.389
REMARK  5 active torsions:
REMARK  status: ('A' for Active; 'I' for Inactive)
REMARK    1  A    between atoms: C2_2  and  C4_4 
REMARK    2  A    between atoms: C4_4  and  O2_6 
REMARK    3  A    between atoms: O2_6  and  C5_7 
REMARK    4  A    between atoms: C5_7  and  C6_8 
REMARK    5  A    between atoms: C6_8  and  C7_9 
ROOT
HETATM    1  C7  UNL     1      30.147  -6.139  60.566  1.00  0.00    -0.081 C 
HETATM    2  C8  UNL     1      31.037  -5.181  60.559  1.00  0.00    -0.011 C 
HETATM    3  C9  UNL     1      31.891  -4.514  61.585  1.00  0.00     0.103 C 
HETATM    4  C10 UNL     1      31.215  -4.327  62.898  1.00  0.00     0.172 C 
HETATM    5  O3  UNL     1      31.984  -3.139  63.009  1.00  0.00    -0.345 OA
HETATM    6  C11 UNL     1      31.676  -2.997  61.644  1.00  0.00     0.171 C 
HETATM    7  C12 UNL     1      32.550  -2.165  60.824  1.00  0.00     0.080 C 
HETATM    8  O4  UNL     1      30.300  -2.853  61.542  1.00  0.00    -0.342 OA
HETATM    9  C13 UNL     1      29.882  -3.702  62.593  1.00  0.00     0.088 C 
HETATM   10  C14 UNL     1      29.533  -2.784  63.753  1.00  0.00     0.049 C 
HETATM   11  C15 UNL     1      28.801  -4.638  62.234  1.00  0.00     0.041 C 
HETATM   12  C16 UNL     1      28.987  -6.042  62.701  1.00  0.00     0.007 C 
HETATM   13  C17 UNL     1      29.644  -6.968  61.727  1.00  0.00     0.034 C 
ENDROOT
BRANCH   1  14
HETATM   14  C6  UNL     1      29.531  -6.487  59.284  1.00  0.00     0.060 C 
BRANCH  14  15
HETATM   15  C5  UNL     1      30.447  -6.890  58.179  1.00  0.00     0.183 C 
BRANCH  15  16
HETATM   16  O2  UNL     1      31.433  -7.817  58.582  1.00  0.00    -0.321 OA
BRANCH  16  17
HETATM   17  C4  UNL     1      32.774  -7.709  58.371  1.00  0.00     0.262 C 
HETATM   18  O1  UNL     1      33.186  -7.426  57.216  1.00  0.00    -0.265 OA
BRANCH  17  19
HETATM   19  C2  UNL     1      33.774  -7.916  59.468  1.00  0.00     0.077 C 
HETATM   20  C1  UNL     1      34.434  -6.600  59.841  1.00  0.00     0.020 C 
HETATM   21  C3  UNL     1      33.027  -8.412  60.680  1.00  0.00     0.020 C 
ENDBRANCH  17  19
ENDBRANCH  16  17
ENDBRANCH  15  16
ENDBRANCH  14  15
ENDBRANCH   1  14
TORSDOF 5
ENDMDL
MODEL 5
REMARK VINA RESULT: -7.550736377      3.210      5.337
REMARK  5 active torsions:
REMARK  status: ('A' for Active; 'I' for Inactive)
REMARK    1  A    between atoms: C2_2  and  C4_4 
REMARK    2  A    between atoms: C4_4  and  O2_6 
REMARK    3  A    between atoms: O2_6  and  C5_7 
REMARK    4  A    between atoms: C5_7  and  C6_8 
REMARK    5  A    between atoms: C6_8  and  C7_9 
ROOT
HETATM    1  C7  UNL     1      29.261  -5.647  61.376  1.00  0.00    -0.081 C 
HETATM    2  C8  UNL     1      30.415  -5.704  60.763  1.00  0.00    -0.011 C 
HETATM    3  C9  UNL     1      31.317  -6.796  60.292  1.00  0.00     0.103 C 
HETATM    4  C10 UNL     1      31.371  -7.968  61.209  1.00  0.00     0.172 C 
HETATM    5  O3  UNL     1      32.720  -8.103  60.789  1.00  0.00    -0.345 OA
HETATM    6  C11 UNL     1      32.728  -6.701  60.883  1.00  0.00     0.171 C 
HETATM    7  C12 UNL     1      33.727  -5.965  60.114  1.00  0.00     0.080 C 
HETATM    8  O4  UNL     1      32.509  -6.372  62.213  1.00  0.00    -0.342 OA
HETATM    9  C13 UNL     1      31.620  -7.408  62.583  1.00  0.00     0.088 C 
HETATM   10  C14 UNL     1      32.459  -8.422  63.343  1.00  0.00     0.049 C 
HETATM   11  C15 UNL     1      30.425  -6.958  63.319  1.00  0.00     0.041 C 
HETATM   12  C16 UNL     1      29.134  -7.558  62.875  1.00  0.00     0.007 C 
HETATM   13  C17 UNL     1      28.374  -6.776  61.850  1.00  0.00     0.034 C 
ENDROOT
BRANCH   1  14
HETATM   14  C6  UNL     1      28.720  -4.315  61.656  1.00  0.00     0.060 C 
BRANCH  14  15
HETATM   15  C5  UNL     1      29.378  -3.531  62.739  1.00  0.00     0.183 C 
BRANCH  15  16
HETATM   16  O2  UNL     1      30.268  -2.547  62.253  1.00  0.00    -0.321 OA
BRANCH  16  17
HETATM   17  C4  UNL     1      31.627  -2.578  62.341  1.00  0.00     0.262 C 
HETATM   18  O1  UNL     1      32.161  -2.605  63.480  1.00  0.00    -0.265 OA
BRANCH  17  19
HETATM   19  C2  UNL     1      32.505  -2.580  61.126  1.00  0.00     0.077 C 
HETATM   20  C1  UNL     1      31.677  -2.369  59.872  1.00  0.00     0.020 C 
HETATM   21  C3  UNL     1      33.455  -1.415  61.248  1.00  0.00     0.020 C 
ENDBRANCH  17  19
ENDBRANCH  16  17
ENDBRANCH  15  16
ENDBRANCH  14  15
ENDBRANCH   1  14
TORSDOF 5
ENDMDL
