MODEL 1
REMARK VINA RESULT: -8.401418431      0.000      0.000
REMARK  3 active torsions:
REMARK  status: ('A' for Active; 'I' for Inactive)
REMARK    1  A    between atoms: C2_2  and  C3_3 
REMARK    2  A    between atoms: C5_5  and  C6_6 
REMARK    3  A    between atoms: C7_7  and  C8_8 
ROOT
HETATM    1  C8  UNL     1      29.931  -6.219  62.061  1.00  0.00     0.056 C 
HETATM    2  C9  UNL     1      29.053  -7.452  62.512  1.00  0.00     0.033 C 
HETATM    3  C10 UNL     1      29.012  -5.060  62.217  1.00  0.00    -0.004 C 
HETATM    4  C11 UNL     1      29.343  -3.743  61.717  1.00  0.00     0.024 C 
HETATM    5  C12 UNL     1      29.623  -2.612  62.363  1.00  0.00     0.175 C 
HETATM    6  O1  UNL     1      29.656  -2.481  63.734  1.00  0.00    -0.209 OA
HETATM    7  O2  UNL     1      29.961  -3.190  64.734  1.00  0.00    -0.225 OA
HETATM    8  C13 UNL     1      31.204  -3.331  65.262  1.00  0.00     0.100 A 
HETATM    9  C14 UNL     1      31.731  -4.823  65.168  1.00  0.00     0.072 C 
HETATM   10  C15 UNL     1      31.149  -5.175  63.891  1.00  0.00     0.028 C 
HETATM   11  C16 UNL     1      31.061  -6.316  63.073  1.00  0.00     0.161 C 
HETATM   12  O3  UNL     1      31.704  -7.325  63.037  1.00  0.00    -0.292 OA
HETATM   13  C17 UNL     1      32.140  -2.271  65.605  1.00  0.00     0.044 A 
HETATM   14  C18 UNL     1      31.319  -2.805  66.710  1.00  0.00     0.044 A 
ENDROOT
BRANCH   1  15
HETATM   15  C7  UNL     1      30.261  -6.475  60.693  1.00  0.00    -0.005 C 
HETATM   16  C6  UNL     1      29.574  -6.666  59.610  1.00  0.00    -0.002 C 
BRANCH  16  17
HETATM   17  C5  UNL     1      28.156  -6.677  59.465  1.00  0.00     0.006 C 
HETATM   18  C3  UNL     1      27.614  -7.064  58.290  1.00  0.00    -0.063 C 
HETATM   19  C4  UNL     1      28.486  -7.468  57.179  1.00  0.00     0.048 C 
BRANCH  18  20
HETATM   20  C2  UNL     1      26.197  -7.067  58.166  1.00  0.00    -0.004 C 
HETATM   21  C1  UNL     1      25.567  -7.831  57.310  1.00  0.00     0.012 C 
ENDBRANCH  18  20
ENDBRANCH  16  17
ENDBRANCH   1  15
TORSDOF 3
ENDMDL
MODEL 2
REMARK VINA RESULT: -8.294407615      3.056      6.996
REMARK  3 active torsions:
REMARK  status: ('A' for Active; 'I' for Inactive)
REMARK    1  A    between atoms: C2_2  and  C3_3 
REMARK    2  A    between atoms: C5_5  and  C6_6 
REMARK    3  A    between atoms: C7_7  and  C8_8 
ROOT
HETATM    1  C8  UNL     1      29.990  -3.389  62.243  1.00  0.00     0.056 C 
HETATM    2  C9  UNL     1      29.212  -2.500  61.195  1.00  0.00     0.033 C 
HETATM    3  C10 UNL     1      29.411  -4.746  62.046  1.00  0.00    -0.004 C 
HETATM    4  C11 UNL     1      29.693  -5.841  62.950  1.00  0.00     0.024 C 
HETATM    5  C12 UNL     1      30.389  -6.962  62.768  1.00  0.00     0.175 C 
HETATM    6  O1  UNL     1      31.023  -7.309  61.595  1.00  0.00    -0.209 OA
HETATM    7  O2  UNL     1      31.613  -6.725  60.643  1.00  0.00    -0.225 OA
HETATM    8  C13 UNL     1      32.926  -6.378  60.612  1.00  0.00     0.100 A 
HETATM    9  C14 UNL     1      33.130  -4.808  60.520  1.00  0.00     0.072 C 
HETATM   10  C15 UNL     1      32.013  -4.400  61.344  1.00  0.00     0.028 C 
HETATM   11  C16 UNL     1      31.414  -3.193  61.750  1.00  0.00     0.161 C 
HETATM   12  O3  UNL     1      31.819  -2.067  61.773  1.00  0.00    -0.292 OA
HETATM   13  C17 UNL     1      34.067  -7.222  60.932  1.00  0.00     0.044 A 
HETATM   14  C18 UNL     1      33.725  -7.096  59.501  1.00  0.00     0.044 A 
ENDROOT
BRANCH   1  15
HETATM   15  C7  UNL     1      29.663  -2.836  63.520  1.00  0.00    -0.005 C 
HETATM   16  C6  UNL     1      30.215  -2.862  64.693  1.00  0.00    -0.002 C 
BRANCH  16  17
HETATM   17  C5  UNL     1      31.423  -3.515  65.077  1.00  0.00     0.006 C 
HETATM   18  C3  UNL     1      32.032  -3.158  66.228  1.00  0.00    -0.063 C 
HETATM   19  C4  UNL     1      31.447  -2.107  67.071  1.00  0.00     0.048 C 
BRANCH  18  20
HETATM   20  C2  UNL     1      33.236  -3.823  66.591  1.00  0.00    -0.004 C 
HETATM   21  C1  UNL     1      34.177  -3.241  67.291  1.00  0.00     0.012 C 
ENDBRANCH  18  20
ENDBRANCH  16  17
ENDBRANCH   1  15
TORSDOF 3
ENDMDL
MODEL 3
REMARK VINA RESULT: -8.207717655      2.224      3.564
REMARK  3 active torsions:
REMARK  status: ('A' for Active; 'I' for Inactive)
REMARK    1  A    between atoms: C2_2  and  C3_3 
REMARK    2  A    between atoms: C5_5  and  C6_6 
REMARK    3  A    between atoms: C7_7  and  C8_8 
ROOT
HETATM    1  C8  UNL     1      29.938  -6.255  62.461  1.00  0.00     0.056 C 
HETATM    2  C9  UNL     1      29.191  -7.566  62.927  1.00  0.00     0.033 C 
HETATM    3  C10 UNL     1      28.997  -5.166  62.839  1.00  0.00    -0.004 C 
HETATM    4  C11 UNL     1      29.191  -3.797  62.407  1.00  0.00     0.024 C 
HETATM    5  C12 UNL     1      29.508  -2.704  63.099  1.00  0.00     0.175 C 
HETATM    6  O1  UNL     1      29.731  -2.674  64.459  1.00  0.00    -0.209 OA
HETATM    7  O2  UNL     1      30.208  -3.437  65.344  1.00  0.00    -0.225 OA
HETATM    8  C13 UNL     1      31.520  -3.546  65.681  1.00  0.00     0.100 A 
HETATM    9  C14 UNL     1      32.097  -4.994  65.392  1.00  0.00     0.072 C 
HETATM   10  C15 UNL     1      31.354  -5.282  64.184  1.00  0.00     0.028 C 
HETATM   11  C16 UNL     1      31.204  -6.362  63.295  1.00  0.00     0.161 C 
HETATM   12  O3  UNL     1      31.882  -7.326  63.086  1.00  0.00    -0.292 OA
HETATM   13  C17 UNL     1      32.444  -2.462  65.977  1.00  0.00     0.044 A 
HETATM   14  C18 UNL     1      31.816  -3.124  67.138  1.00  0.00     0.044 A 
ENDROOT
BRANCH   1  15
HETATM   15  C7  UNL     1      30.080  -6.387  61.045  1.00  0.00    -0.005 C 
HETATM   16  C6  UNL     1      30.607  -5.660  60.109  1.00  0.00    -0.002 C 
BRANCH  16  17
HETATM   17  C5  UNL     1      31.256  -4.398  60.244  1.00  0.00     0.006 C 
HETATM   18  C3  UNL     1      32.598  -4.356  60.395  1.00  0.00    -0.063 C 
HETATM   19  C4  UNL     1      33.372  -5.604  60.416  1.00  0.00     0.048 C 
BRANCH  18  20
HETATM   20  C2  UNL     1      33.225  -3.086  60.529  1.00  0.00    -0.004 C 
HETATM   21  C1  UNL     1      32.707  -2.118  61.242  1.00  0.00     0.012 C 
ENDBRANCH  18  20
ENDBRANCH  16  17
ENDBRANCH   1  15
TORSDOF 3
ENDMDL
MODEL 4
REMARK VINA RESULT: -8.142723633      2.681      6.356
REMARK  3 active torsions:
REMARK  status: ('A' for Active; 'I' for Inactive)
REMARK    1  A    between atoms: C2_2  and  C3_3 
REMARK    2  A    between atoms: C5_5  and  C6_6 
REMARK    3  A    between atoms: C7_7  and  C8_8 
ROOT
HETATM    1  C8  UNL     1      29.040  -6.053  62.176  1.00  0.00     0.056 C 
HETATM    2  C9  UNL     1      27.888  -6.993  62.707  1.00  0.00     0.033 C 
HETATM    3  C10 UNL     1      30.282  -6.728  62.638  1.00  0.00    -0.004 C 
HETATM    4  C11 UNL     1      31.582  -6.096  62.544  1.00  0.00     0.024 C 
HETATM    5  C12 UNL     1      32.636  -6.385  61.784  1.00  0.00     0.175 C 
HETATM    6  O1  UNL     1      32.686  -7.416  60.871  1.00  0.00    -0.209 OA
HETATM    7  O2  UNL     1      31.892  -8.011  60.089  1.00  0.00    -0.225 OA
HETATM    8  C13 UNL     1      31.585  -7.628  58.822  1.00  0.00     0.100 A 
HETATM    9  C14 UNL     1      30.052  -7.260  58.660  1.00  0.00     0.072 C 
HETATM   10  C15 UNL     1      29.839  -6.658  59.958  1.00  0.00     0.028 C 
HETATM   11  C16 UNL     1      28.762  -6.114  60.682  1.00  0.00     0.161 C 
HETATM   12  O3  UNL     1      27.693  -5.703  60.337  1.00  0.00    -0.292 OA
HETATM   13  C17 UNL     1      32.515  -7.268  57.763  1.00  0.00     0.044 A 
HETATM   14  C18 UNL     1      32.014  -8.656  57.751  1.00  0.00     0.044 A 
ENDROOT
BRANCH   1  15
HETATM   15  C7  UNL     1      28.827  -4.796  62.824  1.00  0.00    -0.005 C 
HETATM   16  C6  UNL     1      29.234  -3.583  62.616  1.00  0.00    -0.002 C 
BRANCH  16  17
HETATM   17  C5  UNL     1      30.096  -3.114  61.581  1.00  0.00     0.006 C 
HETATM   18  C3  UNL     1      31.307  -2.614  61.904  1.00  0.00    -0.063 C 
HETATM   19  C4  UNL     1      31.726  -2.558  63.311  1.00  0.00     0.048 C 
BRANCH  18  20
HETATM   20  C2  UNL     1      32.150  -2.151  60.856  1.00  0.00    -0.004 C 
HETATM   21  C1  UNL     1      33.366  -1.716  61.070  1.00  0.00     0.012 C 
ENDBRANCH  18  20
ENDBRANCH  16  17
ENDBRANCH   1  15
TORSDOF 3
ENDMDL
MODEL 5
REMARK VINA RESULT: -8.131953426      3.387      6.098
REMARK  3 active torsions:
REMARK  status: ('A' for Active; 'I' for Inactive)
REMARK    1  A    between atoms: C2_2  and  C3_3 
REMARK    2  A    between atoms: C5_5  and  C6_6 
REMARK    3  A    between atoms: C7_7  and  C8_8 
ROOT
HETATM    1  C8  UNL     1      32.979  -6.864  60.952  1.00  0.00     0.056 C 
HETATM    2  C9  UNL     1      34.371  -7.608  60.883  1.00  0.00     0.033 C 
HETATM    3  C10 UNL     1      33.207  -5.625  60.160  1.00  0.00    -0.004 C 
HETATM    4  C11 UNL     1      32.246  -4.543  60.132  1.00  0.00     0.024 C 
HETATM    5  C12 UNL     1      31.467  -4.097  59.148  1.00  0.00     0.175 C 
HETATM    6  O1  UNL     1      31.426  -4.630  57.878  1.00  0.00    -0.209 OA
HETATM    7  O2  UNL     1      31.553  -5.763  57.335  1.00  0.00    -0.225 OA
HETATM    8  C13 UNL     1      30.566  -6.681  57.164  1.00  0.00     0.100 A 
HETATM    9  C14 UNL     1      30.846  -8.022  57.960  1.00  0.00     0.072 C 
HETATM   10  C15 UNL     1      31.476  -7.448  59.129  1.00  0.00     0.028 C 
HETATM   11  C16 UNL     1      32.087  -7.913  60.308  1.00  0.00     0.161 C 
HETATM   12  O3  UNL     1      32.029  -8.964  60.878  1.00  0.00    -0.292 OA
HETATM   13  C17 UNL     1      29.242  -6.453  56.606  1.00  0.00     0.044 A 
HETATM   14  C18 UNL     1      30.261  -6.983  55.679  1.00  0.00     0.044 A 
ENDROOT
BRANCH   1  15
HETATM   15  C7  UNL     1      32.767  -6.594  62.340  1.00  0.00    -0.005 C 
HETATM   16  C6  UNL     1      31.746  -6.230  63.052  1.00  0.00    -0.002 C 
BRANCH  16  17
HETATM   17  C5  UNL     1      30.417  -5.969  62.606  1.00  0.00     0.006 C 
HETATM   18  C3  UNL     1      29.463  -6.908  62.782  1.00  0.00    -0.063 C 
HETATM   19  C4  UNL     1      29.800  -8.182  63.430  1.00  0.00     0.048 C 
BRANCH  18  20
HETATM   20  C2  UNL     1      28.144  -6.627  62.329  1.00  0.00    -0.004 C 
HETATM   21  C1  UNL     1      27.882  -6.299  61.089  1.00  0.00     0.012 C 
ENDBRANCH  18  20
ENDBRANCH  16  17
ENDBRANCH   1  15
TORSDOF 3
ENDMDL
