MODEL 1
REMARK VINA RESULT: -7.936488050      0.000      0.000
REMARK  5 active torsions:
REMARK  status: ('A' for Active; 'I' for Inactive)
REMARK    1  A    between atoms: C3_3  and  C4_4 
REMARK    2  A    between atoms: C4_4  and  C5_5 
REMARK    3  A    between atoms: C5_5  and  C6_6 
REMARK    4  A    between atoms: C6_6  and  N1_7 
REMARK    5  A    between atoms: C9_10  and  C10_11 
ROOT
HETATM    1  C10 UNL     1     -72.774 -49.946 -74.539  1.00  0.00     0.036 A 
HETATM    2  C11 UNL     1     -73.353 -50.137 -75.764  1.00  0.00     0.019 A 
HETATM    3  C12 UNL     1     -73.692 -49.097 -76.780  1.00  0.00     0.069 C 
HETATM    4  N2  UNL     1     -73.645 -51.472 -75.941  1.00  0.00    -0.361 N 
ATOM      5  H2  UNL     1     -74.079 -51.876 -76.771  1.00  0.00     0.165 HD
HETATM    6  C13 UNL     1     -73.271 -52.150 -74.863  1.00  0.00     0.027 A 
HETATM    7  C14 UNL     1     -73.393 -53.618 -74.611  1.00  0.00     0.070 C 
HETATM    8  C15 UNL     1     -72.721 -51.210 -73.971  1.00  0.00     0.081 A 
HETATM    9  C16 UNL     1     -72.169 -51.576 -72.701  1.00  0.00     0.102 C 
HETATM   10  N3  UNL     1     -71.706 -51.905 -71.668  1.00  0.00    -0.191 NA
ENDROOT
BRANCH   1  11
HETATM   11  C9  UNL     1     -72.239 -48.690 -74.007  1.00  0.00     0.051 A 
HETATM   12  C8  UNL     1     -72.901 -47.938 -73.060  1.00  0.00     0.048 A 
HETATM   13  C7  UNL     1     -72.393 -46.697 -72.640  1.00  0.00     0.099 A 
HETATM   14  N1  UNL     1     -71.257 -46.187 -73.129  1.00  0.00    -0.299 N 
HETATM   15  C17 UNL     1     -70.630 -46.934 -74.048  1.00  0.00     0.327 A 
HETATM   16  N4  UNL     1     -71.092 -48.132 -74.473  1.00  0.00    -0.308 N 
HETATM   17  O1  UNL     1     -69.545 -46.479 -74.537  1.00  0.00    -0.246 OA
ATOM     18  H4  UNL     1     -70.555 -48.640 -75.176  1.00  0.00     0.170 HD
BRANCH  14  19
HETATM   19  C6  UNL     1     -70.767 -44.920 -72.681  1.00  0.00     0.227 C 
BRANCH  19  20
HETATM   20  C5  UNL     1     -69.996 -45.141 -71.455  1.00  0.00    -0.082 C 
BRANCH  20  21
HETATM   21  C4  UNL     1     -69.342 -45.342 -70.440  1.00  0.00    -0.077 C 
BRANCH  21  22
HETATM   22  C3  UNL     1     -68.557 -45.589 -69.264  1.00  0.00     0.060 C 
HETATM   23  C2  UNL     1     -68.874 -45.118 -68.082  1.00  0.00    -0.022 C 
HETATM   24  C1  UNL     1     -70.094 -44.292 -67.936  1.00  0.00     0.036 C 
ENDBRANCH  21  22
ENDBRANCH  20  21
ENDBRANCH  19  20
ENDBRANCH  14  19
ENDBRANCH   1  11
TORSDOF 5
ENDMDL
MODEL 2
REMARK VINA RESULT: -7.747381268      1.357      2.604
REMARK  5 active torsions:
REMARK  status: ('A' for Active; 'I' for Inactive)
REMARK    1  A    between atoms: C3_3  and  C4_4 
REMARK    2  A    between atoms: C4_4  and  C5_5 
REMARK    3  A    between atoms: C5_5  and  C6_6 
REMARK    4  A    between atoms: C6_6  and  N1_7 
REMARK    5  A    between atoms: C9_10  and  C10_11 
ROOT
HETATM    1  C10 UNL     1     -72.129 -49.647 -73.751  1.00  0.00     0.036 A 
HETATM    2  C11 UNL     1     -72.155 -50.866 -73.131  1.00  0.00     0.019 A 
HETATM    3  C12 UNL     1     -71.499 -51.247 -71.846  1.00  0.00     0.069 C 
HETATM    4  N2  UNL     1     -72.862 -51.767 -73.900  1.00  0.00    -0.361 N 
ATOM      5  H2  UNL     1     -73.028 -52.744 -73.659  1.00  0.00     0.165 HD
HETATM    6  C13 UNL     1     -73.292 -51.162 -75.000  1.00  0.00     0.027 A 
HETATM    7  C14 UNL     1     -74.096 -51.746 -76.117  1.00  0.00     0.070 C 
HETATM    8  C15 UNL     1     -72.843 -49.831 -74.925  1.00  0.00     0.081 A 
HETATM    9  C16 UNL     1     -73.148 -48.852 -75.925  1.00  0.00     0.102 C 
HETATM   10  N3  UNL     1     -73.427 -48.060 -76.754  1.00  0.00    -0.191 NA
ENDROOT
BRANCH   1  11
HETATM   11  C9  UNL     1     -71.556 -48.406 -73.222  1.00  0.00     0.051 A 
HETATM   12  C8  UNL     1     -71.870 -47.909 -71.976  1.00  0.00     0.048 A 
HETATM   13  C7  UNL     1     -71.364 -46.673 -71.542  1.00  0.00     0.099 A 
HETATM   14  N1  UNL     1     -70.562 -45.923 -72.306  1.00  0.00    -0.299 N 
HETATM   15  C17 UNL     1     -70.269 -46.423 -73.513  1.00  0.00     0.327 A 
HETATM   16  N4  UNL     1     -70.739 -47.611 -73.959  1.00  0.00    -0.308 N 
HETATM   17  O1  UNL     1     -69.508 -45.734 -74.269  1.00  0.00    -0.246 OA
ATOM     18  H4  UNL     1     -70.469 -47.922 -74.892  1.00  0.00     0.170 HD
BRANCH  14  19
HETATM   19  C6  UNL     1     -70.063 -44.666 -71.836  1.00  0.00     0.227 C 
BRANCH  19  20
HETATM   20  C5  UNL     1     -69.690 -44.826 -70.429  1.00  0.00    -0.082 C 
BRANCH  20  21
HETATM   21  C4  UNL     1     -69.383 -44.939 -69.249  1.00  0.00    -0.077 C 
BRANCH  21  22
HETATM   22  C3  UNL     1     -69.046 -45.070 -67.860  1.00  0.00     0.060 C 
HETATM   23  C2  UNL     1     -67.862 -44.777 -67.381  1.00  0.00    -0.022 C 
HETATM   24  C1  UNL     1     -66.810 -44.288 -68.302  1.00  0.00     0.036 C 
ENDBRANCH  21  22
ENDBRANCH  20  21
ENDBRANCH  19  20
ENDBRANCH  14  19
ENDBRANCH   1  11
TORSDOF 5
ENDMDL
MODEL 3
REMARK VINA RESULT: -7.546944451      1.035      1.272
REMARK  5 active torsions:
REMARK  status: ('A' for Active; 'I' for Inactive)
REMARK    1  A    between atoms: C3_3  and  C4_4 
REMARK    2  A    between atoms: C4_4  and  C5_5 
REMARK    3  A    between atoms: C5_5  and  C6_6 
REMARK    4  A    between atoms: C6_6  and  N1_7 
REMARK    5  A    between atoms: C9_10  and  C10_11 
ROOT
HETATM    1  C10 UNL     1     -72.250 -49.763 -73.658  1.00  0.00     0.036 A 
HETATM    2  C11 UNL     1     -72.927 -49.948 -74.833  1.00  0.00     0.019 A 
HETATM    3  C12 UNL     1     -73.307 -48.909 -75.835  1.00  0.00     0.069 C 
HETATM    4  N2  UNL     1     -73.277 -51.274 -74.968  1.00  0.00    -0.361 N 
ATOM      5  H2  UNL     1     -73.787 -51.672 -75.757  1.00  0.00     0.165 HD
HETATM    6  C13 UNL     1     -72.846 -51.952 -73.912  1.00  0.00     0.027 A 
HETATM    7  C14 UNL     1     -72.998 -53.413 -73.631  1.00  0.00     0.070 C 
HETATM    8  C15 UNL     1     -72.198 -51.022 -73.079  1.00  0.00     0.081 A 
HETATM    9  C16 UNL     1     -71.563 -51.393 -71.849  1.00  0.00     0.102 C 
HETATM   10  N3  UNL     1     -71.034 -51.725 -70.849  1.00  0.00    -0.191 NA
ENDROOT
BRANCH   1  11
HETATM   11  C9  UNL     1     -71.634 -48.521 -73.186  1.00  0.00     0.051 A 
HETATM   12  C8  UNL     1     -71.920 -47.965 -71.958  1.00  0.00     0.048 A 
HETATM   13  C7  UNL     1     -71.371 -46.728 -71.580  1.00  0.00     0.099 A 
HETATM   14  N1  UNL     1     -70.555 -46.035 -72.381  1.00  0.00    -0.299 N 
HETATM   15  C17 UNL     1     -70.290 -46.592 -73.569  1.00  0.00     0.327 A 
HETATM   16  N4  UNL     1     -70.801 -47.781 -73.962  1.00  0.00    -0.308 N 
HETATM   17  O1  UNL     1     -69.516 -45.959 -74.358  1.00  0.00    -0.246 OA
ATOM     18  H4  UNL     1     -70.550 -48.139 -74.884  1.00  0.00     0.170 HD
BRANCH  14  19
HETATM   19  C6  UNL     1     -70.013 -44.777 -71.966  1.00  0.00     0.227 C 
BRANCH  19  20
HETATM   20  C5  UNL     1     -69.708 -44.864 -70.536  1.00  0.00    -0.082 C 
BRANCH  20  21
HETATM   21  C4  UNL     1     -69.465 -44.920 -69.338  1.00  0.00    -0.077 C 
BRANCH  21  22
HETATM   22  C3  UNL     1     -69.201 -44.975 -67.927  1.00  0.00     0.060 C 
HETATM   23  C2  UNL     1     -68.019 -44.739 -67.412  1.00  0.00    -0.022 C 
HETATM   24  C1  UNL     1     -66.893 -44.399 -68.311  1.00  0.00     0.036 C 
ENDBRANCH  21  22
ENDBRANCH  20  21
ENDBRANCH  19  20
ENDBRANCH  14  19
ENDBRANCH   1  11
TORSDOF 5
ENDMDL
MODEL 4
REMARK VINA RESULT: -7.494205193      2.750      7.254
REMARK  5 active torsions:
REMARK  status: ('A' for Active; 'I' for Inactive)
REMARK    1  A    between atoms: C3_3  and  C4_4 
REMARK    2  A    between atoms: C4_4  and  C5_5 
REMARK    3  A    between atoms: C5_5  and  C6_6 
REMARK    4  A    between atoms: C6_6  and  N1_7 
REMARK    5  A    between atoms: C9_10  and  C10_11 
ROOT
HETATM    1  C10 UNL     1     -70.820 -48.067 -73.017  1.00  0.00     0.036 A 
HETATM    2  C11 UNL     1     -71.405 -47.797 -74.224  1.00  0.00     0.019 A 
HETATM    3  C12 UNL     1     -71.964 -48.777 -75.201  1.00  0.00     0.069 C 
HETATM    4  N2  UNL     1     -71.376 -46.441 -74.465  1.00  0.00    -0.361 N 
ATOM      5  H2  UNL     1     -71.750 -45.982 -75.296  1.00  0.00     0.165 HD
HETATM    6  C13 UNL     1     -70.787 -45.826 -73.448  1.00  0.00     0.027 A 
HETATM    7  C14 UNL     1     -70.534 -44.362 -73.278  1.00  0.00     0.070 C 
HETATM    8  C15 UNL     1     -70.431 -46.829 -72.528  1.00  0.00     0.081 A 
HETATM    9  C16 UNL     1     -69.801 -46.543 -71.273  1.00  0.00     0.102 C 
HETATM   10  N3  UNL     1     -69.298 -46.281 -70.239  1.00  0.00    -0.191 NA
ENDROOT
BRANCH   1  11
HETATM   11  C9  UNL     1     -70.729 -49.372 -72.358  1.00  0.00     0.051 A 
HETATM   12  C8  UNL     1     -71.819 -50.196 -72.177  1.00  0.00     0.048 A 
HETATM   13  C7  UNL     1     -71.703 -51.401 -71.464  1.00  0.00     0.099 A 
HETATM   14  N1  UNL     1     -70.546 -51.806 -70.930  1.00  0.00    -0.299 N 
HETATM   15  C17 UNL     1     -69.499 -50.992 -71.117  1.00  0.00     0.327 A 
HETATM   16  N4  UNL     1     -69.578 -49.826 -71.799  1.00  0.00    -0.308 N 
HETATM   17  O1  UNL     1     -68.380 -51.346 -70.621  1.00  0.00    -0.246 OA
ATOM     18  H4  UNL     1     -68.733 -49.262 -71.898  1.00  0.00     0.170 HD
BRANCH  14  19
HETATM   19  C6  UNL     1     -70.461 -53.040 -70.209  1.00  0.00     0.227 C 
BRANCH  19  20
HETATM   20  C5  UNL     1     -70.927 -54.112 -71.090  1.00  0.00    -0.082 C 
BRANCH  20  21
HETATM   21  C4  UNL     1     -71.326 -55.018 -71.810  1.00  0.00    -0.077 C 
BRANCH  21  22
HETATM   22  C3  UNL     1     -71.781 -56.097 -72.641  1.00  0.00     0.060 C 
HETATM   23  C2  UNL     1     -72.958 -56.107 -73.217  1.00  0.00    -0.022 C 
HETATM   24  C1  UNL     1     -73.874 -54.963 -73.011  1.00  0.00     0.036 C 
ENDBRANCH  21  22
ENDBRANCH  20  21
ENDBRANCH  19  20
ENDBRANCH  14  19
ENDBRANCH   1  11
TORSDOF 5
ENDMDL
MODEL 5
REMARK VINA RESULT: -7.321694581      1.792      2.283
REMARK  5 active torsions:
REMARK  status: ('A' for Active; 'I' for Inactive)
REMARK    1  A    between atoms: C3_3  and  C4_4 
REMARK    2  A    between atoms: C4_4  and  C5_5 
REMARK    3  A    between atoms: C5_5  and  C6_6 
REMARK    4  A    between atoms: C6_6  and  N1_7 
REMARK    5  A    between atoms: C9_10  and  C10_11 
ROOT
HETATM    1  C10 UNL     1     -71.858 -50.611 -72.763  1.00  0.00     0.036 A 
HETATM    2  C11 UNL     1     -72.618 -51.080 -73.800  1.00  0.00     0.019 A 
HETATM    3  C12 UNL     1     -73.150 -50.304 -74.959  1.00  0.00     0.069 C 
HETATM    4  N2  UNL     1     -72.887 -52.419 -73.615  1.00  0.00    -0.361 N 
ATOM      5  H2  UNL     1     -73.434 -53.003 -74.248  1.00  0.00     0.165 HD
HETATM    6  C13 UNL     1     -72.323 -52.828 -72.486  1.00  0.00     0.027 A 
HETATM    7  C14 UNL     1     -72.351 -54.198 -71.886  1.00  0.00     0.070 C 
HETATM    8  C15 UNL     1     -71.671 -51.709 -71.937  1.00  0.00     0.081 A 
HETATM    9  C16 UNL     1     -70.911 -51.771 -70.724  1.00  0.00     0.102 C 
HETATM   10  N3  UNL     1     -70.278 -51.852 -69.733  1.00  0.00    -0.191 NA
ENDROOT
BRANCH   1  11
HETATM   11  C9  UNL     1     -71.289 -49.268 -72.629  1.00  0.00     0.051 A 
HETATM   12  C8  UNL     1     -69.995 -49.042 -72.211  1.00  0.00     0.048 A 
HETATM   13  C7  UNL     1     -69.518 -47.736 -72.014  1.00  0.00     0.099 A 
HETATM   14  N1  UNL     1     -70.282 -46.657 -72.218  1.00  0.00    -0.299 N 
HETATM   15  C17 UNL     1     -71.535 -46.898 -72.624  1.00  0.00     0.327 A 
HETATM   16  N4  UNL     1     -72.025 -48.143 -72.824  1.00  0.00    -0.308 N 
HETATM   17  O1  UNL     1     -72.293 -45.894 -72.828  1.00  0.00    -0.246 OA
ATOM     18  H4  UNL     1     -72.992 -48.243 -73.135  1.00  0.00     0.170 HD
BRANCH  14  19
HETATM   19  C6  UNL     1     -69.765 -45.339 -72.008  1.00  0.00     0.227 C 
BRANCH  19  20
HETATM   20  C5  UNL     1     -69.648 -45.125 -70.564  1.00  0.00    -0.082 C 
BRANCH  20  21
HETATM   21  C4  UNL     1     -69.558 -44.927 -69.359  1.00  0.00    -0.077 C 
BRANCH  21  22
HETATM   22  C3  UNL     1     -69.453 -44.670 -67.950  1.00  0.00     0.060 C 
HETATM   23  C2  UNL     1     -68.319 -44.384 -67.359  1.00  0.00    -0.022 C 
HETATM   24  C1  UNL     1     -67.079 -44.319 -68.166  1.00  0.00     0.036 C 
ENDBRANCH  21  22
ENDBRANCH  20  21
ENDBRANCH  19  20
ENDBRANCH  14  19
ENDBRANCH   1  11
TORSDOF 5
ENDMDL
