MODEL 1
REMARK VINA RESULT: -7.087086432      0.000      0.000
REMARK  5 active torsions:
REMARK  status: ('A' for Active; 'I' for Inactive)
REMARK    1  A    between atoms: C2_2  and  O1_4 
REMARK    2  A    between atoms: O1_4  and  C4_5 
REMARK    3  A    between atoms: C12_14  and  O3_15 
REMARK    4  A    between atoms: O3_15  and  C13_16 
REMARK    5  A    between atoms: C13_16  and  C14_18 
ROOT
HETATM    1  C4  UNL     1      31.898  -7.549  66.166  1.00  0.00     0.060 C 
HETATM    2  C5  UNL     1      31.146  -6.886  67.332  1.00  0.00     0.046 C 
HETATM    3  C6  UNL     1      32.604  -6.438  65.452  1.00  0.00     0.038 C 
HETATM    4  C7  UNL     1      31.680  -5.709  64.479  1.00  0.00     0.010 C 
HETATM    5  C8  UNL     1      31.298  -6.746  63.470  1.00  0.00     0.021 C 
HETATM    6  C9  UNL     1      30.571  -7.909  64.040  1.00  0.00     0.129 C 
HETATM    7  C10 UNL     1      30.990  -8.373  65.372  1.00  0.00     0.070 C 
HETATM    8  O2  UNL     1      30.656  -8.927  63.055  1.00  0.00    -0.383 OA
HETATM    9  C11 UNL     1      29.876  -8.605  61.952  1.00  0.00     0.201 C 
HETATM   10  C12 UNL     1      30.239  -7.288  61.329  1.00  0.00     0.160 C 
HETATM   11  C17 UNL     1      30.487  -6.194  62.326  1.00  0.00     0.020 C 
HETATM   12  C18 UNL     1      29.166  -5.638  62.807  1.00  0.00     0.013 C 
ENDROOT
BRANCH  10  13
HETATM   13  O3  UNL     1      29.176  -6.897  60.480  1.00  0.00    -0.313 OA
BRANCH  13  14
HETATM   14  C13 UNL     1      29.268  -6.827  59.118  1.00  0.00     0.262 C 
HETATM   15  O4  UNL     1      30.257  -6.241  58.606  1.00  0.00    -0.265 OA
BRANCH  14  16
HETATM   16  C14 UNL     1      28.251  -7.412  58.213  1.00  0.00     0.077 C 
HETATM   17  C15 UNL     1      28.493  -6.991  56.773  1.00  0.00     0.020 C 
HETATM   18  C16 UNL     1      26.847  -6.991  58.599  1.00  0.00     0.020 C 
ENDBRANCH  14  16
ENDBRANCH  13  14
ENDBRANCH  10  13
BRANCH   1  19
HETATM   19  O1  UNL     1      32.909  -8.316  66.790  1.00  0.00    -0.376 OA
BRANCH  19  20
HETATM   20  C2  UNL     1      34.158  -7.777  66.623  1.00  0.00     0.114 C 
HETATM   21  C1  UNL     1      34.699  -7.356  67.966  1.00  0.00     0.039 C 
HETATM   22  C3  UNL     1      35.090  -8.866  66.099  1.00  0.00     0.039 C 
ENDBRANCH  19  20
ENDBRANCH   1  19
TORSDOF 5
ENDMDL
MODEL 2
REMARK VINA RESULT: -6.874290587      1.645      2.757
REMARK  5 active torsions:
REMARK  status: ('A' for Active; 'I' for Inactive)
REMARK    1  A    between atoms: C2_2  and  O1_4 
REMARK    2  A    between atoms: O1_4  and  C4_5 
REMARK    3  A    between atoms: C12_14  and  O3_15 
REMARK    4  A    between atoms: O3_15  and  C13_16 
REMARK    5  A    between atoms: C13_16  and  C14_18 
ROOT
HETATM    1  C4  UNL     1      31.645  -7.107  65.148  1.00  0.00     0.060 C 
HETATM    2  C5  UNL     1      33.044  -7.719  64.969  1.00  0.00     0.046 C 
HETATM    3  C6  UNL     1      30.681  -8.239  64.978  1.00  0.00     0.038 C 
HETATM    4  C7  UNL     1      30.396  -8.530  63.505  1.00  0.00     0.010 C 
HETATM    5  C8  UNL     1      29.750  -7.282  62.991  1.00  0.00     0.021 C 
HETATM    6  C9  UNL     1      30.606  -6.071  63.083  1.00  0.00     0.129 C 
HETATM    7  C10 UNL     1      31.474  -5.954  64.266  1.00  0.00     0.070 C 
HETATM    8  O2  UNL     1      29.721  -4.972  62.943  1.00  0.00    -0.383 OA
HETATM    9  C11 UNL     1      29.243  -4.893  61.642  1.00  0.00     0.201 C 
HETATM   10  C12 UNL     1      28.546  -6.144  61.187  1.00  0.00     0.160 C 
HETATM   11  C17 UNL     1      29.259  -7.408  61.571  1.00  0.00     0.020 C 
HETATM   12  C18 UNL     1      30.402  -7.657  60.614  1.00  0.00     0.013 C 
ENDROOT
BRANCH  10  13
HETATM   13  O3  UNL     1      28.438  -6.096  59.776  1.00  0.00    -0.313 OA
BRANCH  13  14
HETATM   14  C13 UNL     1      27.471  -6.744  59.058  1.00  0.00     0.262 C 
HETATM   15  O4  UNL     1      26.433  -7.133  59.653  1.00  0.00    -0.265 OA
BRANCH  14  16
HETATM   16  C14 UNL     1      27.592  -7.009  57.606  1.00  0.00     0.077 C 
HETATM   17  C15 UNL     1      27.063  -8.391  57.257  1.00  0.00     0.020 C 
HETATM   18  C16 UNL     1      29.031  -6.922  57.136  1.00  0.00     0.020 C 
ENDBRANCH  14  16
ENDBRANCH  13  14
ENDBRANCH  10  13
BRANCH   1  19
HETATM   19  O1  UNL     1      31.590  -6.748  66.514  1.00  0.00    -0.376 OA
BRANCH  19  20
HETATM   20  C2  UNL     1      32.394  -5.678  66.810  1.00  0.00     0.114 C 
HETATM   21  C1  UNL     1      31.597  -4.661  67.589  1.00  0.00     0.039 C 
HETATM   22  C3  UNL     1      33.514  -6.152  67.732  1.00  0.00     0.039 C 
ENDBRANCH  19  20
ENDBRANCH   1  19
TORSDOF 5
ENDMDL
MODEL 3
REMARK VINA RESULT: -6.834010349      3.409      6.895
REMARK  5 active torsions:
REMARK  status: ('A' for Active; 'I' for Inactive)
REMARK    1  A    between atoms: C2_2  and  O1_4 
REMARK    2  A    between atoms: O1_4  and  C4_5 
REMARK    3  A    between atoms: C12_14  and  O3_15 
REMARK    4  A    between atoms: O3_15  and  C13_16 
REMARK    5  A    between atoms: C13_16  and  C14_18 
ROOT
HETATM    1  C4  UNL     1      30.384  -6.128  62.928  1.00  0.00     0.060 C 
HETATM    2  C5  UNL     1      28.953  -5.565  62.935  1.00  0.00     0.046 C 
HETATM    3  C6  UNL     1      30.431  -7.103  61.793  1.00  0.00     0.038 C 
HETATM    4  C7  UNL     1      29.867  -8.466  62.189  1.00  0.00     0.010 C 
HETATM    5  C8  UNL     1      30.782  -8.956  63.268  1.00  0.00     0.021 C 
HETATM    6  C9  UNL     1      30.822  -8.087  64.471  1.00  0.00     0.129 C 
HETATM    7  C10 UNL     1      30.742  -6.634  64.251  1.00  0.00     0.070 C 
HETATM    8  O2  UNL     1      31.994  -8.469  65.174  1.00  0.00    -0.383 OA
HETATM    9  C11 UNL     1      31.839  -9.733  65.730  1.00  0.00     0.201 C 
HETATM   10  C12 UNL     1      31.506 -10.792  64.718  1.00  0.00     0.160 C 
HETATM   11  C17 UNL     1      30.479 -10.365  63.710  1.00  0.00     0.020 C 
HETATM   12  C18 UNL     1      29.099 -10.466  64.318  1.00  0.00     0.013 C 
ENDROOT
BRANCH  10  13
HETATM   13  O3  UNL     1      31.015 -11.923  65.415  1.00  0.00    -0.313 OA
BRANCH  13  14
HETATM   14  C13 UNL     1      31.627 -13.146  65.419  1.00  0.00     0.262 C 
HETATM   15  O4  UNL     1      32.352 -13.464  64.441  1.00  0.00    -0.265 OA
BRANCH  14  16
HETATM   16  C14 UNL     1      31.475 -14.116  66.528  1.00  0.00     0.077 C 
HETATM   17  C15 UNL     1      32.489 -15.243  66.411  1.00  0.00     0.020 C 
HETATM   18  C16 UNL     1      30.089 -14.728  66.552  1.00  0.00     0.020 C 
ENDBRANCH  14  16
ENDBRANCH  13  14
ENDBRANCH  10  13
BRANCH   1  19
HETATM   19  O1  UNL     1      31.190  -5.034  62.537  1.00  0.00    -0.376 OA
BRANCH  19  20
HETATM   20  C2  UNL     1      30.503  -3.848  62.537  1.00  0.00     0.114 C 
HETATM   21  C1  UNL     1      30.773  -3.119  63.830  1.00  0.00     0.039 C 
HETATM   22  C3  UNL     1      31.053  -2.968  61.418  1.00  0.00     0.039 C 
ENDBRANCH  19  20
ENDBRANCH   1  19
TORSDOF 5
ENDMDL
MODEL 4
REMARK VINA RESULT: -6.689027393      7.328      9.649
REMARK  5 active torsions:
REMARK  status: ('A' for Active; 'I' for Inactive)
REMARK    1  A    between atoms: C2_2  and  O1_4 
REMARK    2  A    between atoms: O1_4  and  C4_5 
REMARK    3  A    between atoms: C12_14  and  O3_15 
REMARK    4  A    between atoms: O3_15  and  C13_16 
REMARK    5  A    between atoms: C13_16  and  C14_18 
ROOT
HETATM    1  C4  UNL     1      32.274   1.080  71.532  1.00  0.00     0.060 C 
HETATM    2  C5  UNL     1      31.417   0.987  72.805  1.00  0.00     0.046 C 
HETATM    3  C6  UNL     1      31.320   1.390  70.421  1.00  0.00     0.038 C 
HETATM    4  C7  UNL     1      30.627   0.134  69.897  1.00  0.00     0.010 C 
HETATM    5  C8  UNL     1      31.735  -0.707  69.343  1.00  0.00     0.021 C 
HETATM    6  C9  UNL     1      32.755  -1.106  70.346  1.00  0.00     0.129 C 
HETATM    7  C10 UNL     1      33.098  -0.117  71.381  1.00  0.00     0.070 C 
HETATM    8  O2  UNL     1      33.882  -1.523  69.593  1.00  0.00    -0.383 OA
HETATM    9  C11 UNL     1      33.620  -2.725  68.948  1.00  0.00     0.201 C 
HETATM   10  C12 UNL     1      32.421  -2.667  68.045  1.00  0.00     0.160 C 
HETATM   11  C17 UNL     1      31.246  -1.950  68.643  1.00  0.00     0.020 C 
HETATM   12  C18 UNL     1      30.522  -2.870  69.600  1.00  0.00     0.013 C 
ENDROOT
BRANCH  10  13
HETATM   13  O3  UNL     1      32.035  -3.996  67.744  1.00  0.00    -0.313 OA
BRANCH  13  14
HETATM   14  C13 UNL     1      31.741  -4.443  66.486  1.00  0.00     0.262 C 
HETATM   15  O4  UNL     1      31.034  -3.721  65.736  1.00  0.00    -0.265 OA
BRANCH  14  16
HETATM   16  C14 UNL     1      32.220  -5.744  65.963  1.00  0.00     0.077 C 
HETATM   17  C15 UNL     1      31.699  -5.993  64.557  1.00  0.00     0.020 C 
HETATM   18  C16 UNL     1      31.780  -6.898  66.842  1.00  0.00     0.020 C 
ENDBRANCH  14  16
ENDBRANCH  13  14
ENDBRANCH  10  13
BRANCH   1  19
HETATM   19  O1  UNL     1      33.052   2.246  71.716  1.00  0.00    -0.376 OA
BRANCH  19  20
HETATM   20  C2  UNL     1      33.766   2.223  72.886  1.00  0.00     0.114 C 
HETATM   21  C1  UNL     1      35.237   2.321  72.571  1.00  0.00     0.039 C 
HETATM   22  C3  UNL     1      33.410   3.467  73.696  1.00  0.00     0.039 C 
ENDBRANCH  19  20
ENDBRANCH   1  19
TORSDOF 5
ENDMDL
MODEL 5
REMARK VINA RESULT: -6.680481040      2.749      7.544
REMARK  5 active torsions:
REMARK  status: ('A' for Active; 'I' for Inactive)
REMARK    1  A    between atoms: C2_2  and  O1_4 
REMARK    2  A    between atoms: O1_4  and  C4_5 
REMARK    3  A    between atoms: C12_14  and  O3_15 
REMARK    4  A    between atoms: O3_15  and  C13_16 
REMARK    5  A    between atoms: C13_16  and  C14_18 
ROOT
HETATM    1  C4  UNL     1      29.023  -7.741  57.452  1.00  0.00     0.060 C 
HETATM    2  C5  UNL     1      29.086  -6.663  56.358  1.00  0.00     0.046 C 
HETATM    3  C6  UNL     1      27.638  -7.670  58.015  1.00  0.00     0.038 C 
HETATM    4  C7  UNL     1      27.503  -6.563  59.058  1.00  0.00     0.010 C 
HETATM    5  C8  UNL     1      28.436  -6.963  60.158  1.00  0.00     0.021 C 
HETATM    6  C9  UNL     1      29.859  -7.059  59.743  1.00  0.00     0.129 C 
HETATM    7  C10 UNL     1      30.128  -7.580  58.393  1.00  0.00     0.070 C 
HETATM    8  O2  UNL     1      30.498  -7.814  60.759  1.00  0.00    -0.383 OA
HETATM    9  C11 UNL     1      30.584  -7.077  61.933  1.00  0.00     0.201 C 
HETATM   10  C12 UNL     1      29.252  -6.605  62.439  1.00  0.00     0.160 C 
HETATM   11  C17 UNL     1      28.353  -6.064  61.365  1.00  0.00     0.020 C 
HETATM   12  C18 UNL     1      28.763  -4.649  61.026  1.00  0.00     0.013 C 
ENDROOT
BRANCH  10  13
HETATM   13  O3  UNL     1      29.483  -5.584  63.394  1.00  0.00    -0.313 OA
BRANCH  13  14
HETATM   14  C13 UNL     1      30.652  -5.433  64.087  1.00  0.00     0.262 C 
HETATM   15  O4  UNL     1      31.300  -6.460  64.413  1.00  0.00    -0.265 OA
BRANCH  14  16
HETATM   16  C14 UNL     1      31.191  -4.108  64.471  1.00  0.00     0.077 C 
HETATM   17  C15 UNL     1      31.408  -4.021  65.973  1.00  0.00     0.020 C 
HETATM   18  C16 UNL     1      30.260  -2.983  64.063  1.00  0.00     0.020 C 
ENDBRANCH  14  16
ENDBRANCH  13  14
ENDBRANCH  10  13
BRANCH   1  19
HETATM   19  O1  UNL     1      29.095  -8.963  56.746  1.00  0.00    -0.376 OA
BRANCH  19  20
HETATM   20  C2  UNL     1      30.381  -9.419  56.613  1.00  0.00     0.114 C 
HETATM   21  C1  UNL     1      30.568 -10.635  57.486  1.00  0.00     0.039 C 
HETATM   22  C3  UNL     1      30.586  -9.882  55.173  1.00  0.00     0.039 C 
ENDBRANCH  19  20
ENDBRANCH   1  19
TORSDOF 5
ENDMDL
