MODEL 1
REMARK VINA RESULT: -5.399793540      0.000      0.000
REMARK  7 active torsions:
REMARK  status: ('A' for Active; 'I' for Inactive)
REMARK    1  A    between atoms: C2_2  and  O1_3 
REMARK    2  A    between atoms: O1_3  and  C3_4 
REMARK    3  A    between atoms: C3_4  and  C4_6 
REMARK    4  A    between atoms: C9_13  and  C10_14 
REMARK    5  A    between atoms: C10_14  and  O4_16 
REMARK    6  A    between atoms: O4_16  and  C11_17 
REMARK    7  A    between atoms: C13_19  and  C14_20 
ROOT
HETATM    1  C4  UNL     1      32.030   0.357  71.154  1.00  0.00     0.066 C 
HETATM    2  C5  UNL     1      31.103   0.373  70.184  1.00  0.00     0.021 C 
HETATM    3  C6  UNL     1      30.505   1.603  69.618  1.00  0.00     0.069 C 
HETATM    4  N1  UNL     1      30.762  -0.829  69.449  1.00  0.00    -0.365 N 
ATOM      5  H1  UNL     1      30.036  -0.767  68.736  1.00  0.00     0.165 HD
HETATM    6  C7  UNL     1      31.317  -1.956  69.644  1.00  0.00     0.001 C 
HETATM    7  C8  UNL     1      30.934  -3.183  68.889  1.00  0.00     0.064 C 
HETATM    8  C9  UNL     1      32.503  -1.939  70.545  1.00  0.00     0.161 C 
HETATM    9  C13 UNL     1      32.305  -0.972  71.664  1.00  0.00    -0.035 C 
ENDROOT
BRANCH   1  10
HETATM   10  C3  UNL     1      32.460   1.639  71.631  1.00  0.00     0.295 C 
HETATM   11  O2  UNL     1      33.572   2.160  71.361  1.00  0.00    -0.259 OA
BRANCH  10  12
HETATM   12  O1  UNL     1      31.678   2.442  72.450  1.00  0.00    -0.318 OA
BRANCH  12  13
HETATM   13  C2  UNL     1      31.548   2.272  73.830  1.00  0.00     0.174 C 
HETATM   14  C1  UNL     1      30.107   1.937  74.158  1.00  0.00     0.034 C 
ENDBRANCH  12  13
ENDBRANCH  10  12
ENDBRANCH   1  10
BRANCH   9  15
HETATM   15  C14 UNL     1      33.155  -1.249  72.828  1.00  0.00    -0.026 C 
HETATM   16  C15 UNL     1      34.177  -0.264  73.245  1.00  0.00     0.019 C 
HETATM   17  C16 UNL     1      32.131  -1.213  74.041  1.00  0.00     0.019 C 
HETATM   18  C17 UNL     1      33.741  -2.618  73.001  1.00  0.00     0.019 C 
ENDBRANCH   9  15
BRANCH   8  19
HETATM   19  C10 UNL     1      33.626  -1.565  69.631  1.00  0.00     0.272 C 
HETATM   20  O3  UNL     1      33.509  -1.346  68.404  1.00  0.00    -0.264 OA
BRANCH  19  21
HETATM   21  O4  UNL     1      34.900  -1.450  70.171  1.00  0.00    -0.321 OA
BRANCH  21  22
HETATM   22  C11 UNL     1      35.991  -2.207  69.621  1.00  0.00     0.174 C 
HETATM   23  C12 UNL     1      35.808  -3.675  69.880  1.00  0.00     0.034 C 
ENDBRANCH  21  22
ENDBRANCH  19  21
ENDBRANCH   8  19
TORSDOF 7
ENDMDL
MODEL 2
REMARK VINA RESULT: -5.351597530      2.000      4.917
REMARK  7 active torsions:
REMARK  status: ('A' for Active; 'I' for Inactive)
REMARK    1  A    between atoms: C2_2  and  O1_3 
REMARK    2  A    between atoms: O1_3  and  C3_4 
REMARK    3  A    between atoms: C3_4  and  C4_6 
REMARK    4  A    between atoms: C9_13  and  C10_14 
REMARK    5  A    between atoms: C10_14  and  O4_16 
REMARK    6  A    between atoms: O4_16  and  C11_17 
REMARK    7  A    between atoms: C13_19  and  C14_20 
ROOT
HETATM    1  C4  UNL     1      33.144  -0.557  70.695  1.00  0.00     0.066 C 
HETATM    2  C5  UNL     1      32.296   0.480  70.785  1.00  0.00     0.021 C 
HETATM    3  C6  UNL     1      31.205   0.755  69.824  1.00  0.00     0.069 C 
HETATM    4  N1  UNL     1      32.244   1.308  71.973  1.00  0.00    -0.365 N 
ATOM      5  H1  UNL     1      31.596   2.095  71.983  1.00  0.00     0.165 HD
HETATM    6  C7  UNL     1      32.961   1.109  73.004  1.00  0.00     0.001 C 
HETATM    7  C8  UNL     1      32.904   1.988  74.206  1.00  0.00     0.064 C 
HETATM    8  C9  UNL     1      33.731  -0.166  73.012  1.00  0.00     0.161 C 
HETATM    9  C13 UNL     1      34.236  -0.489  71.646  1.00  0.00    -0.035 C 
ENDROOT
BRANCH   1  10
HETATM   10  C3  UNL     1      32.931  -1.446  69.591  1.00  0.00     0.295 C 
HETATM   11  O2  UNL     1      33.474  -1.320  68.463  1.00  0.00    -0.259 OA
BRANCH  10  12
HETATM   12  O1  UNL     1      32.092  -2.550  69.660  1.00  0.00    -0.318 OA
BRANCH  12  13
HETATM   13  C2  UNL     1      31.052  -2.807  68.765  1.00  0.00     0.174 C 
HETATM   14  C1  UNL     1      31.451  -3.948  67.850  1.00  0.00     0.034 C 
ENDBRANCH  12  13
ENDBRANCH  10  12
ENDBRANCH   1  10
BRANCH   9  15
HETATM   15  C14 UNL     1      35.381  -1.407  71.652  1.00  0.00    -0.026 C 
HETATM   16  C15 UNL     1      35.206  -2.808  71.211  1.00  0.00     0.019 C 
HETATM   17  C16 UNL     1      36.329  -0.811  70.526  1.00  0.00     0.019 C 
HETATM   18  C17 UNL     1      36.314  -1.411  72.826  1.00  0.00     0.019 C 
ENDBRANCH   9  15
BRANCH   8  19
HETATM   19  C10 UNL     1      32.743  -1.163  73.529  1.00  0.00     0.272 C 
HETATM   20  O3  UNL     1      32.998  -2.363  73.776  1.00  0.00    -0.264 OA
BRANCH  19  21
HETATM   21  O4  UNL     1      31.440  -0.738  73.754  1.00  0.00    -0.321 OA
BRANCH  21  22
HETATM   22  C11 UNL     1      30.351  -1.673  73.685  1.00  0.00     0.174 C 
HETATM   23  C12 UNL     1      29.853  -1.810  72.275  1.00  0.00     0.034 C 
ENDBRANCH  21  22
ENDBRANCH  19  21
ENDBRANCH   8  19
TORSDOF 7
ENDMDL
MODEL 3
REMARK VINA RESULT: -5.349709326      1.929      5.675
REMARK  7 active torsions:
REMARK  status: ('A' for Active; 'I' for Inactive)
REMARK    1  A    between atoms: C2_2  and  O1_3 
REMARK    2  A    between atoms: O1_3  and  C3_4 
REMARK    3  A    between atoms: C3_4  and  C4_6 
REMARK    4  A    between atoms: C9_13  and  C10_14 
REMARK    5  A    between atoms: C10_14  and  O4_16 
REMARK    6  A    between atoms: O4_16  and  C11_17 
REMARK    7  A    between atoms: C13_19  and  C14_20 
ROOT
HETATM    1  C4  UNL     1      33.738  -2.323  71.243  1.00  0.00     0.066 C 
HETATM    2  C5  UNL     1      33.673  -2.498  72.573  1.00  0.00     0.021 C 
HETATM    3  C6  UNL     1      34.818  -2.893  73.423  1.00  0.00     0.069 C 
HETATM    4  N1  UNL     1      32.502  -2.098  73.327  1.00  0.00    -0.365 N 
ATOM      5  H1  UNL     1      32.495  -2.270  74.332  1.00  0.00     0.165 HD
HETATM    6  C7  UNL     1      31.483  -1.542  72.806  1.00  0.00     0.001 C 
HETATM    7  C8  UNL     1      30.282  -1.159  73.601  1.00  0.00     0.064 C 
HETATM    8  C9  UNL     1      31.635  -1.130  71.383  1.00  0.00     0.161 C 
HETATM    9  C13 UNL     1      32.440  -2.131  70.625  1.00  0.00    -0.035 C 
ENDROOT
BRANCH   1  10
HETATM   10  C3  UNL     1      35.027  -2.521  70.648  1.00  0.00     0.295 C 
HETATM   11  O2  UNL     1      35.820  -1.592  70.348  1.00  0.00    -0.259 OA
BRANCH  10  12
HETATM   12  O1  UNL     1      35.534  -3.776  70.341  1.00  0.00    -0.318 OA
BRANCH  12  13
HETATM   13  C2  UNL     1      36.181  -4.095  69.146  1.00  0.00     0.174 C 
HETATM   14  C1  UNL     1      35.943  -5.556  68.823  1.00  0.00     0.034 C 
ENDBRANCH  12  13
ENDBRANCH  10  12
ENDBRANCH   1  10
BRANCH   9  15
HETATM   15  C14 UNL     1      32.219  -2.077  69.175  1.00  0.00    -0.026 C 
HETATM   16  C15 UNL     1      32.387  -3.297  68.357  1.00  0.00     0.019 C 
HETATM   17  C16 UNL     1      30.660  -1.798  69.058  1.00  0.00     0.019 C 
HETATM   18  C17 UNL     1      32.767  -0.922  68.392  1.00  0.00     0.019 C 
ENDBRANCH   9  15
BRANCH   8  19
HETATM   19  C10 UNL     1      32.292   0.210  71.480  1.00  0.00     0.272 C 
HETATM   20  O3  UNL     1      33.297   0.466  72.181  1.00  0.00    -0.264 OA
BRANCH  19  21
HETATM   21  O4  UNL     1      31.756   1.257  70.743  1.00  0.00    -0.321 OA
BRANCH  21  22
HETATM   22  C11 UNL     1      31.377   2.481  71.393  1.00  0.00     0.174 C 
HETATM   23  C12 UNL     1      32.489   3.490  71.324  1.00  0.00     0.034 C 
ENDBRANCH  21  22
ENDBRANCH  19  21
ENDBRANCH   8  19
TORSDOF 7
ENDMDL
MODEL 4
REMARK VINA RESULT: -5.338869923      1.785      5.571
REMARK  7 active torsions:
REMARK  status: ('A' for Active; 'I' for Inactive)
REMARK    1  A    between atoms: C2_2  and  O1_3 
REMARK    2  A    between atoms: O1_3  and  C3_4 
REMARK    3  A    between atoms: C3_4  and  C4_6 
REMARK    4  A    between atoms: C9_13  and  C10_14 
REMARK    5  A    between atoms: C10_14  and  O4_16 
REMARK    6  A    between atoms: O4_16  and  C11_17 
REMARK    7  A    between atoms: C13_19  and  C14_20 
ROOT
HETATM    1  C4  UNL     1      33.561  -2.159  71.306  1.00  0.00     0.066 C 
HETATM    2  C5  UNL     1      33.440  -2.354  72.629  1.00  0.00     0.021 C 
HETATM    3  C6  UNL     1      34.579  -2.556  73.553  1.00  0.00     0.069 C 
HETATM    4  N1  UNL     1      32.172  -2.163  73.305  1.00  0.00    -0.365 N 
ATOM      5  H1  UNL     1      32.130  -2.344  74.308  1.00  0.00     0.165 HD
HETATM    6  C7  UNL     1      31.110  -1.784  72.718  1.00  0.00     0.001 C 
HETATM    7  C8  UNL     1      29.813  -1.616  73.432  1.00  0.00     0.064 C 
HETATM    8  C9  UNL     1      31.281  -1.340  71.307  1.00  0.00     0.161 C 
HETATM    9  C13 UNL     1      32.292  -2.184  70.605  1.00  0.00    -0.035 C 
ENDROOT
BRANCH   1  10
HETATM   10  C3  UNL     1      34.900  -2.131  70.797  1.00  0.00     0.295 C 
HETATM   11  O2  UNL     1      35.568  -1.080  70.614  1.00  0.00    -0.259 OA
BRANCH  10  12
HETATM   12  O1  UNL     1      35.602  -3.277  70.451  1.00  0.00    -0.318 OA
BRANCH  12  13
HETATM   13  C2  UNL     1      36.064  -3.561  69.165  1.00  0.00     0.174 C 
HETATM   14  C1  UNL     1      36.056  -5.062  68.951  1.00  0.00     0.034 C 
ENDBRANCH  12  13
ENDBRANCH  10  12
ENDBRANCH   1  10
BRANCH   9  15
HETATM   15  C14 UNL     1      32.158  -2.155  69.144  1.00  0.00    -0.026 C 
HETATM   16  C15 UNL     1      32.446  -3.371  68.352  1.00  0.00     0.019 C 
HETATM   17  C16 UNL     1      30.597  -1.968  68.927  1.00  0.00     0.019 C 
HETATM   18  C17 UNL     1      32.687  -0.977  68.381  1.00  0.00     0.019 C 
ENDBRANCH   9  15
BRANCH   8  19
HETATM   19  C10 UNL     1      31.695   0.091  71.443  1.00  0.00     0.272 C 
HETATM   20  O3  UNL     1      31.818   0.895  70.492  1.00  0.00    -0.264 OA
BRANCH  19  21
HETATM   21  O4  UNL     1      31.968   0.576  72.715  1.00  0.00    -0.321 OA
BRANCH  21  22
HETATM   22  C11 UNL     1      31.621   1.926  73.066  1.00  0.00     0.174 C 
HETATM   23  C12 UNL     1      30.472   1.947  74.033  1.00  0.00     0.034 C 
ENDBRANCH  21  22
ENDBRANCH  19  21
ENDBRANCH   8  19
TORSDOF 7
ENDMDL
MODEL 5
REMARK VINA RESULT: -5.303285309      1.302      1.895
REMARK  7 active torsions:
REMARK  status: ('A' for Active; 'I' for Inactive)
REMARK    1  A    between atoms: C2_2  and  O1_3 
REMARK    2  A    between atoms: O1_3  and  C3_4 
REMARK    3  A    between atoms: C3_4  and  C4_6 
REMARK    4  A    between atoms: C9_13  and  C10_14 
REMARK    5  A    between atoms: C10_14  and  O4_16 
REMARK    6  A    between atoms: O4_16  and  C11_17 
REMARK    7  A    between atoms: C13_19  and  C14_20 
ROOT
HETATM    1  C4  UNL     1      31.321   0.547  71.205  1.00  0.00     0.066 C 
HETATM    2  C5  UNL     1      30.767   0.431  69.987  1.00  0.00     0.021 C 
HETATM    3  C6  UNL     1      30.430   1.574  69.109  1.00  0.00     0.069 C 
HETATM    4  N1  UNL     1      30.648  -0.857  69.334  1.00  0.00    -0.365 N 
ATOM      5  H1  UNL     1      30.200  -0.893  68.418  1.00  0.00     0.165 HD
HETATM    6  C7  UNL     1      31.069  -1.946  69.839  1.00  0.00     0.001 C 
HETATM    7  C8  UNL     1      30.916  -3.261  69.156  1.00  0.00     0.064 C 
HETATM    8  C9  UNL     1      31.892  -1.803  71.072  1.00  0.00     0.161 C 
HETATM    9  C13 UNL     1      31.368  -0.705  71.935  1.00  0.00    -0.035 C 
ENDROOT
BRANCH   1  10
HETATM   10  C3  UNL     1      31.612   1.882  71.636  1.00  0.00     0.295 C 
HETATM   11  O2  UNL     1      30.827   2.596  72.312  1.00  0.00    -0.259 OA
BRANCH  10  12
HETATM   12  O1  UNL     1      32.807   2.527  71.347  1.00  0.00    -0.318 OA
BRANCH  12  13
HETATM   13  C2  UNL     1      33.389   3.507  72.153  1.00  0.00     0.174 C 
HETATM   14  C1  UNL     1      34.792   3.074  72.530  1.00  0.00     0.034 C 
ENDBRANCH  12  13
ENDBRANCH  10  12
ENDBRANCH   1  10
BRANCH   9  15
HETATM   15  C14 UNL     1      31.777  -0.824  73.340  1.00  0.00    -0.026 C 
HETATM   16  C15 UNL     1      32.774   0.114  73.899  1.00  0.00     0.019 C 
HETATM   17  C16 UNL     1      30.458  -0.435  74.134  1.00  0.00     0.019 C 
HETATM   18  C17 UNL     1      32.054  -2.182  73.911  1.00  0.00     0.019 C 
ENDBRANCH   9  15
BRANCH   8  19
HETATM   19  C10 UNL     1      33.265  -1.538  70.543  1.00  0.00     0.272 C 
HETATM   20  O3  UNL     1      33.530  -1.231  69.360  1.00  0.00    -0.264 OA
BRANCH  19  21
HETATM   21  O4  UNL     1      34.336  -1.638  71.421  1.00  0.00    -0.321 OA
BRANCH  21  22
HETATM   22  C11 UNL     1      35.081  -2.863  71.520  1.00  0.00     0.174 C 
HETATM   23  C12 UNL     1      35.470  -3.139  72.944  1.00  0.00     0.034 C 
ENDBRANCH  21  22
ENDBRANCH  19  21
ENDBRANCH   8  19
TORSDOF 7
ENDMDL
