MODEL 1
REMARK VINA RESULT: -8.351303384      0.000      0.000
REMARK  4 active torsions:
REMARK  status: ('A' for Active; 'I' for Inactive)
REMARK    1  A    between atoms: C3_5  and  S1_6 
REMARK    2  A    between atoms: S1_6  and  C4_7 
REMARK    3  A    between atoms: C4_7  and  C5_8 
REMARK       I    between atoms: C5_8  and  N2_10 
REMARK    4  A    between atoms: C10_16  and  C11_17 
ROOT
HETATM    1  C1  UNL     1      30.992  -3.217  65.420  1.00  0.00     0.071 C 
HETATM    2  C2  UNL     1      31.372  -4.620  65.011  1.00  0.00     0.038 A 
HETATM    3  N1  UNL     1      32.015  -5.531  65.762  1.00  0.00    -0.333 N 
ATOM      4  H1  UNL     1      32.342  -5.392  66.718  1.00  0.00     0.168 HD
HETATM    5  C3  UNL     1      32.154  -6.652  65.038  1.00  0.00     0.188 A 
HETATM    6  O2  UNL     1      31.612  -6.430  63.885  1.00  0.00    -0.290 OA
HETATM    7  C10 UNL     1      31.118  -5.218  63.799  1.00  0.00     0.082 A 
ENDROOT
BRANCH   5   8
HETATM    8  S1  UNL     1      32.952  -8.189  65.578  1.00  0.00    -0.077 SA
BRANCH   8   9
HETATM    9  C4  UNL     1      33.949  -7.892  67.053  1.00  0.00     0.185 C 
BRANCH   9  10
HETATM   10  C5  UNL     1      35.403  -8.081  66.777  1.00  0.00     0.229 C 
HETATM   11  O1  UNL     1      35.739  -8.909  65.906  1.00  0.00    -0.273 OA
HETATM   12  N2  UNL     1      36.392  -7.349  67.470  1.00  0.00    -0.351 N 
HETATM   13  C6  UNL     1      37.822  -7.490  67.244  1.00  0.00     0.126 C 
HETATM   14  C9  UNL     1      36.215  -6.348  68.509  1.00  0.00     0.126 C 
HETATM   15  C7  UNL     1      38.423  -6.155  67.592  1.00  0.00     0.021 C 
HETATM   16  C8  UNL     1      37.378  -5.404  68.350  1.00  0.00     0.021 C 
ENDBRANCH   9  10
ENDBRANCH   8   9
ENDBRANCH   5   8
BRANCH   7  17
HETATM   17  C11 UNL     1      30.434  -4.666  62.600  1.00  0.00     0.045 C 
HETATM   18  C12 UNL     1      29.075  -5.279  62.433  1.00  0.00     0.011 C 
HETATM   19  C13 UNL     1      28.844  -6.023  61.169  1.00  0.00     0.001 C 
HETATM   20  C14 UNL     1      30.098  -6.839  60.906  1.00  0.00     0.000 C 
HETATM   21  C15 UNL     1      31.120  -5.824  60.443  1.00  0.00     0.001 C 
HETATM   22  C16 UNL     1      31.293  -4.688  61.397  1.00  0.00     0.011 C 
ENDBRANCH   7  17
TORSDOF 4
ENDMDL
MODEL 2
REMARK VINA RESULT: -8.176120641      4.508      5.990
REMARK  4 active torsions:
REMARK  status: ('A' for Active; 'I' for Inactive)
REMARK    1  A    between atoms: C3_5  and  S1_6 
REMARK    2  A    between atoms: S1_6  and  C4_7 
REMARK    3  A    between atoms: C4_7  and  C5_8 
REMARK       I    between atoms: C5_8  and  N2_10 
REMARK    4  A    between atoms: C10_16  and  C11_17 
ROOT
HETATM    1  C1  UNL     1      32.364  -6.987  65.463  1.00  0.00     0.071 C 
HETATM    2  C2  UNL     1      31.849  -5.577  65.623  1.00  0.00     0.038 A 
HETATM    3  N1  UNL     1      32.053  -4.761  66.672  1.00  0.00    -0.333 N 
ATOM      4  H1  UNL     1      32.586  -4.989  67.511  1.00  0.00     0.168 HD
HETATM    5  C3  UNL     1      31.437  -3.594  66.425  1.00  0.00     0.188 A 
HETATM    6  O2  UNL     1      30.876  -3.699  65.263  1.00  0.00    -0.290 OA
HETATM    7  C10 UNL     1      31.085  -4.875  64.721  1.00  0.00     0.082 A 
ENDROOT
BRANCH   5   8
HETATM    8  S1  UNL     1      31.399  -2.146  67.515  1.00  0.00    -0.077 SA
BRANCH   8   9
HETATM    9  C4  UNL     1      32.148  -2.541  69.109  1.00  0.00     0.185 C 
BRANCH   9  10
HETATM   10  C5  UNL     1      31.114  -2.704  70.172  1.00  0.00     0.229 C 
HETATM   11  O1  UNL     1      30.340  -3.681  70.104  1.00  0.00    -0.273 OA
HETATM   12  N2  UNL     1      30.997  -1.788  71.241  1.00  0.00    -0.351 N 
HETATM   13  C6  UNL     1      30.010  -1.895  72.304  1.00  0.00     0.126 C 
HETATM   14  C9  UNL     1      31.788  -0.598  71.504  1.00  0.00     0.126 C 
HETATM   15  C7  UNL     1      30.633  -1.237  73.506  1.00  0.00     0.021 C 
HETATM   16  C8  UNL     1      31.803  -0.456  73.003  1.00  0.00     0.021 C 
ENDBRANCH   9  10
ENDBRANCH   8   9
ENDBRANCH   5   8
BRANCH   7  17
HETATM   17  C11 UNL     1      30.569  -5.298  63.392  1.00  0.00     0.045 C 
HETATM   18  C12 UNL     1      31.692  -5.449  62.409  1.00  0.00     0.011 C 
HETATM   19  C13 UNL     1      31.630  -4.581  61.206  1.00  0.00     0.001 C 
HETATM   20  C14 UNL     1      31.200  -3.204  61.683  1.00  0.00     0.000 C 
HETATM   21  C15 UNL     1      29.726  -3.352  61.989  1.00  0.00     0.001 C 
HETATM   22  C16 UNL     1      29.433  -4.469  62.936  1.00  0.00     0.011 C 
ENDBRANCH   7  17
TORSDOF 4
ENDMDL
MODEL 3
REMARK VINA RESULT: -8.165810069      3.600      5.275
REMARK  4 active torsions:
REMARK  status: ('A' for Active; 'I' for Inactive)
REMARK    1  A    between atoms: C3_5  and  S1_6 
REMARK    2  A    between atoms: S1_6  and  C4_7 
REMARK    3  A    between atoms: C4_7  and  C5_8 
REMARK       I    between atoms: C5_8  and  N2_10 
REMARK    4  A    between atoms: C10_16  and  C11_17 
ROOT
HETATM    1  C1  UNL     1      30.569  -9.152  63.990  1.00  0.00     0.071 C 
HETATM    2  C2  UNL     1      31.030  -7.799  64.476  1.00  0.00     0.038 A 
HETATM    3  N1  UNL     1      31.430  -7.485  65.721  1.00  0.00    -0.333 N 
ATOM      4  H1  UNL     1      31.472  -8.125  66.514  1.00  0.00     0.168 HD
HETATM    5  C3  UNL     1      31.766  -6.185  65.741  1.00  0.00     0.188 A 
HETATM    6  O2  UNL     1      31.575  -5.725  64.547  1.00  0.00    -0.290 OA
HETATM    7  C10 UNL     1      31.130  -6.649  63.730  1.00  0.00     0.082 A 
ENDROOT
BRANCH   5   8
HETATM    8  S1  UNL     1      32.372  -5.254  67.174  1.00  0.00    -0.077 SA
BRANCH   8   9
HETATM    9  C4  UNL     1      31.616  -3.615  67.221  1.00  0.00     0.185 C 
BRANCH   9  10
HETATM   10  C5  UNL     1      30.980  -3.345  68.544  1.00  0.00     0.229 C 
HETATM   11  O1  UNL     1      30.252  -4.227  69.044  1.00  0.00    -0.273 OA
HETATM   12  N2  UNL     1      31.184  -2.129  69.231  1.00  0.00    -0.351 N 
HETATM   13  C6  UNL     1      30.592  -1.809  70.521  1.00  0.00     0.126 C 
HETATM   14  C9  UNL     1      31.985  -0.985  68.829  1.00  0.00     0.126 C 
HETATM   15  C7  UNL     1      31.548  -0.854  71.183  1.00  0.00     0.021 C 
HETATM   16  C8  UNL     1      32.473  -0.372  70.115  1.00  0.00     0.021 C 
ENDBRANCH   9  10
ENDBRANCH   8   9
ENDBRANCH   5   8
BRANCH   7  17
HETATM   17  C11 UNL     1      30.815  -6.427  62.293  1.00  0.00     0.045 C 
HETATM   18  C12 UNL     1      31.828  -5.520  61.661  1.00  0.00     0.011 C 
HETATM   19  C13 UNL     1      31.306  -4.252  61.091  1.00  0.00     0.001 C 
HETATM   20  C14 UNL     1      30.296  -3.709  62.088  1.00  0.00     0.000 C 
HETATM   21  C15 UNL     1      29.085  -4.601  61.925  1.00  0.00     0.001 C 
HETATM   22  C16 UNL     1      29.402  -6.053  62.074  1.00  0.00     0.011 C 
ENDBRANCH   7  17
TORSDOF 4
ENDMDL
MODEL 4
REMARK VINA RESULT: -8.157781539      1.533      2.433
REMARK  4 active torsions:
REMARK  status: ('A' for Active; 'I' for Inactive)
REMARK    1  A    between atoms: C3_5  and  S1_6 
REMARK    2  A    between atoms: S1_6  and  C4_7 
REMARK    3  A    between atoms: C4_7  and  C5_8 
REMARK       I    between atoms: C5_8  and  N2_10 
REMARK    4  A    between atoms: C10_16  and  C11_17 
ROOT
HETATM    1  C1  UNL     1      29.789  -9.939  63.489  1.00  0.00     0.071 C 
HETATM    2  C2  UNL     1      30.520  -8.744  64.050  1.00  0.00     0.038 A 
HETATM    3  N1  UNL     1      31.380  -8.740  65.084  1.00  0.00    -0.333 N 
ATOM      4  H1  UNL     1      31.651  -9.552  65.639  1.00  0.00     0.168 HD
HETATM    5  C3  UNL     1      31.819  -7.484  65.263  1.00  0.00     0.188 A 
HETATM    6  O2  UNL     1      31.245  -6.749  64.366  1.00  0.00    -0.290 OA
HETATM    7  C10 UNL     1      30.445  -7.448  63.597  1.00  0.00     0.082 A 
ENDROOT
BRANCH   5   8
HETATM    8  S1  UNL     1      32.995  -6.925  66.524  1.00  0.00    -0.077 SA
BRANCH   8   9
HETATM    9  C4  UNL     1      33.909  -8.330  67.195  1.00  0.00     0.185 C 
BRANCH   9  10
HETATM   10  C5  UNL     1      35.355  -8.265  66.830  1.00  0.00     0.229 C 
HETATM   11  O1  UNL     1      35.760  -8.972  65.886  1.00  0.00    -0.273 OA
HETATM   12  N2  UNL     1      36.258  -7.430  67.523  1.00  0.00    -0.351 N 
HETATM   13  C6  UNL     1      37.676  -7.326  67.214  1.00  0.00     0.126 C 
HETATM   14  C9  UNL     1      35.994  -6.539  68.640  1.00  0.00     0.126 C 
HETATM   15  C7  UNL     1      38.082  -5.937  67.627  1.00  0.00     0.021 C 
HETATM   16  C8  UNL     1      36.982  -5.412  68.490  1.00  0.00     0.021 C 
ENDBRANCH   9  10
ENDBRANCH   8   9
ENDBRANCH   5   8
BRANCH   7  17
HETATM   17  C11 UNL     1      29.644  -6.887  62.476  1.00  0.00     0.045 C 
HETATM   18  C12 UNL     1      30.322  -7.134  61.162  1.00  0.00     0.011 C 
HETATM   19  C13 UNL     1      30.689  -5.928  60.377  1.00  0.00     0.001 C 
HETATM   20  C14 UNL     1      31.256  -4.921  61.363  1.00  0.00     0.000 C 
HETATM   21  C15 UNL     1      30.048  -4.403  62.113  1.00  0.00     0.001 C 
HETATM   22  C16 UNL     1      29.226  -5.491  62.723  1.00  0.00     0.011 C 
ENDBRANCH   7  17
TORSDOF 4
ENDMDL
MODEL 5
REMARK VINA RESULT: -8.111323308      3.688      8.836
REMARK  4 active torsions:
REMARK  status: ('A' for Active; 'I' for Inactive)
REMARK    1  A    between atoms: C3_5  and  S1_6 
REMARK    2  A    between atoms: S1_6  and  C4_7 
REMARK    3  A    between atoms: C4_7  and  C5_8 
REMARK       I    between atoms: C5_8  and  N2_10 
REMARK    4  A    between atoms: C10_16  and  C11_17 
ROOT
HETATM    1  C1  UNL     1      29.381 -10.365  64.305  1.00  0.00     0.071 C 
HETATM    2  C2  UNL     1      30.036  -9.056  63.934  1.00  0.00     0.038 A 
HETATM    3  N1  UNL     1      29.909  -8.395  62.770  1.00  0.00    -0.333 N 
ATOM      4  H1  UNL     1      29.351  -8.696  61.970  1.00  0.00     0.168 HD
HETATM    5  C3  UNL     1      30.642  -7.273  62.840  1.00  0.00     0.188 A 
HETATM    6  O2  UNL     1      31.196  -7.253  64.009  1.00  0.00    -0.290 OA
HETATM    7  C10 UNL     1      30.872  -8.303  64.724  1.00  0.00     0.082 A 
ENDROOT
BRANCH   5   8
HETATM    8  S1  UNL     1      30.819  -6.022  61.539  1.00  0.00    -0.077 SA
BRANCH   8   9
HETATM    9  C4  UNL     1      29.336  -5.971  60.511  1.00  0.00     0.185 C 
BRANCH   9  10
HETATM   10  C5  UNL     1      29.562  -6.633  59.193  1.00  0.00     0.229 C 
HETATM   11  O1  UNL     1      30.736  -6.861  58.837  1.00  0.00    -0.273 OA
HETATM   12  N2  UNL     1      28.488  -7.001  58.353  1.00  0.00    -0.351 N 
HETATM   13  C6  UNL     1      28.647  -7.647  57.060  1.00  0.00     0.126 C 
HETATM   14  C9  UNL     1      27.063  -6.827  58.577  1.00  0.00     0.126 C 
HETATM   15  C7  UNL     1      27.398  -8.463  56.855  1.00  0.00     0.021 C 
HETATM   16  C8  UNL     1      26.406  -7.979  57.862  1.00  0.00     0.021 C 
ENDBRANCH   9  10
ENDBRANCH   8   9
ENDBRANCH   5   8
BRANCH   7  17
HETATM   17  C11 UNL     1      31.350  -8.565  66.108  1.00  0.00     0.045 C 
HETATM   18  C12 UNL     1      31.783  -7.291  66.771  1.00  0.00     0.011 C 
HETATM   19  C13 UNL     1      33.202  -7.228  67.205  1.00  0.00     0.001 C 
HETATM   20  C14 UNL     1      34.029  -7.837  66.085  1.00  0.00     0.000 C 
HETATM   21  C15 UNL     1      33.775  -9.325  66.192  1.00  0.00     0.001 C 
HETATM   22  C16 UNL     1      32.323  -9.676  66.169  1.00  0.00     0.011 C 
ENDBRANCH   7  17
TORSDOF 4
ENDMDL
