MODEL 1
REMARK VINA RESULT: -8.749994842      0.000      0.000
REMARK  4 active torsions:
REMARK  status: ('A' for Active; 'I' for Inactive)
REMARK    1  A    between atoms: C4_4  and  C5_5 
REMARK    2  A    between atoms: C5_5  and  C6_6 
REMARK    3  A    between atoms: C6_6  and  C7_7 
REMARK    4  A    between atoms: C6_6  and  N4_18 
ROOT
HETATM    1  C6  UNL     1      29.445  -6.899  61.106  1.00  0.00     0.133 C 
ENDROOT
BRANCH   1   2
HETATM    2  C5  UNL     1      30.457  -7.859  61.713  1.00  0.00     0.036 C 
BRANCH   2   3
HETATM    3  C4  UNL     1      30.247  -8.321  63.070  1.00  0.00    -0.012 C 
HETATM    4  C3  UNL     1      30.417  -9.886  63.061  1.00  0.00     0.005 C 
HETATM    5  C2  UNL     1      29.328 -10.340  64.019  1.00  0.00     0.000 C 
HETATM    6  C1  UNL     1      29.531  -9.587  65.309  1.00  0.00     0.000 C 
HETATM    7  C19 UNL     1      30.844  -8.887  65.412  1.00  0.00     0.000 C 
HETATM    8  C18 UNL     1      30.998  -7.872  64.263  1.00  0.00     0.005 C 
ENDBRANCH   2   3
ENDBRANCH   1   2
BRANCH   1   9
HETATM    9  C7  UNL     1      29.487  -6.994  59.619  1.00  0.00     0.073 A 
HETATM   10  N1  UNL     1      30.439  -6.961  58.706  1.00  0.00    -0.286 N 
HETATM   11  N2  UNL     1      30.030  -6.972  57.476  1.00  0.00    -0.240 N 
ATOM     12  H1  UNL     1      31.428  -6.929  58.950  1.00  0.00     0.188 HD
HETATM   13  N3  UNL     1      28.693  -7.026  57.534  1.00  0.00    -0.280 N 
ATOM     14  H2  UNL     1      30.608  -6.944  56.636  1.00  0.00     0.208 HD
HETATM   15  C8  UNL     1      28.304  -7.044  58.795  1.00  0.00     0.056 A 
HETATM   16  C12 UNL     1      27.769  -7.143  56.409  1.00  0.00     0.150 C 
HETATM   17  C9  UNL     1      26.900  -7.205  59.227  1.00  0.00     0.061 C 
HETATM   18  C10 UNL     1      25.959  -7.397  58.087  1.00  0.00     0.008 C 
HETATM   19  C11 UNL     1      26.558  -7.978  56.849  1.00  0.00     0.022 C 
ENDBRANCH   1   9
BRANCH   1  20
HETATM   20  N4  UNL     1      29.927  -5.586  61.421  1.00  0.00    -0.403 N 
HETATM   21  C13 UNL     1      29.047  -4.606  61.903  1.00  0.00     0.117 C 
HETATM   22  C14 UNL     1      29.736  -3.881  63.072  1.00  0.00     0.019 C 
HETATM   23  C15 UNL     1      30.798  -3.010  62.407  1.00  0.00     0.003 C 
HETATM   24  C16 UNL     1      31.455  -3.714  61.277  1.00  0.00     0.019 C 
HETATM   25  C17 UNL     1      31.292  -5.265  61.374  1.00  0.00     0.117 C 
ENDBRANCH   1  20
TORSDOF 4
ENDMDL
MODEL 2
REMARK VINA RESULT: -8.152408420      2.031      6.184
REMARK  4 active torsions:
REMARK  status: ('A' for Active; 'I' for Inactive)
REMARK    1  A    between atoms: C4_4  and  C5_5 
REMARK    2  A    between atoms: C5_5  and  C6_6 
REMARK    3  A    between atoms: C6_6  and  C7_7 
REMARK    4  A    between atoms: C6_6  and  N4_18 
ROOT
HETATM    1  C6  UNL     1      30.113  -6.850  61.594  1.00  0.00     0.133 C 
ENDROOT
BRANCH   1   2
HETATM    2  C5  UNL     1      28.766  -6.847  60.885  1.00  0.00     0.036 C 
BRANCH   2   3
HETATM    3  C4  UNL     1      28.731  -7.136  59.465  1.00  0.00    -0.012 C 
HETATM    4  C3  UNL     1      27.331  -6.655  58.928  1.00  0.00     0.005 C 
HETATM    5  C2  UNL     1      26.968  -7.746  57.934  1.00  0.00     0.000 C 
HETATM    6  C1  UNL     1      28.122  -7.868  56.971  1.00  0.00     0.000 C 
HETATM    7  C19 UNL     1      29.104  -6.748  57.042  1.00  0.00     0.000 C 
HETATM    8  C18 UNL     1      29.702  -6.653  58.459  1.00  0.00     0.005 C 
ENDBRANCH   2   3
ENDBRANCH   1   2
BRANCH   1   9
HETATM    9  C7  UNL     1      30.071  -7.787  62.752  1.00  0.00     0.073 A 
HETATM   10  N1  UNL     1      29.300  -8.795  63.113  1.00  0.00    -0.286 N 
HETATM   11  N2  UNL     1      29.547  -9.293  64.284  1.00  0.00    -0.240 N 
ATOM     12  H1  UNL     1      28.560  -9.158  62.512  1.00  0.00     0.188 HD
HETATM   13  N3  UNL     1      30.574  -8.587  64.774  1.00  0.00    -0.280 N 
ATOM     14  H2  UNL     1      29.059 -10.065  64.739  1.00  0.00     0.208 HD
HETATM   15  C8  UNL     1      30.937  -7.666  63.900  1.00  0.00     0.056 A 
HETATM   16  C12 UNL     1      31.278  -8.817  66.032  1.00  0.00     0.150 C 
HETATM   17  C9  UNL     1      32.104  -6.776  64.071  1.00  0.00     0.061 C 
HETATM   18  C10 UNL     1      32.870  -7.053  65.318  1.00  0.00     0.008 C 
HETATM   19  C11 UNL     1      32.756  -8.445  65.848  1.00  0.00     0.022 C 
ENDBRANCH   1   9
BRANCH   1  20
HETATM   20  N4  UNL     1      30.248  -5.541  62.163  1.00  0.00    -0.403 N 
HETATM   21  C13 UNL     1      31.235  -4.664  61.691  1.00  0.00     0.117 C 
HETATM   22  C14 UNL     1      30.600  -3.270  61.540  1.00  0.00     0.019 C 
HETATM   23  C15 UNL     1      30.434  -2.771  62.973  1.00  0.00     0.003 C 
HETATM   24  C16 UNL     1      30.001  -3.859  63.886  1.00  0.00     0.019 C 
HETATM   25  C17 UNL     1      29.343  -5.048  63.115  1.00  0.00     0.117 C 
ENDBRANCH   1  20
TORSDOF 4
ENDMDL
MODEL 3
REMARK VINA RESULT: -7.986883766      0.539      1.156
REMARK  4 active torsions:
REMARK  status: ('A' for Active; 'I' for Inactive)
REMARK    1  A    between atoms: C4_4  and  C5_5 
REMARK    2  A    between atoms: C5_5  and  C6_6 
REMARK    3  A    between atoms: C6_6  and  C7_7 
REMARK    4  A    between atoms: C6_6  and  N4_18 
ROOT
HETATM    1  C6  UNL     1      29.707  -6.919  61.248  1.00  0.00     0.133 C 
ENDROOT
BRANCH   1   2
HETATM    2  C5  UNL     1      30.906  -7.661  61.820  1.00  0.00     0.036 C 
BRANCH   2   3
HETATM    3  C4  UNL     1      30.738  -8.400  63.056  1.00  0.00    -0.012 C 
HETATM    4  C3  UNL     1      31.044  -7.405  64.238  1.00  0.00     0.005 C 
HETATM    5  C2  UNL     1      31.798  -8.286  65.221  1.00  0.00     0.000 C 
HETATM    6  C1  UNL     1      30.935  -9.494  65.483  1.00  0.00     0.000 C 
HETATM    7  C19 UNL     1      29.531  -9.364  64.998  1.00  0.00     0.000 C 
HETATM    8  C18 UNL     1      29.513  -9.114  63.478  1.00  0.00     0.005 C 
ENDBRANCH   2   3
ENDBRANCH   1   2
BRANCH   1   9
HETATM    9  C7  UNL     1      29.714  -7.019  59.761  1.00  0.00     0.073 A 
HETATM   10  N1  UNL     1      30.648  -7.034  58.829  1.00  0.00    -0.286 N 
HETATM   11  N2  UNL     1      30.214  -7.027  57.607  1.00  0.00    -0.240 N 
ATOM     12  H1  UNL     1      31.642  -7.050  59.053  1.00  0.00     0.188 HD
HETATM   13  N3  UNL     1      28.877  -7.016  57.692  1.00  0.00    -0.280 N 
ATOM     14  H2  UNL     1      30.775  -7.029  56.755  1.00  0.00     0.208 HD
HETATM   15  C8  UNL     1      28.513  -7.012  58.962  1.00  0.00     0.056 A 
HETATM   16  C12 UNL     1      27.926  -7.089  56.587  1.00  0.00     0.150 C 
HETATM   17  C9  UNL     1      27.112  -7.103  59.422  1.00  0.00     0.061 C 
HETATM   18  C10 UNL     1      26.139  -7.251  58.302  1.00  0.00     0.008 C 
HETATM   19  C11 UNL     1      26.684  -7.863  57.053  1.00  0.00     0.022 C 
ENDBRANCH   1   9
BRANCH   1  20
HETATM   20  N4  UNL     1      29.939  -5.535  61.542  1.00  0.00    -0.403 N 
HETATM   21  C13 UNL     1      29.040  -4.824  62.350  1.00  0.00     0.117 C 
HETATM   22  C14 UNL     1      29.859  -3.977  63.341  1.00  0.00     0.019 C 
HETATM   23  C15 UNL     1      30.434  -2.848  62.490  1.00  0.00     0.003 C 
HETATM   24  C16 UNL     1      30.865  -3.333  61.155  1.00  0.00     0.019 C 
HETATM   25  C17 UNL     1      31.109  -4.876  61.139  1.00  0.00     0.117 C 
ENDBRANCH   1  20
TORSDOF 4
ENDMDL
MODEL 4
REMARK VINA RESULT: -7.801719392      2.484      6.152
REMARK  4 active torsions:
REMARK  status: ('A' for Active; 'I' for Inactive)
REMARK    1  A    between atoms: C4_4  and  C5_5 
REMARK    2  A    between atoms: C5_5  and  C6_6 
REMARK    3  A    between atoms: C6_6  and  C7_7 
REMARK    4  A    between atoms: C6_6  and  N4_18 
ROOT
HETATM    1  C6  UNL     1      30.830  -6.468  63.084  1.00  0.00     0.133 C 
ENDROOT
BRANCH   1   2
HETATM    2  C5  UNL     1      30.079  -7.558  63.835  1.00  0.00     0.036 C 
BRANCH   2   3
HETATM    3  C4  UNL     1      30.812  -8.731  64.268  1.00  0.00    -0.012 C 
HETATM    4  C3  UNL     1      30.779  -8.745  65.843  1.00  0.00     0.005 C 
HETATM    5  C2  UNL     1      32.177  -9.224  66.196  1.00  0.00     0.000 C 
HETATM    6  C1  UNL     1      32.402 -10.518  65.454  1.00  0.00     0.000 C 
HETATM    7  C19 UNL     1      31.167 -11.113  64.868  1.00  0.00     0.000 C 
HETATM    8  C18 UNL     1      30.518 -10.127  63.877  1.00  0.00     0.005 C 
ENDBRANCH   2   3
ENDBRANCH   1   2
BRANCH   1   9
HETATM    9  C7  UNL     1      30.606  -5.152  63.748  1.00  0.00     0.073 A 
HETATM   10  N1  UNL     1      29.961  -4.044  63.437  1.00  0.00    -0.286 N 
HETATM   11  N2  UNL     1      30.107  -3.063  64.271  1.00  0.00    -0.240 N 
ATOM     12  H1  UNL     1      29.387  -3.965  62.598  1.00  0.00     0.188 HD
HETATM   13  N3  UNL     1      30.906  -3.522  65.243  1.00  0.00    -0.280 N 
ATOM     14  H2  UNL     1      29.697  -2.131  64.201  1.00  0.00     0.208 HD
HETATM   15  C8  UNL     1      31.241  -4.774  64.988  1.00  0.00     0.056 A 
HETATM   16  C12 UNL     1      31.301  -2.820  66.461  1.00  0.00     0.150 C 
HETATM   17  C9  UNL     1      32.030  -5.623  65.904  1.00  0.00     0.061 C 
HETATM   18  C10 UNL     1      32.376  -4.937  67.181  1.00  0.00     0.008 C 
HETATM   19  C11 UNL     1      31.448  -3.843  67.596  1.00  0.00     0.022 C 
ENDBRANCH   1   9
BRANCH   1  20
HETATM   20  N4  UNL     1      30.184  -6.369  61.808  1.00  0.00    -0.403 N 
HETATM   21  C13 UNL     1      30.870  -5.834  60.709  1.00  0.00     0.117 C 
HETATM   22  C14 UNL     1      30.586  -6.727  59.488  1.00  0.00     0.019 C 
HETATM   23  C15 UNL     1      29.143  -6.406  59.110  1.00  0.00     0.003 C 
HETATM   24  C16 UNL     1      28.288  -6.229  60.311  1.00  0.00     0.019 C 
HETATM   25  C17 UNL     1      28.907  -6.900  61.579  1.00  0.00     0.117 C 
ENDBRANCH   1  20
TORSDOF 4
ENDMDL
MODEL 5
REMARK VINA RESULT: -7.780582305      2.477      6.063
REMARK  4 active torsions:
REMARK  status: ('A' for Active; 'I' for Inactive)
REMARK    1  A    between atoms: C4_4  and  C5_5 
REMARK    2  A    between atoms: C5_5  and  C6_6 
REMARK    3  A    between atoms: C6_6  and  C7_7 
REMARK    4  A    between atoms: C6_6  and  N4_18 
ROOT
HETATM    1  C6  UNL     1      30.995  -6.615  63.143  1.00  0.00     0.133 C 
ENDROOT
BRANCH   1   2
HETATM    2  C5  UNL     1      30.228  -7.680  63.913  1.00  0.00     0.036 C 
BRANCH   2   3
HETATM    3  C4  UNL     1      30.942  -8.857  64.366  1.00  0.00    -0.012 C 
HETATM    4  C3  UNL     1      30.944  -8.823  65.940  1.00  0.00     0.005 C 
HETATM    5  C2  UNL     1      32.338  -9.324  66.278  1.00  0.00     0.000 C 
HETATM    6  C1  UNL     1      32.517 -10.644  65.572  1.00  0.00     0.000 C 
HETATM    7  C19 UNL     1      31.256 -11.227  65.031  1.00  0.00     0.000 C 
HETATM    8  C18 UNL     1      30.609 -10.257  64.024  1.00  0.00     0.005 C 
ENDBRANCH   2   3
ENDBRANCH   1   2
BRANCH   1   9
HETATM    9  C7  UNL     1      30.724  -5.273  63.733  1.00  0.00     0.073 A 
HETATM   10  N1  UNL     1      30.076  -4.192  63.342  1.00  0.00    -0.286 N 
HETATM   11  N2  UNL     1      30.173  -3.170  64.133  1.00  0.00    -0.240 N 
ATOM     12  H1  UNL     1      29.537  -4.163  62.477  1.00  0.00     0.188 HD
HETATM   13  N3  UNL     1      30.937  -3.569  65.158  1.00  0.00    -0.280 N 
ATOM     14  H2  UNL     1      29.753  -2.249  64.001  1.00  0.00     0.208 HD
HETATM   15  C8  UNL     1      31.300  -4.826  64.978  1.00  0.00     0.056 A 
HETATM   16  C12 UNL     1      31.270  -2.804  66.356  1.00  0.00     0.150 C 
HETATM   17  C9  UNL     1      32.062  -5.618  65.966  1.00  0.00     0.061 C 
HETATM   18  C10 UNL     1      32.344  -4.867  67.222  1.00  0.00     0.008 C 
HETATM   19  C11 UNL     1      31.383  -3.770  67.545  1.00  0.00     0.022 C 
ENDBRANCH   1   9
BRANCH   1  20
HETATM   20  N4  UNL     1      30.403  -6.588  61.837  1.00  0.00    -0.403 N 
HETATM   21  C13 UNL     1      29.147  -7.169  61.618  1.00  0.00     0.117 C 
HETATM   22  C14 UNL     1      28.322  -6.207  60.746  1.00  0.00     0.019 C 
HETATM   23  C15 UNL     1      28.940  -6.328  59.355  1.00  0.00     0.003 C 
HETATM   24  C16 UNL     1      30.419  -6.434  59.421  1.00  0.00     0.019 C 
HETATM   25  C17 UNL     1      30.990  -5.890  60.770  1.00  0.00     0.117 C 
ENDBRANCH   1  20
TORSDOF 4
ENDMDL
