MODEL 1
REMARK VINA RESULT: -6.059721838      0.000      0.000
REMARK  4 active torsions:
REMARK  status: ('A' for Active; 'I' for Inactive)
REMARK    1  A    between atoms: C7_10  and  C8_11 
REMARK    2  A    between atoms: C8_11  and  C9_12 
REMARK    3  A    between atoms: C9_12  and  C10_13 
REMARK    4  A    between atoms: C10_13  and  C11_14 
ROOT
HETATM    1  C1  UNL     1      28.531  18.380   1.993  1.00  0.00     0.015 C 
HETATM    2  C2  UNL     1      27.835  19.310   2.655  1.00  0.00    -0.077 C 
HETATM    3  C3  UNL     1      27.166  20.419   1.934  1.00  0.00     0.034 C 
HETATM    4  C4  UNL     1      27.109  21.698   2.705  1.00  0.00     0.007 C 
HETATM    5  C5  UNL     1      26.897  21.488   4.199  1.00  0.00     0.041 C 
HETATM    6  C6  UNL     1      26.480  20.086   4.499  1.00  0.00     0.148 C 
HETATM    7  N1  UNL     1      25.309  19.764   3.768  1.00  0.00    -0.060 N 
ATOM      8  H11 UNL     1      25.121  18.762   3.767  1.00  0.00     0.278 HD
ATOM      9  H12 UNL     1      25.437  19.890   2.763  1.00  0.00     0.278 HD
HETATM   10  C7  UNL     1      24.191  20.525   4.272  1.00  0.00     0.187 C 
HETATM   11  C13 UNL     1      23.868  20.019   5.629  1.00  0.00     0.038 C 
HETATM   12  C14 UNL     1      24.984  19.510   6.438  1.00  0.00    -0.004 C 
HETATM   13  C15 UNL     1      24.894  20.157   7.828  1.00  0.00     0.011 C 
HETATM   14  C16 UNL     1      26.383  19.760   5.960  1.00  0.00     0.078 C 
HETATM   15  C17 UNL     1      27.099  18.468   6.126  1.00  0.00     0.033 C 
HETATM   16  N2  UNL     1      27.337  17.875   7.244  1.00  0.00    -0.400 N 
ATOM     17  H21 UNL     1      27.828  16.988   7.357  1.00  0.00     0.156 HD
ATOM     18  H22 UNL     1      27.088  18.184   8.183  1.00  0.00     0.156 HD
HETATM   19  C18 UNL     1      27.455  18.025   4.780  1.00  0.00     0.036 C 
HETATM   20  N3  UNL     1      27.517  16.792   4.358  1.00  0.00    -0.400 N 
ATOM     21  H31 UNL     1      27.765  16.483   3.419  1.00  0.00     0.156 HD
ATOM     22  H32 UNL     1      27.337  15.916   4.850  1.00  0.00     0.156 HD
HETATM   23  C19 UNL     1      27.712  19.281   4.075  1.00  0.00     0.102 C 
ENDROOT
BRANCH  10  24
HETATM   24  C8  UNL     1      22.979  20.389   3.362  1.00  0.00     0.033 C 
BRANCH  24  25
HETATM   25  C9  UNL     1      21.737  20.511   4.204  1.00  0.00     0.002 C 
BRANCH  25  26
HETATM   26  C10 UNL     1      20.744  19.409   3.910  1.00  0.00    -0.000 C 
BRANCH  26  27
HETATM   27  C11 UNL     1      19.958  19.008   5.122  1.00  0.00    -0.005 C 
HETATM   28  C12 UNL     1      18.530  18.669   4.825  1.00  0.00     0.005 C 
ENDBRANCH  26  27
ENDBRANCH  25  26
ENDBRANCH  24  25
ENDBRANCH  10  24
TORSDOF 4
ENDMDL
MODEL 2
REMARK VINA RESULT: -5.925171064      1.583      2.711
REMARK  4 active torsions:
REMARK  status: ('A' for Active; 'I' for Inactive)
REMARK    1  A    between atoms: C7_10  and  C8_11 
REMARK    2  A    between atoms: C8_11  and  C9_12 
REMARK    3  A    between atoms: C9_12  and  C10_13 
REMARK    4  A    between atoms: C10_13  and  C11_14 
ROOT
HETATM    1  C1  UNL     1      28.832  18.468   2.097  1.00  0.00     0.015 C 
HETATM    2  C2  UNL     1      28.115  19.382   2.759  1.00  0.00    -0.077 C 
HETATM    3  C3  UNL     1      27.465  20.505   2.043  1.00  0.00     0.034 C 
HETATM    4  C4  UNL     1      27.382  21.767   2.840  1.00  0.00     0.007 C 
HETATM    5  C5  UNL     1      27.127  21.524   4.322  1.00  0.00     0.041 C 
HETATM    6  C6  UNL     1      26.705  20.115   4.579  1.00  0.00     0.148 C 
HETATM    7  N1  UNL     1      25.556  19.806   3.807  1.00  0.00    -0.060 N 
ATOM      8  H11 UNL     1      25.371  18.804   3.779  1.00  0.00     0.278 HD
ATOM      9  H12 UNL     1      25.713  19.955   2.810  1.00  0.00     0.278 HD
HETATM   10  C7  UNL     1      24.422  20.555   4.296  1.00  0.00     0.187 C 
HETATM   11  C13 UNL     1      24.060  20.017   5.631  1.00  0.00     0.038 C 
HETATM   12  C14 UNL     1      25.154  19.494   6.460  1.00  0.00    -0.004 C 
HETATM   13  C15 UNL     1      25.022  20.109   7.861  1.00  0.00     0.011 C 
HETATM   14  C16 UNL     1      26.566  19.757   6.029  1.00  0.00     0.078 C 
HETATM   15  C17 UNL     1      27.280  18.462   6.187  1.00  0.00     0.033 C 
HETATM   16  N2  UNL     1      27.486  17.845   7.299  1.00  0.00    -0.400 N 
ATOM     17  H21 UNL     1      27.976  16.957   7.407  1.00  0.00     0.156 HD
ATOM     18  H22 UNL     1      27.210  18.133   8.237  1.00  0.00     0.156 HD
HETATM   19  C18 UNL     1      27.676  18.050   4.843  1.00  0.00     0.036 C 
HETATM   20  N3  UNL     1      27.753  16.826   4.396  1.00  0.00    -0.400 N 
ATOM     21  H31 UNL     1      28.030  16.539   3.458  1.00  0.00     0.156 HD
ATOM     22  H32 UNL     1      27.562  15.940   4.863  1.00  0.00     0.156 HD
HETATM   23  C19 UNL     1      27.950  19.322   4.174  1.00  0.00     0.102 C 
ENDROOT
BRANCH  10  24
HETATM   24  C8  UNL     1      23.238  20.436   3.347  1.00  0.00     0.033 C 
BRANCH  24  25
HETATM   25  C9  UNL     1      23.655  20.962   2.000  1.00  0.00     0.002 C 
BRANCH  25  26
HETATM   26  C10 UNL     1      23.770  22.470   1.991  1.00  0.00    -0.000 C 
BRANCH  26  27
HETATM   27  C11 UNL     1      24.463  22.985   0.766  1.00  0.00    -0.005 C 
HETATM   28  C12 UNL     1      24.662  21.945  -0.293  1.00  0.00     0.005 C 
ENDBRANCH  26  27
ENDBRANCH  25  26
ENDBRANCH  24  25
ENDBRANCH  10  24
TORSDOF 4
ENDMDL
MODEL 3
REMARK VINA RESULT: -5.905843272      2.009      3.510
REMARK  4 active torsions:
REMARK  status: ('A' for Active; 'I' for Inactive)
REMARK    1  A    between atoms: C7_10  and  C8_11 
REMARK    2  A    between atoms: C8_11  and  C9_12 
REMARK    3  A    between atoms: C9_12  and  C10_13 
REMARK    4  A    between atoms: C10_13  and  C11_14 
ROOT
HETATM    1  C1  UNL     1      26.250  19.642   3.178  1.00  0.00     0.015 C 
HETATM    2  C2  UNL     1      25.046  20.204   3.323  1.00  0.00    -0.077 C 
HETATM    3  C3  UNL     1      24.174  20.451   2.150  1.00  0.00     0.034 C 
HETATM    4  C4  UNL     1      23.312  21.665   2.279  1.00  0.00     0.007 C 
HETATM    5  C5  UNL     1      22.808  21.895   3.698  1.00  0.00     0.041 C 
HETATM    6  C6  UNL     1      23.026  20.692   4.556  1.00  0.00     0.148 C 
HETATM    7  N1  UNL     1      22.401  19.562   3.970  1.00  0.00    -0.060 N 
ATOM      8  H11 UNL     1      22.710  18.689   4.397  1.00  0.00     0.278 HD
ATOM      9  H12 UNL     1      22.735  19.388   3.021  1.00  0.00     0.278 HD
HETATM   10  C7  UNL     1      20.966  19.713   4.022  1.00  0.00     0.187 C 
HETATM   11  C13 UNL     1      20.546  19.608   5.441  1.00  0.00     0.038 C 
HETATM   12  C14 UNL     1      21.490  20.095   6.457  1.00  0.00    -0.004 C 
HETATM   13  C15 UNL     1      20.719  21.015   7.416  1.00  0.00     0.011 C 
HETATM   14  C16 UNL     1      22.682  20.884   6.004  1.00  0.00     0.078 C 
HETATM   15  C17 UNL     1      23.837  20.333   6.761  1.00  0.00     0.033 C 
HETATM   16  N2  UNL     1      23.995  20.384   8.038  1.00  0.00    -0.400 N 
ATOM     17  H21 UNL     1      24.787  20.006   8.557  1.00  0.00     0.156 HD
ATOM     18  H22 UNL     1      23.376  20.805   8.731  1.00  0.00     0.156 HD
HETATM   19  C18 UNL     1      24.723  19.729   5.769  1.00  0.00     0.036 C 
HETATM   20  N3  UNL     1      25.468  18.671   5.933  1.00  0.00    -0.400 N 
ATOM     21  H31 UNL     1      26.087  18.250   5.241  1.00  0.00     0.156 HD
ATOM     22  H32 UNL     1      25.586  18.067   6.747  1.00  0.00     0.156 HD
HETATM   23  C19 UNL     1      24.553  20.596   4.602  1.00  0.00     0.102 C 
ENDROOT
BRANCH  10  24
HETATM   24  C8  UNL     1      20.272  18.644   3.191  1.00  0.00     0.033 C 
BRANCH  24  25
HETATM   25  C9  UNL     1      18.846  18.530   3.660  1.00  0.00     0.002 C 
BRANCH  25  26
HETATM   26  C10 UNL     1      17.939  17.969   2.587  1.00  0.00    -0.000 C 
BRANCH  26  27
HETATM   27  C11 UNL     1      16.512  17.873   3.035  1.00  0.00    -0.005 C 
HETATM   28  C12 UNL     1      16.208  18.697   4.249  1.00  0.00     0.005 C 
ENDBRANCH  26  27
ENDBRANCH  25  26
ENDBRANCH  24  25
ENDBRANCH  10  24
TORSDOF 4
ENDMDL
MODEL 4
REMARK VINA RESULT: -5.650314870      2.700      5.394
REMARK  4 active torsions:
REMARK  status: ('A' for Active; 'I' for Inactive)
REMARK    1  A    between atoms: C7_10  and  C8_11 
REMARK    2  A    between atoms: C8_11  and  C9_12 
REMARK    3  A    between atoms: C9_12  and  C10_13 
REMARK    4  A    between atoms: C10_13  and  C11_14 
ROOT
HETATM    1  C1  UNL     1      21.992  20.325   7.104  1.00  0.00     0.015 C 
HETATM    2  C2  UNL     1      22.266  20.241   5.799  1.00  0.00    -0.077 C 
HETATM    3  C3  UNL     1      21.257  20.620   4.781  1.00  0.00     0.034 C 
HETATM    4  C4  UNL     1      21.341  19.827   3.517  1.00  0.00     0.007 C 
HETATM    5  C5  UNL     1      22.770  19.483   3.119  1.00  0.00     0.041 C 
HETATM    6  C6  UNL     1      23.761  20.282   3.900  1.00  0.00     0.148 C 
HETATM    7  N1  UNL     1      23.504  21.666   3.734  1.00  0.00    -0.060 N 
ATOM      8  H11 UNL     1      24.005  22.234   4.417  1.00  0.00     0.278 HD
ATOM      9  H12 UNL     1      22.553  21.915   4.005  1.00  0.00     0.278 HD
HETATM   10  C7  UNL     1      23.802  22.060   2.377  1.00  0.00     0.187 C 
HETATM   11  C13 UNL     1      25.273  21.986   2.192  1.00  0.00     0.038 C 
HETATM   12  C14 UNL     1      25.993  20.958   2.956  1.00  0.00    -0.004 C 
HETATM   13  C15 UNL     1      26.912  20.203   1.984  1.00  0.00     0.011 C 
HETATM   14  C16 UNL     1      25.194  19.905   3.665  1.00  0.00     0.078 C 
HETATM   15  C17 UNL     1      25.800  19.788   5.018  1.00  0.00     0.033 C 
HETATM   16  N2  UNL     1      26.996  19.388   5.277  1.00  0.00    -0.400 N 
ATOM     17  H21 UNL     1      27.411  19.308   6.206  1.00  0.00     0.156 HD
ATOM     18  H22 UNL     1      27.712  19.084   4.619  1.00  0.00     0.156 HD
HETATM   19  C18 UNL     1      24.773  20.224   5.962  1.00  0.00     0.036 C 
HETATM   20  N3  UNL     1      24.969  20.854   7.088  1.00  0.00    -0.400 N 
ATOM     21  H31 UNL     1      24.253  21.158   7.746  1.00  0.00     0.156 HD
ATOM     22  H32 UNL     1      25.835  21.163   7.529  1.00  0.00     0.156 HD
HETATM   23  C19 UNL     1      23.531  19.780   5.329  1.00  0.00     0.102 C 
ENDROOT
BRANCH  10  24
HETATM   24  C8  UNL     1      23.312  23.473   2.096  1.00  0.00     0.033 C 
BRANCH  24  25
HETATM   25  C9  UNL     1      23.891  23.924   0.782  1.00  0.00     0.002 C 
BRANCH  25  26
HETATM   26  C10 UNL     1      22.891  23.808  -0.347  1.00  0.00    -0.000 C 
BRANCH  26  27
HETATM   27  C11 UNL     1      23.524  23.356  -1.629  1.00  0.00    -0.005 C 
HETATM   28  C12 UNL     1      24.707  22.460  -1.430  1.00  0.00     0.005 C 
ENDBRANCH  26  27
ENDBRANCH  25  26
ENDBRANCH  24  25
ENDBRANCH  10  24
TORSDOF 4
ENDMDL
MODEL 5
REMARK VINA RESULT: -5.581288794      6.774      9.545
REMARK  4 active torsions:
REMARK  status: ('A' for Active; 'I' for Inactive)
REMARK    1  A    between atoms: C7_10  and  C8_11 
REMARK    2  A    between atoms: C8_11  and  C9_12 
REMARK    3  A    between atoms: C9_12  and  C10_13 
REMARK    4  A    between atoms: C10_13  and  C11_14 
ROOT
HETATM    1  C1  UNL     1      24.230  21.742  -0.257  1.00  0.00     0.015 C 
HETATM    2  C2  UNL     1      23.781  22.967   0.036  1.00  0.00    -0.077 C 
HETATM    3  C3  UNL     1      24.568  23.882   0.897  1.00  0.00     0.034 C 
HETATM    4  C4  UNL     1      23.733  24.796   1.735  1.00  0.00     0.007 C 
HETATM    5  C5  UNL     1      22.470  25.271   1.028  1.00  0.00     0.041 C 
HETATM    6  C6  UNL     1      22.520  24.973  -0.435  1.00  0.00     0.148 C 
HETATM    7  N1  UNL     1      23.676  25.560  -1.008  1.00  0.00    -0.060 N 
ATOM      8  H11 UNL     1      23.865  25.199  -1.943  1.00  0.00     0.278 HD
ATOM      9  H12 UNL     1      24.532  25.245  -0.552  1.00  0.00     0.278 HD
HETATM   10  C7  UNL     1      23.552  26.999  -0.997  1.00  0.00     0.187 C 
HETATM   11  C13 UNL     1      22.492  27.374  -1.965  1.00  0.00     0.038 C 
HETATM   12  C14 UNL     1      21.383  26.427  -2.145  1.00  0.00    -0.004 C 
HETATM   13  C15 UNL     1      20.068  27.213  -2.040  1.00  0.00     0.011 C 
HETATM   14  C16 UNL     1      21.256  25.286  -1.181  1.00  0.00     0.078 C 
HETATM   15  C17 UNL     1      20.981  24.086  -2.015  1.00  0.00     0.033 C 
HETATM   16  N2  UNL     1      19.935  23.896  -2.742  1.00  0.00    -0.400 N 
ATOM     17  H21 UNL     1      19.747  23.072  -3.314  1.00  0.00     0.156 HD
ATOM     18  H22 UNL     1      19.134  24.514  -2.862  1.00  0.00     0.156 HD
HETATM   19  C18 UNL     1      22.130  23.201  -1.843  1.00  0.00     0.036 C 
HETATM   20  N3  UNL     1      22.638  22.402  -2.742  1.00  0.00    -0.400 N 
ATOM     21  H31 UNL     1      23.440  21.784  -2.621  1.00  0.00     0.156 HD
ATOM     22  H32 UNL     1      22.359  22.234  -3.708  1.00  0.00     0.156 HD
HETATM   23  C19 UNL     1      22.530  23.442  -0.457  1.00  0.00     0.102 C 
ENDROOT
BRANCH  10  24
HETATM   24  C8  UNL     1      24.866  27.665  -1.378  1.00  0.00     0.033 C 
BRANCH  24  25
HETATM   25  C9  UNL     1      25.886  27.340  -0.319  1.00  0.00     0.002 C 
BRANCH  25  26
HETATM   26  C10 UNL     1      25.549  27.982   1.009  1.00  0.00    -0.000 C 
BRANCH  26  27
HETATM   27  C11 UNL     1      26.315  27.380   2.148  1.00  0.00    -0.005 C 
HETATM   28  C12 UNL     1      27.275  26.311   1.725  1.00  0.00     0.005 C 
ENDBRANCH  26  27
ENDBRANCH  25  26
ENDBRANCH  24  25
ENDBRANCH  10  24
TORSDOF 4
ENDMDL
