MODEL 1
REMARK VINA RESULT: -6.748957253      0.000      0.000
REMARK  7 active torsions:
REMARK  status: ('A' for Active; 'I' for Inactive)
REMARK    1  A    between atoms: C2_2  and  C3_3 
REMARK    2  A    between atoms: C7_7  and  C8_8 
REMARK    3  A    between atoms: C9_9  and  O1_10 
REMARK    4  A    between atoms: C10_14  and  O2_15 
REMARK    5  A    between atoms: C11_17  and  N2_18 
REMARK    6  A    between atoms: N2_18  and  O3_20 
REMARK    7  A    between atoms: C12_22  and  C13_23 
ROOT
HETATM    1  C8  UNL     1      23.736  20.509   3.893  1.00  0.00     0.030 A 
HETATM    2  C9  UNL     1      24.374  20.594   5.115  1.00  0.00     0.151 A 
HETATM    3  N1  UNL     1      23.511  20.173   6.078  1.00  0.00    -0.315 N 
ATOM      4  H1  UNL     1      23.735  20.133   7.073  1.00  0.00     0.170 HD
HETATM    5  C10 UNL     1      22.349  19.824   5.566  1.00  0.00     0.172 A 
HETATM    6  C11 UNL     1      22.486  20.036   4.183  1.00  0.00     0.116 A 
ENDROOT
BRANCH   1   7
HETATM    7  C7  UNL     1      24.316  20.907   2.562  1.00  0.00     0.034 C 
HETATM    8  C6  UNL     1      23.598  22.296   2.345  1.00  0.00     0.011 C 
HETATM    9  C5  UNL     1      23.693  22.470   0.834  1.00  0.00     0.014 C 
HETATM   10  C3  UNL     1      25.126  22.967   0.660  1.00  0.00    -0.026 C 
HETATM   11  C4  UNL     1      25.135  24.416   1.166  1.00  0.00     0.019 C 
HETATM   12  C17 UNL     1      26.107  22.105   1.319  1.00  0.00     0.022 C 
HETATM   13  C12 UNL     1      25.730  21.248   2.512  1.00  0.00     0.023 C 
BRANCH  10  14
HETATM   14  C2  UNL     1      25.385  23.017  -0.797  1.00  0.00    -0.028 C 
HETATM   15  C1  UNL     1      24.505  22.636  -1.688  1.00  0.00     0.007 C 
ENDBRANCH  10  14
BRANCH  13  16
HETATM   16  C13 UNL     1      26.784  20.208   2.493  1.00  0.00    -0.083 C 
HETATM   17  C14 UNL     1      28.161  20.656   2.012  1.00  0.00     0.043 C 
HETATM   18  C15 UNL     1      26.720  18.950   2.841  1.00  0.00    -0.028 C 
HETATM   19  C16 UNL     1      27.874  18.015   2.761  1.00  0.00     0.036 C 
ENDBRANCH  13  16
ENDBRANCH   1   7
BRANCH   2  20
HETATM   20  O1  UNL     1      25.663  21.007   5.431  1.00  0.00    -0.346 OA
ATOM     21  H1  UNL     1      26.477  20.518   5.454  1.00  0.00     0.219 HD
ENDBRANCH   2  20
BRANCH   6  22
HETATM   22  N2  UNL     1      21.430  19.821   3.273  1.00  0.00    -0.264 N 
ATOM     23  H2  UNL     1      21.190  20.530   2.579  1.00  0.00     0.194 HD
BRANCH  22  24
HETATM   24  O3  UNL     1      20.783  18.731   3.336  1.00  0.00    -0.289 OA
ATOM     25  H3  UNL     1      20.508  18.316   2.526  1.00  0.00     0.244 HD
ENDBRANCH  22  24
ENDBRANCH   6  22
BRANCH   5  26
HETATM   26  O2  UNL     1      21.217  19.349   6.182  1.00  0.00    -0.344 OA
ATOM     27  H2  UNL     1      20.445  18.939   5.810  1.00  0.00     0.219 HD
ENDBRANCH   5  26
TORSDOF 7
ENDMDL
MODEL 2
REMARK VINA RESULT: -6.427604693      1.789      4.043
REMARK  7 active torsions:
REMARK  status: ('A' for Active; 'I' for Inactive)
REMARK    1  A    between atoms: C2_2  and  C3_3 
REMARK    2  A    between atoms: C7_7  and  C8_8 
REMARK    3  A    between atoms: C9_9  and  O1_10 
REMARK    4  A    between atoms: C10_14  and  O2_15 
REMARK    5  A    between atoms: C11_17  and  N2_18 
REMARK    6  A    between atoms: N2_18  and  O3_20 
REMARK    7  A    between atoms: C12_22  and  C13_23 
ROOT
HETATM    1  C8  UNL     1      22.531  20.483   5.121  1.00  0.00     0.030 A 
HETATM    2  C9  UNL     1      21.974  20.807   6.344  1.00  0.00     0.151 A 
HETATM    3  N1  UNL     1      20.709  20.309   6.383  1.00  0.00    -0.315 N 
ATOM      4  H1  UNL     1      20.079  20.406   7.179  1.00  0.00     0.170 HD
HETATM    5  C10 UNL     1      20.401  19.686   5.265  1.00  0.00     0.172 A 
HETATM    6  C11 UNL     1      21.550  19.795   4.463  1.00  0.00     0.116 A 
ENDROOT
BRANCH   1   7
HETATM    7  C7  UNL     1      23.906  20.867   4.645  1.00  0.00     0.034 C 
HETATM    8  C6  UNL     1      24.759  19.697   5.275  1.00  0.00     0.011 C 
HETATM    9  C5  UNL     1      26.154  20.307   5.315  1.00  0.00     0.014 C 
HETATM   10  C3  UNL     1      26.622  20.130   3.873  1.00  0.00    -0.026 C 
HETATM   11  C4  UNL     1      26.915  18.633   3.704  1.00  0.00     0.019 C 
HETATM   12  C17 UNL     1      25.666  20.657   2.899  1.00  0.00     0.022 C 
HETATM   13  C12 UNL     1      24.187  20.760   3.221  1.00  0.00     0.023 C 
BRANCH  10  14
HETATM   14  C2  UNL     1      27.917  20.839   3.755  1.00  0.00    -0.028 C 
HETATM   15  C1  UNL     1      28.020  22.051   3.272  1.00  0.00     0.007 C 
ENDBRANCH  10  14
BRANCH  13  16
HETATM   16  C13 UNL     1      23.731  21.786   2.256  1.00  0.00    -0.083 C 
HETATM   17  C14 UNL     1      24.071  21.529   0.791  1.00  0.00     0.043 C 
HETATM   18  C15 UNL     1      23.059  22.887   2.466  1.00  0.00    -0.028 C 
HETATM   19  C16 UNL     1      22.671  23.833   1.385  1.00  0.00     0.036 C 
ENDBRANCH  13  16
ENDBRANCH   1   7
BRANCH   2  20
HETATM   20  O1  UNL     1      22.512  21.501   7.422  1.00  0.00    -0.346 OA
ATOM     21  H1  UNL     1      22.182  22.258   7.892  1.00  0.00     0.219 HD
ENDBRANCH   2  20
BRANCH   6  22
HETATM   22  N2  UNL     1      21.609  19.288   3.147  1.00  0.00    -0.264 N 
ATOM     23  H2  UNL     1      22.507  19.085   2.708  1.00  0.00     0.194 HD
BRANCH  22  24
HETATM   24  O3  UNL     1      20.523  19.090   2.520  1.00  0.00    -0.289 OA
ATOM     25  H3  UNL     1      20.552  18.994   1.575  1.00  0.00     0.244 HD
ENDBRANCH  22  24
ENDBRANCH   6  22
BRANCH   5  26
HETATM   26  O2  UNL     1      19.241  19.050   4.897  1.00  0.00    -0.344 OA
ATOM     27  H2  UNL     1      18.841  18.953   4.041  1.00  0.00     0.219 HD
ENDBRANCH   5  26
TORSDOF 7
ENDMDL
MODEL 3
REMARK VINA RESULT: -6.265063812      2.585      4.393
REMARK  7 active torsions:
REMARK  status: ('A' for Active; 'I' for Inactive)
REMARK    1  A    between atoms: C2_2  and  C3_3 
REMARK    2  A    between atoms: C7_7  and  C8_8 
REMARK    3  A    between atoms: C9_9  and  O1_10 
REMARK    4  A    between atoms: C10_14  and  O2_15 
REMARK    5  A    between atoms: C11_17  and  N2_18 
REMARK    6  A    between atoms: N2_18  and  O3_20 
REMARK    7  A    between atoms: C12_22  and  C13_23 
ROOT
HETATM    1  C8  UNL     1      26.020  19.995   4.614  1.00  0.00     0.030 A 
HETATM    2  C9  UNL     1      26.210  19.961   5.982  1.00  0.00     0.151 A 
HETATM    3  N1  UNL     1      27.067  18.944   6.269  1.00  0.00    -0.315 N 
ATOM      4  H1  UNL     1      27.378  18.704   7.211  1.00  0.00     0.170 HD
HETATM    5  C10 UNL     1      27.445  18.309   5.179  1.00  0.00     0.172 A 
HETATM    6  C11 UNL     1      26.784  18.970   4.129  1.00  0.00     0.116 A 
ENDROOT
BRANCH   1   7
HETATM    7  C7  UNL     1      25.121  20.945   3.870  1.00  0.00     0.034 C 
HETATM    8  C6  UNL     1      25.997  21.214   2.584  1.00  0.00     0.011 C 
HETATM    9  C5  UNL     1      25.436  22.540   2.088  1.00  0.00     0.014 C 
HETATM   10  C3  UNL     1      24.167  22.100   1.364  1.00  0.00    -0.026 C 
HETATM   11  C4  UNL     1      24.632  21.426   0.067  1.00  0.00     0.019 C 
HETATM   12  C17 UNL     1      23.308  21.253   2.194  1.00  0.00     0.022 C 
HETATM   13  C12 UNL     1      23.878  20.419   3.325  1.00  0.00     0.023 C 
BRANCH  10  14
HETATM   14  C2  UNL     1      23.446  23.334   0.976  1.00  0.00    -0.028 C 
HETATM   15  C1  UNL     1      22.932  24.161   1.852  1.00  0.00     0.007 C 
ENDBRANCH  10  14
BRANCH  13  16
HETATM   16  C13 UNL     1      22.687  20.194   4.175  1.00  0.00    -0.083 C 
HETATM   17  C14 UNL     1      21.496  19.519   3.500  1.00  0.00     0.043 C 
HETATM   18  C15 UNL     1      22.498  20.477   5.437  1.00  0.00    -0.028 C 
HETATM   19  C16 UNL     1      21.231  20.193   6.163  1.00  0.00     0.036 C 
ENDBRANCH  13  16
ENDBRANCH   1   7
BRANCH   2  20
HETATM   20  O1  UNL     1      25.687  20.769   6.985  1.00  0.00    -0.346 OA
ATOM     21  H1  UNL     1      25.886  21.669   7.216  1.00  0.00     0.219 HD
ENDBRANCH   2  20
BRANCH   6  22
HETATM   22  N2  UNL     1      26.891  18.557   2.785  1.00  0.00    -0.264 N 
ATOM     23  H2  UNL     1      26.838  19.237   2.026  1.00  0.00     0.194 HD
BRANCH  22  24
HETATM   24  O3  UNL     1      27.053  17.322   2.537  1.00  0.00    -0.289 OA
ATOM     25  H3  UNL     1      26.981  16.700   3.251  1.00  0.00     0.244 HD
ENDBRANCH  22  24
ENDBRANCH   6  22
BRANCH   5  26
HETATM   26  O2  UNL     1      28.291  17.239   5.027  1.00  0.00    -0.344 OA
ATOM     27  H2  UNL     1      28.100  16.310   4.979  1.00  0.00     0.219 HD
ENDBRANCH   5  26
TORSDOF 7
ENDMDL
MODEL 4
REMARK VINA RESULT: -6.258650065      3.385      5.913
REMARK  7 active torsions:
REMARK  status: ('A' for Active; 'I' for Inactive)
REMARK    1  A    between atoms: C2_2  and  C3_3 
REMARK    2  A    between atoms: C7_7  and  C8_8 
REMARK    3  A    between atoms: C9_9  and  O1_10 
REMARK    4  A    between atoms: C10_14  and  O2_15 
REMARK    5  A    between atoms: C11_17  and  N2_18 
REMARK    6  A    between atoms: N2_18  and  O3_20 
REMARK    7  A    between atoms: C12_22  and  C13_23 
ROOT
HETATM    1  C8  UNL     1      25.859  22.391   0.815  1.00  0.00     0.030 A 
HETATM    2  C9  UNL     1      26.514  23.586   1.041  1.00  0.00     0.151 A 
HETATM    3  N1  UNL     1      26.280  24.409  -0.017  1.00  0.00    -0.315 N 
ATOM      4  H1  UNL     1      26.648  25.356  -0.099  1.00  0.00     0.170 HD
HETATM    5  C10 UNL     1      25.519  23.827  -0.920  1.00  0.00     0.172 A 
HETATM    6  C11 UNL     1      25.251  22.550  -0.398  1.00  0.00     0.116 A 
ENDROOT
BRANCH   1   7
HETATM    7  C7  UNL     1      25.878  21.188   1.719  1.00  0.00     0.034 C 
HETATM    8  C6  UNL     1      27.432  21.028   1.944  1.00  0.00     0.011 C 
HETATM    9  C5  UNL     1      27.545  19.566   2.356  1.00  0.00     0.014 C 
HETATM   10  C3  UNL     1      27.144  19.617   3.828  1.00  0.00    -0.026 C 
HETATM   11  C4  UNL     1      28.324  20.265   4.565  1.00  0.00     0.019 C 
HETATM   12  C17 UNL     1      25.867  20.298   4.043  1.00  0.00     0.022 C 
HETATM   13  C12 UNL     1      25.357  21.344   3.070  1.00  0.00     0.023 C 
BRANCH  10  14
HETATM   14  C2  UNL     1      27.061  18.214   4.296  1.00  0.00    -0.028 C 
HETATM   15  C1  UNL     1      27.899  17.286   3.909  1.00  0.00     0.007 C 
ENDBRANCH  10  14
BRANCH  13  16
HETATM   16  C13 UNL     1      23.904  21.345   3.350  1.00  0.00    -0.083 C 
HETATM   17  C14 UNL     1      23.073  22.377   2.592  1.00  0.00     0.043 C 
HETATM   18  C15 UNL     1      23.208  20.579   4.149  1.00  0.00    -0.028 C 
HETATM   19  C16 UNL     1      21.737  20.702   4.333  1.00  0.00     0.036 C 
ENDBRANCH  13  16
ENDBRANCH   1   7
BRANCH   2  20
HETATM   20  O1  UNL     1      27.293  23.997   2.117  1.00  0.00    -0.346 OA
ATOM     21  H1  UNL     1      27.077  24.071   3.039  1.00  0.00     0.219 HD
ENDBRANCH   2  20
BRANCH   6  22
HETATM   22  N2  UNL     1      24.494  21.587  -1.099  1.00  0.00    -0.264 N 
ATOM     23  H2  UNL     1      24.680  20.591  -0.977  1.00  0.00     0.194 HD
BRANCH  22  24
HETATM   24  O3  UNL     1      23.578  21.983  -1.883  1.00  0.00    -0.289 OA
ATOM     25  H3  UNL     1      23.337  22.903  -1.876  1.00  0.00     0.244 HD
ENDBRANCH  22  24
ENDBRANCH   6  22
BRANCH   5  26
HETATM   26  O2  UNL     1      25.051  24.302  -2.121  1.00  0.00    -0.344 OA
ATOM     27  H2  UNL     1      25.430  24.937  -2.717  1.00  0.00     0.219 HD
ENDBRANCH   5  26
TORSDOF 7
ENDMDL
MODEL 5
REMARK VINA RESULT: -6.225719292      3.490      5.782
REMARK  7 active torsions:
REMARK  status: ('A' for Active; 'I' for Inactive)
REMARK    1  A    between atoms: C2_2  and  C3_3 
REMARK    2  A    between atoms: C7_7  and  C8_8 
REMARK    3  A    between atoms: C9_9  and  O1_10 
REMARK    4  A    between atoms: C10_14  and  O2_15 
REMARK    5  A    between atoms: C11_17  and  N2_18 
REMARK    6  A    between atoms: N2_18  and  O3_20 
REMARK    7  A    between atoms: C12_22  and  C13_23 
ROOT
HETATM    1  C8  UNL     1      23.884  23.078   0.117  1.00  0.00     0.030 A 
HETATM    2  C9  UNL     1      24.070  22.688  -1.195  1.00  0.00     0.151 A 
HETATM    3  N1  UNL     1      22.952  23.011  -1.900  1.00  0.00    -0.315 N 
ATOM      4  H1  UNL     1      22.830  22.834  -2.897  1.00  0.00     0.170 HD
HETATM    5  C10 UNL     1      22.047  23.582  -1.132  1.00  0.00     0.172 A 
HETATM    6  C11 UNL     1      22.632  23.626   0.145  1.00  0.00     0.116 A 
ENDROOT
BRANCH   1   7
HETATM    7  C7  UNL     1      24.861  22.881   1.245  1.00  0.00     0.034 C 
HETATM    8  C6  UNL     1      24.693  21.331   1.495  1.00  0.00     0.011 C 
HETATM    9  C5  UNL     1      25.196  21.183   2.925  1.00  0.00     0.014 C 
HETATM   10  C3  UNL     1      26.711  21.182   2.732  1.00  0.00    -0.026 C 
HETATM   11  C4  UNL     1      27.057  19.822   2.113  1.00  0.00     0.019 C 
HETATM   12  C17 UNL     1      27.181  22.325   1.949  1.00  0.00     0.022 C 
HETATM   13  C12 UNL     1      26.279  23.022   0.949  1.00  0.00     0.023 C 
BRANCH  10  14
HETATM   14  C2  UNL     1      27.313  21.206   4.085  1.00  0.00    -0.028 C 
HETATM   15  C1  UNL     1      26.669  20.814   5.155  1.00  0.00     0.007 C 
ENDBRANCH  10  14
BRANCH  13  16
HETATM   16  C13 UNL     1      26.922  24.349   0.824  1.00  0.00    -0.083 C 
HETATM   17  C14 UNL     1      27.167  24.847  -0.598  1.00  0.00     0.043 C 
HETATM   18  C15 UNL     1      27.306  25.180   1.757  1.00  0.00    -0.028 C 
HETATM   19  C16 UNL     1      27.949  26.492   1.476  1.00  0.00     0.036 C 
ENDBRANCH  13  16
ENDBRANCH   1   7
BRANCH   2  20
HETATM   20  O1  UNL     1      25.159  22.078  -1.808  1.00  0.00    -0.346 OA
ATOM     21  H1  UNL     1      25.485  22.153  -2.697  1.00  0.00     0.219 HD
ENDBRANCH   2  20
BRANCH   6  22
HETATM   22  N2  UNL     1      21.953  24.130   1.274  1.00  0.00    -0.264 N 
ATOM     23  H2  UNL     1      21.242  23.571   1.746  1.00  0.00     0.194 HD
BRANCH  22  24
HETATM   24  O3  UNL     1      22.245  25.292   1.693  1.00  0.00    -0.289 OA
ATOM     25  H3  UNL     1      22.932  25.385   2.343  1.00  0.00     0.244 HD
ENDBRANCH  22  24
ENDBRANCH   6  22
BRANCH   5  26
HETATM   26  O2  UNL     1      20.795  24.055  -1.442  1.00  0.00    -0.344 OA
ATOM     27  H2  UNL     1      20.466  24.432  -2.250  1.00  0.00     0.219 HD
ENDBRANCH   5  26
TORSDOF 7
ENDMDL
