MODEL 1
REMARK VINA RESULT: -7.830363279      0.000      0.000
REMARK  9 active torsions:
REMARK  status: ('A' for Active; 'I' for Inactive)
REMARK    1  A    between atoms: C4_4  and  C5_5 
REMARK    2  A    between atoms: C5_5  and  C6_6 
REMARK    3  A    between atoms: C6_6  and  C7_7 
REMARK    4  A    between atoms: C7_7  and  C9_9 
REMARK    5  A    between atoms: C9_9  and  C10_10 
REMARK    6  A    between atoms: C10_10  and  C11_11 
REMARK    7  A    between atoms: C11_11  and  C12_12 
REMARK    8  A    between atoms: C15_19  and  O1_20 
REMARK    9  A    between atoms: C16_22  and  O2_23 
ROOT
HETATM    1  C12 UNL     1      19.958  19.106   4.407  1.00  0.00     0.123 A 
HETATM    2  N1  UNL     1      20.716  19.365   3.292  1.00  0.00    -0.339 N 
ATOM      3  H1  UNL     1      20.390  19.156   2.349  1.00  0.00     0.167 HD
HETATM    4  C13 UNL     1      21.986  19.944   3.544  1.00  0.00     0.105 A 
HETATM    5  C14 UNL     1      22.266  20.160   4.874  1.00  0.00     0.108 A 
HETATM    6  N2  UNL     1      23.475  20.705   4.988  1.00  0.00    -0.327 N 
ATOM      7  H2  UNL     1      23.918  20.963   5.870  1.00  0.00     0.168 HD
HETATM    8  C15 UNL     1      24.031  20.865   3.769  1.00  0.00     0.177 A 
HETATM    9  C16 UNL     1      23.110  20.394   2.846  1.00  0.00     0.146 A 
HETATM   10  S1  UNL     1      20.863  19.600   5.821  1.00  0.00    -0.043 SA
ENDROOT
BRANCH   1  11
HETATM   11  C11 UNL     1      18.801  18.589   4.384  1.00  0.00    -0.091 C 
BRANCH  11  12
HETATM   12  C10 UNL     1      17.568  18.211   4.225  1.00  0.00     0.059 C 
BRANCH  12  13
HETATM   13  C9  UNL     1      16.996  18.656   2.998  1.00  0.00     0.015 C 
BRANCH  13  14
HETATM   14  C7  UNL     1      16.945  17.852   1.959  1.00  0.00    -0.054 C 
HETATM   15  C8  UNL     1      15.752  17.016   1.805  1.00  0.00     0.049 C 
BRANCH  14  16
HETATM   16  C6  UNL     1      18.032  17.813   1.003  1.00  0.00     0.062 C 
BRANCH  16  17
HETATM   17  C5  UNL     1      18.101  17.284  -0.143  1.00  0.00    -0.127 C 
BRANCH  17  18
HETATM   18  C4  UNL     1      18.175  16.713  -1.382  1.00  0.00     0.057 C 
HETATM   19  C2  UNL     1      18.207  17.221  -2.608  1.00  0.00    -0.080 C 
HETATM   20  C1  UNL     1      18.294  16.263  -3.773  1.00  0.00     0.043 C 
HETATM   21  C3  UNL     1      18.144  18.648  -2.897  1.00  0.00     0.043 C 
ENDBRANCH  17  18
ENDBRANCH  16  17
ENDBRANCH  14  16
ENDBRANCH  13  14
ENDBRANCH  12  13
ENDBRANCH  11  12
ENDBRANCH   1  11
BRANCH   9  22
HETATM   22  O2  UNL     1      23.313  20.394   1.487  1.00  0.00    -0.355 OA
ATOM     23  H2  UNL     1      22.952  20.993   0.844  1.00  0.00     0.218 HD
ENDBRANCH   9  22
BRANCH   8  24
HETATM   24  O1  UNL     1      25.290  21.402   3.495  1.00  0.00    -0.344 OA
ATOM     25  H1  UNL     1      25.669  21.545   2.635  1.00  0.00     0.219 HD
ENDBRANCH   8  24
TORSDOF 9
ENDMDL
MODEL 2
REMARK VINA RESULT: -7.312952077      1.125      1.617
REMARK  9 active torsions:
REMARK  status: ('A' for Active; 'I' for Inactive)
REMARK    1  A    between atoms: C4_4  and  C5_5 
REMARK    2  A    between atoms: C5_5  and  C6_6 
REMARK    3  A    between atoms: C6_6  and  C7_7 
REMARK    4  A    between atoms: C7_7  and  C9_9 
REMARK    5  A    between atoms: C9_9  and  C10_10 
REMARK    6  A    between atoms: C10_10  and  C11_11 
REMARK    7  A    between atoms: C11_11  and  C12_12 
REMARK    8  A    between atoms: C15_19  and  O1_20 
REMARK    9  A    between atoms: C16_22  and  O2_23 
ROOT
HETATM    1  C12 UNL     1      21.179  19.672   4.247  1.00  0.00     0.123 A 
HETATM    2  N1  UNL     1      21.740  19.897   3.013  1.00  0.00    -0.339 N 
ATOM      3  H1  UNL     1      21.232  19.733   2.145  1.00  0.00     0.167 HD
HETATM    4  C13 UNL     1      23.076  20.372   3.033  1.00  0.00     0.105 A 
HETATM    5  C14 UNL     1      23.609  20.539   4.291  1.00  0.00     0.108 A 
HETATM    6  N2  UNL     1      24.858  20.988   4.185  1.00  0.00    -0.327 N 
ATOM      7  H2  UNL     1      25.472  21.193   4.973  1.00  0.00     0.168 HD
HETATM    8  C15 UNL     1      25.193  21.131   2.886  1.00  0.00     0.177 A 
HETATM    9  C16 UNL     1      24.085  20.751   2.144  1.00  0.00     0.146 A 
HETATM   10  S1  UNL     1      22.363  20.067   5.475  1.00  0.00    -0.043 SA
ENDROOT
BRANCH   1  11
HETATM   11  C11 UNL     1      20.001  19.245   4.432  1.00  0.00    -0.091 C 
BRANCH  11  12
HETATM   12  C10 UNL     1      18.847  18.650   4.496  1.00  0.00     0.059 C 
BRANCH  12  13
HETATM   13  C9  UNL     1      18.383  18.183   3.232  1.00  0.00     0.015 C 
BRANCH  13  14
HETATM   14  C7  UNL     1      17.097  18.163   2.963  1.00  0.00    -0.054 C 
HETATM   15  C8  UNL     1      16.173  18.543   4.034  1.00  0.00     0.049 C 
BRANCH  14  16
HETATM   16  C6  UNL     1      16.624  17.788   1.646  1.00  0.00     0.062 C 
BRANCH  16  17
HETATM   17  C5  UNL     1      17.107  18.021   0.502  1.00  0.00    -0.127 C 
BRANCH  17  18
HETATM   18  C4  UNL     1      17.628  18.273  -0.736  1.00  0.00     0.057 C 
HETATM   19  C2  UNL     1      17.764  17.527  -1.825  1.00  0.00    -0.080 C 
HETATM   20  C1  UNL     1      18.403  18.155  -3.042  1.00  0.00     0.043 C 
HETATM   21  C3  UNL     1      17.352  16.132  -1.910  1.00  0.00     0.043 C 
ENDBRANCH  17  18
ENDBRANCH  16  17
ENDBRANCH  14  16
ENDBRANCH  13  14
ENDBRANCH  12  13
ENDBRANCH  11  12
ENDBRANCH   1  11
BRANCH   9  22
HETATM   22  O2  UNL     1      24.038  20.764   0.771  1.00  0.00    -0.355 OA
ATOM     23  H2  UNL     1      24.745  20.951   0.165  1.00  0.00     0.218 HD
ENDBRANCH   9  22
BRANCH   8  24
HETATM   24  O1  UNL     1      26.420  21.577   2.390  1.00  0.00    -0.344 OA
ATOM     25  H1  UNL     1      27.280  21.274   2.655  1.00  0.00     0.219 HD
ENDBRANCH   8  24
TORSDOF 9
ENDMDL
MODEL 3
REMARK VINA RESULT: -7.116883361      3.661      5.853
REMARK  9 active torsions:
REMARK  status: ('A' for Active; 'I' for Inactive)
REMARK    1  A    between atoms: C4_4  and  C5_5 
REMARK    2  A    between atoms: C5_5  and  C6_6 
REMARK    3  A    between atoms: C6_6  and  C7_7 
REMARK    4  A    between atoms: C7_7  and  C9_9 
REMARK    5  A    between atoms: C9_9  and  C10_10 
REMARK    6  A    between atoms: C10_10  and  C11_11 
REMARK    7  A    between atoms: C11_11  and  C12_12 
REMARK    8  A    between atoms: C15_19  and  O1_20 
REMARK    9  A    between atoms: C16_22  and  O2_23 
ROOT
HETATM    1  C12 UNL     1      23.731  21.318   1.735  1.00  0.00     0.123 A 
HETATM    2  N1  UNL     1      23.221  21.857   0.579  1.00  0.00    -0.339 N 
ATOM      3  H1  UNL     1      22.274  21.661   0.257  1.00  0.00     0.167 HD
HETATM    4  C13 UNL     1      24.105  22.703  -0.135  1.00  0.00     0.105 A 
HETATM    5  C14 UNL     1      25.345  22.860   0.442  1.00  0.00     0.108 A 
HETATM    6  N2  UNL     1      26.084  23.672  -0.311  1.00  0.00    -0.327 N 
ATOM      7  H2  UNL     1      27.043  23.950  -0.102  1.00  0.00     0.168 HD
HETATM    8  C15 UNL     1      25.382  24.075  -1.390  1.00  0.00     0.177 A 
HETATM    9  C16 UNL     1      24.133  23.478  -1.298  1.00  0.00     0.146 A 
HETATM   10  S1  UNL     1      25.374  21.889   1.936  1.00  0.00    -0.043 SA
ENDROOT
BRANCH   1  11
HETATM   11  C11 UNL     1      23.095  20.537   2.504  1.00  0.00    -0.091 C 
BRANCH  11  12
HETATM   12  C10 UNL     1      22.473  19.882   3.439  1.00  0.00     0.059 C 
BRANCH  12  13
HETATM   13  C9  UNL     1      21.514  20.671   4.138  1.00  0.00     0.015 C 
BRANCH  13  14
HETATM   14  C7  UNL     1      21.005  20.247   5.273  1.00  0.00    -0.054 C 
HETATM   15  C8  UNL     1      21.440  20.912   6.503  1.00  0.00     0.049 C 
BRANCH  14  16
HETATM   16  C6  UNL     1      20.041  19.166   5.290  1.00  0.00     0.062 C 
BRANCH  16  17
HETATM   17  C5  UNL     1      19.262  18.744   4.389  1.00  0.00    -0.127 C 
BRANCH  17  18
HETATM   18  C4  UNL     1      18.419  18.287   3.415  1.00  0.00     0.057 C 
HETATM   19  C2  UNL     1      17.096  18.244   3.316  1.00  0.00    -0.080 C 
HETATM   20  C1  UNL     1      16.495  17.655   2.061  1.00  0.00     0.043 C 
HETATM   21  C3  UNL     1      16.189  18.712   4.356  1.00  0.00     0.043 C 
ENDBRANCH  17  18
ENDBRANCH  16  17
ENDBRANCH  14  16
ENDBRANCH  13  14
ENDBRANCH  12  13
ENDBRANCH  11  12
ENDBRANCH   1  11
BRANCH   9  22
HETATM   22  O2  UNL     1      23.127  23.652  -2.218  1.00  0.00    -0.355 OA
ATOM     23  H2  UNL     1      22.497  24.361  -2.264  1.00  0.00     0.218 HD
ENDBRANCH   9  22
BRANCH   8  24
HETATM   24  O1  UNL     1      25.829  24.927  -2.401  1.00  0.00    -0.344 OA
ATOM     25  H1  UNL     1      25.305  25.556  -2.883  1.00  0.00     0.219 HD
ENDBRANCH   8  24
TORSDOF 9
ENDMDL
MODEL 4
REMARK VINA RESULT: -7.028151892      2.284      2.679
REMARK  9 active torsions:
REMARK  status: ('A' for Active; 'I' for Inactive)
REMARK    1  A    between atoms: C4_4  and  C5_5 
REMARK    2  A    between atoms: C5_5  and  C6_6 
REMARK    3  A    between atoms: C6_6  and  C7_7 
REMARK    4  A    between atoms: C7_7  and  C9_9 
REMARK    5  A    between atoms: C9_9  and  C10_10 
REMARK    6  A    between atoms: C10_10  and  C11_11 
REMARK    7  A    between atoms: C11_11  and  C12_12 
REMARK    8  A    between atoms: C15_19  and  O1_20 
REMARK    9  A    between atoms: C16_22  and  O2_23 
ROOT
HETATM    1  C12 UNL     1      20.142  19.412   4.730  1.00  0.00     0.123 A 
HETATM    2  N1  UNL     1      20.300  19.522   6.089  1.00  0.00    -0.339 N 
ATOM      3  H1  UNL     1      19.533  19.365   6.743  1.00  0.00     0.167 HD
HETATM    4  C13 UNL     1      21.605  19.868   6.521  1.00  0.00     0.105 A 
HETATM    5  C14 UNL     1      22.520  20.040   5.507  1.00  0.00     0.108 A 
HETATM    6  N2  UNL     1      23.703  20.359   6.029  1.00  0.00    -0.327 N 
ATOM      7  H2  UNL     1      24.549  20.539   5.489  1.00  0.00     0.168 HD
HETATM    8  C15 UNL     1      23.620  20.410   7.375  1.00  0.00     0.177 A 
HETATM    9  C16 UNL     1      22.309  20.103   7.705  1.00  0.00     0.146 A 
HETATM   10  S1  UNL     1      21.678  19.756   3.963  1.00  0.00    -0.043 SA
ENDROOT
BRANCH   1  11
HETATM   11  C11 UNL     1      19.052  19.115   4.155  1.00  0.00    -0.091 C 
BRANCH  11  12
HETATM   12  C10 UNL     1      17.964  18.620   3.645  1.00  0.00     0.059 C 
BRANCH  12  13
HETATM   13  C9  UNL     1      18.181  17.928   2.419  1.00  0.00     0.015 C 
BRANCH  13  14
HETATM   14  C7  UNL     1      17.216  17.831   1.532  1.00  0.00    -0.054 C 
HETATM   15  C8  UNL     1      15.930  17.295   1.983  1.00  0.00     0.049 C 
BRANCH  14  16
HETATM   16  C6  UNL     1      17.428  18.252   0.162  1.00  0.00     0.062 C 
BRANCH  16  17
HETATM   17  C5  UNL     1      17.781  17.593  -0.856  1.00  0.00    -0.127 C 
BRANCH  17  18
HETATM   18  C4  UNL     1      18.164  16.880  -1.957  1.00  0.00     0.057 C 
HETATM   19  C2  UNL     1      18.431  17.232  -3.210  1.00  0.00    -0.080 C 
HETATM   20  C1  UNL     1      18.836  16.148  -4.182  1.00  0.00     0.043 C 
HETATM   21  C3  UNL     1      18.336  18.598  -3.707  1.00  0.00     0.043 C 
ENDBRANCH  17  18
ENDBRANCH  16  17
ENDBRANCH  14  16
ENDBRANCH  13  14
ENDBRANCH  12  13
ENDBRANCH  11  12
ENDBRANCH   1  11
BRANCH   9  22
HETATM   22  O2  UNL     1      21.832  20.049   8.994  1.00  0.00    -0.355 OA
ATOM     23  H2  UNL     1      21.433  19.309   9.436  1.00  0.00     0.218 HD
ENDBRANCH   9  22
BRANCH   8  24
HETATM   24  O1  UNL     1      24.656  20.715   8.259  1.00  0.00    -0.344 OA
ATOM     25  H1  UNL     1      24.877  20.244   9.055  1.00  0.00     0.219 HD
ENDBRANCH   8  24
TORSDOF 9
ENDMDL
MODEL 5
REMARK VINA RESULT: -6.895024413      2.498      3.061
REMARK  9 active torsions:
REMARK  status: ('A' for Active; 'I' for Inactive)
REMARK    1  A    between atoms: C4_4  and  C5_5 
REMARK    2  A    between atoms: C5_5  and  C6_6 
REMARK    3  A    between atoms: C6_6  and  C7_7 
REMARK    4  A    between atoms: C7_7  and  C9_9 
REMARK    5  A    between atoms: C9_9  and  C10_10 
REMARK    6  A    between atoms: C10_10  and  C11_11 
REMARK    7  A    between atoms: C11_11  and  C12_12 
REMARK    8  A    between atoms: C15_19  and  O1_20 
REMARK    9  A    between atoms: C16_22  and  O2_23 
ROOT
HETATM    1  C12 UNL     1      21.093  19.680   4.984  1.00  0.00     0.123 A 
HETATM    2  N1  UNL     1      21.343  19.418   6.309  1.00  0.00    -0.339 N 
ATOM      3  H1  UNL     1      20.621  19.076   6.943  1.00  0.00     0.167 HD
HETATM    4  C13 UNL     1      22.674  19.656   6.733  1.00  0.00     0.105 A 
HETATM    5  C14 UNL     1      23.519  20.113   5.747  1.00  0.00     0.108 A 
HETATM    6  N2  UNL     1      24.734  20.298   6.257  1.00  0.00    -0.327 N 
ATOM      7  H2  UNL     1      25.543  20.633   5.733  1.00  0.00     0.168 HD
HETATM    8  C15 UNL     1      24.743  19.980   7.568  1.00  0.00     0.177 A 
HETATM    9  C16 UNL     1      23.457  19.572   7.887  1.00  0.00     0.146 A 
HETATM   10  S1  UNL     1      22.574  20.246   4.242  1.00  0.00    -0.043 SA
ENDROOT
BRANCH   1  11
HETATM   11  C11 UNL     1      19.966  19.532   4.424  1.00  0.00    -0.091 C 
BRANCH  11  12
HETATM   12  C10 UNL     1      18.736  19.496   4.005  1.00  0.00     0.059 C 
BRANCH  12  13
HETATM   13  C9  UNL     1      18.438  18.336   3.233  1.00  0.00     0.015 C 
BRANCH  13  14
HETATM   14  C7  UNL     1      17.192  18.039   2.935  1.00  0.00    -0.054 C 
HETATM   15  C8  UNL     1      16.180  18.236   3.975  1.00  0.00     0.049 C 
BRANCH  14  16
HETATM   16  C6  UNL     1      16.846  17.546   1.617  1.00  0.00     0.062 C 
BRANCH  16  17
HETATM   17  C5  UNL     1      17.236  17.913   0.473  1.00  0.00    -0.127 C 
BRANCH  17  18
HETATM   18  C4  UNL     1      17.657  18.310  -0.765  1.00  0.00     0.057 C 
HETATM   19  C2  UNL     1      17.788  17.669  -1.920  1.00  0.00    -0.080 C 
HETATM   20  C1  UNL     1      18.295  18.447  -3.112  1.00  0.00     0.043 C 
HETATM   21  C3  UNL     1      17.490  16.254  -2.102  1.00  0.00     0.043 C 
ENDBRANCH  17  18
ENDBRANCH  16  17
ENDBRANCH  14  16
ENDBRANCH  13  14
ENDBRANCH  12  13
ENDBRANCH  11  12
ENDBRANCH   1  11
BRANCH   9  22
HETATM   22  O2  UNL     1      23.068  19.161   9.140  1.00  0.00    -0.355 OA
ATOM     23  H2  UNL     1      23.578  18.676   9.778  1.00  0.00     0.218 HD
ENDBRANCH   9  22
BRANCH   8  24
HETATM   24  O1  UNL     1      25.837  20.050   8.433  1.00  0.00    -0.344 OA
ATOM     25  H1  UNL     1      25.806  20.149   9.377  1.00  0.00     0.219 HD
ENDBRANCH   8  24
TORSDOF 9
ENDMDL
