MODEL 1
REMARK VINA RESULT: -7.017391604      0.000      0.000
REMARK  7 active torsions:
REMARK  status: ('A' for Active; 'I' for Inactive)
REMARK    1  A    between atoms: C2_2  and  C3_3 
REMARK    2  A    between atoms: C3_3  and  C4_4 
REMARK    3  A    between atoms: C4_4  and  C5_5 
REMARK    4  A    between atoms: C6_6  and  O1_7 
REMARK    5  A    between atoms: C7_9  and  N1_10 
REMARK    6  A    between atoms: N2_12  and  C8_14 
REMARK    7  A    between atoms: C13_22  and  O2_23 
ROOT
HETATM    1  C5  UNL     1      22.742  20.625   5.225  1.00  0.00    -0.009 A 
HETATM    2  C6  UNL     1      22.899  21.145   3.945  1.00  0.00     0.101 A 
HETATM    3  C7  UNL     1      24.093  21.162   3.253  1.00  0.00     0.088 A 
HETATM    4  C10 UNL     1      25.188  20.635   3.864  1.00  0.00    -0.016 A 
HETATM    5  C11 UNL     1      26.495  20.633   3.152  1.00  0.00     0.052 C 
HETATM    6  C12 UNL     1      25.069  20.113   5.133  1.00  0.00     0.036 A 
HETATM    7  C13 UNL     1      26.026  19.542   5.927  1.00  0.00     0.152 A 
HETATM    8  N4  UNL     1      25.438  19.196   7.051  1.00  0.00    -0.340 N 
ATOM      9  H4  UNL     1      25.924  18.745   7.827  1.00  0.00     0.168 HD
HETATM   10  C14 UNL     1      24.114  19.501   7.070  1.00  0.00     0.019 A 
HETATM   11  C15 UNL     1      23.180  19.252   8.160  1.00  0.00     0.069 C 
HETATM   12  C16 UNL     1      23.878  20.089   5.842  1.00  0.00     0.010 A 
ENDROOT
BRANCH   3  13
HETATM   13  N1  UNL     1      24.230  21.698   1.943  1.00  0.00    -0.296 N 
HETATM   14  N2  UNL     1      23.412  21.561   1.005  1.00  0.00    -0.289 N 
ATOM     15  H2  UNL     1      22.551  21.028   1.124  1.00  0.00     0.188 HD
ATOM     16  H1  UNL     1      25.070  22.244   1.751  1.00  0.00     0.187 HD
BRANCH  14  17
HETATM   17  C8  UNL     1      23.739  22.185  -0.244  1.00  0.00     0.085 C 
HETATM   18  C9  UNL     1      23.328  23.586  -0.522  1.00  0.00     0.090 C 
HETATM   19  N3  UNL     1      24.393  21.568  -1.172  1.00  0.00    -0.388 N 
ATOM     20  H32 UNL     1      24.674  20.606  -0.981  1.00  0.00     0.157 HD
ATOM     21  H31 UNL     1      24.625  22.012  -2.060  1.00  0.00     0.157 HD
ENDBRANCH  14  17
ENDBRANCH   3  13
BRANCH   2  22
HETATM   22  O1  UNL     1      21.804  21.692   3.296  1.00  0.00    -0.358 OA
ATOM     23  H1  UNL     1      21.905  22.510   2.823  1.00  0.00     0.217 HD
ENDBRANCH   2  22
BRANCH   1  24
HETATM   24  C4  UNL     1      21.469  20.582   5.948  1.00  0.00     0.042 C 
BRANCH  24  25
HETATM   25  C3  UNL     1      20.601  19.398   5.753  1.00  0.00     0.004 C 
BRANCH  25  26
HETATM   26  C2  UNL     1      19.921  19.227   4.449  1.00  0.00    -0.004 C 
HETATM   27  C1  UNL     1      18.596  18.488   4.759  1.00  0.00     0.005 C 
ENDBRANCH  25  26
ENDBRANCH  24  25
ENDBRANCH   1  24
BRANCH   7  28
HETATM   28  O2  UNL     1      27.386  19.341   5.648  1.00  0.00    -0.345 OA
ATOM     29  H2  UNL     1      28.127  19.410   6.238  1.00  0.00     0.219 HD
ENDBRANCH   7  28
TORSDOF 7
ENDMDL
MODEL 2
REMARK VINA RESULT: -6.977430490      1.433      2.134
REMARK  7 active torsions:
REMARK  status: ('A' for Active; 'I' for Inactive)
REMARK    1  A    between atoms: C2_2  and  C3_3 
REMARK    2  A    between atoms: C3_3  and  C4_4 
REMARK    3  A    between atoms: C4_4  and  C5_5 
REMARK    4  A    between atoms: C6_6  and  O1_7 
REMARK    5  A    between atoms: C7_9  and  N1_10 
REMARK    6  A    between atoms: N2_12  and  C8_14 
REMARK    7  A    between atoms: C13_22  and  O2_23 
ROOT
HETATM    1  C5  UNL     1      22.558  20.322   5.601  1.00  0.00    -0.009 A 
HETATM    2  C6  UNL     1      22.341  20.947   4.378  1.00  0.00     0.101 A 
HETATM    3  C7  UNL     1      23.330  21.211   3.453  1.00  0.00     0.088 A 
HETATM    4  C10 UNL     1      24.602  20.837   3.759  1.00  0.00    -0.016 A 
HETATM    5  C11 UNL     1      25.699  21.104   2.789  1.00  0.00     0.052 C 
HETATM    6  C12 UNL     1      24.853  20.217   4.964  1.00  0.00     0.036 A 
HETATM    7  C13 UNL     1      26.040  19.763   5.472  1.00  0.00     0.152 A 
HETATM    8  N4  UNL     1      25.781  19.247   6.653  1.00  0.00    -0.340 N 
ATOM      9  H4  UNL     1      26.492  18.834   7.256  1.00  0.00     0.168 HD
HETATM   10  C14 UNL     1      24.465  19.323   6.985  1.00  0.00     0.019 A 
HETATM   11  C15 UNL     1      23.851  18.847   8.218  1.00  0.00     0.069 C 
HETATM   12  C16 UNL     1      23.871  19.944   5.903  1.00  0.00     0.010 A 
ENDROOT
BRANCH   3  13
HETATM   13  N1  UNL     1      23.085  21.851   2.207  1.00  0.00    -0.296 N 
HETATM   14  N2  UNL     1      22.814  23.062   2.045  1.00  0.00    -0.289 N 
ATOM     15  H2  UNL     1      22.748  23.702   2.836  1.00  0.00     0.188 HD
ATOM     16  H1  UNL     1      23.134  21.270   1.370  1.00  0.00     0.187 HD
BRANCH  14  17
HETATM   17  C8  UNL     1      22.601  23.511   0.700  1.00  0.00     0.085 C 
HETATM   18  C9  UNL     1      22.061  24.869   0.430  1.00  0.00     0.090 C 
HETATM   19  N3  UNL     1      22.863  22.768  -0.324  1.00  0.00    -0.388 N 
ATOM     20  H32 UNL     1      23.234  21.836  -0.139  1.00  0.00     0.157 HD
ATOM     21  H31 UNL     1      22.712  23.087  -1.281  1.00  0.00     0.157 HD
ENDBRANCH  14  17
ENDBRANCH   3  13
BRANCH   2  22
HETATM   22  O1  UNL     1      21.058  21.343   4.038  1.00  0.00    -0.358 OA
ATOM     23  H1  UNL     1      20.827  21.429   3.121  1.00  0.00     0.217 HD
ENDBRANCH   2  22
BRANCH   1  24
HETATM   24  C4  UNL     1      21.503  20.015   6.571  1.00  0.00     0.042 C 
BRANCH  24  25
HETATM   25  C3  UNL     1      20.954  21.132   7.373  1.00  0.00     0.004 C 
BRANCH  25  26
HETATM   26  C2  UNL     1      21.816  21.751   8.406  1.00  0.00    -0.004 C 
HETATM   27  C1  UNL     1      21.381  23.234   8.482  1.00  0.00     0.005 C 
ENDBRANCH  25  26
ENDBRANCH  24  25
ENDBRANCH   1  24
BRANCH   7  28
HETATM   28  O2  UNL     1      27.316  19.814   4.890  1.00  0.00    -0.345 OA
ATOM     29  H2  UNL     1      27.621  19.390   4.096  1.00  0.00     0.219 HD
ENDBRANCH   7  28
TORSDOF 7
ENDMDL
MODEL 3
REMARK VINA RESULT: -6.532008281      2.679      5.024
REMARK  7 active torsions:
REMARK  status: ('A' for Active; 'I' for Inactive)
REMARK    1  A    between atoms: C2_2  and  C3_3 
REMARK    2  A    between atoms: C3_3  and  C4_4 
REMARK    3  A    between atoms: C4_4  and  C5_5 
REMARK    4  A    between atoms: C6_6  and  O1_7 
REMARK    5  A    between atoms: C7_9  and  N1_10 
REMARK    6  A    between atoms: N2_12  and  C8_14 
REMARK    7  A    between atoms: C13_22  and  O2_23 
ROOT
HETATM    1  C5  UNL     1      24.056  20.302   3.658  1.00  0.00    -0.009 A 
HETATM    2  C6  UNL     1      22.707  20.103   3.390  1.00  0.00     0.101 A 
HETATM    3  C7  UNL     1      21.745  19.891   4.356  1.00  0.00     0.088 A 
HETATM    4  C10 UNL     1      22.145  19.874   5.657  1.00  0.00    -0.016 A 
HETATM    5  C11 UNL     1      21.139  19.647   6.730  1.00  0.00     0.052 C 
HETATM    6  C12 UNL     1      23.475  20.065   5.958  1.00  0.00     0.036 A 
HETATM    7  C13 UNL     1      24.091  20.084   7.180  1.00  0.00     0.152 A 
HETATM    8  N4  UNL     1      25.370  20.299   6.962  1.00  0.00    -0.340 N 
ATOM      9  H4  UNL     1      26.066  20.360   7.706  1.00  0.00     0.168 HD
HETATM   10  C14 UNL     1      25.667  20.430   5.643  1.00  0.00     0.019 A 
HETATM   11  C15 UNL     1      26.984  20.671   5.067  1.00  0.00     0.069 C 
HETATM   12  C16 UNL     1      24.454  20.279   4.999  1.00  0.00     0.010 A 
ENDROOT
BRANCH   3  13
HETATM   13  N1  UNL     1      20.368  19.692   4.060  1.00  0.00    -0.296 N 
HETATM   14  N2  UNL     1      19.880  18.693   3.484  1.00  0.00    -0.289 N 
ATOM     15  H2  UNL     1      20.466  17.918   3.175  1.00  0.00     0.188 HD
ATOM     16  H1  UNL     1      19.722  20.428   4.341  1.00  0.00     0.187 HD
BRANCH  14  17
HETATM   17  C8  UNL     1      18.461  18.685   3.280  1.00  0.00     0.085 C 
HETATM   18  C9  UNL     1      17.846  17.792   2.263  1.00  0.00     0.090 C 
HETATM   19  N3  UNL     1      17.663  19.443   3.957  1.00  0.00    -0.388 N 
ATOM     20  H32 UNL     1      18.085  20.056   4.654  1.00  0.00     0.157 HD
ATOM     21  H31 UNL     1      16.653  19.437   3.811  1.00  0.00     0.157 HD
ENDBRANCH  14  17
ENDBRANCH   3  13
BRANCH   2  22
HETATM   22  O1  UNL     1      22.268  20.112   2.076  1.00  0.00    -0.358 OA
ATOM     23  H1  UNL     1      21.882  19.325   1.710  1.00  0.00     0.217 HD
ENDBRANCH   2  22
BRANCH   1  24
HETATM   24  C4  UNL     1      25.073  20.556   2.634  1.00  0.00     0.042 C 
BRANCH  24  25
HETATM   25  C3  UNL     1      25.304  21.959   2.221  1.00  0.00     0.004 C 
BRANCH  25  26
HETATM   26  C2  UNL     1      24.452  22.532   1.154  1.00  0.00    -0.004 C 
HETATM   27  C1  UNL     1      23.513  23.539   1.862  1.00  0.00     0.005 C 
ENDBRANCH  25  26
ENDBRANCH  24  25
ENDBRANCH   1  24
BRANCH   7  28
HETATM   28  O2  UNL     1      23.519  19.913   8.449  1.00  0.00    -0.345 OA
ATOM     29  H2  UNL     1      23.677  20.413   9.241  1.00  0.00     0.219 HD
ENDBRANCH   7  28
TORSDOF 7
ENDMDL
MODEL 4
REMARK VINA RESULT: -6.508776137      2.287      5.433
REMARK  7 active torsions:
REMARK  status: ('A' for Active; 'I' for Inactive)
REMARK    1  A    between atoms: C2_2  and  C3_3 
REMARK    2  A    between atoms: C3_3  and  C4_4 
REMARK    3  A    between atoms: C4_4  and  C5_5 
REMARK    4  A    between atoms: C6_6  and  O1_7 
REMARK    5  A    between atoms: C7_9  and  N1_10 
REMARK    6  A    between atoms: N2_12  and  C8_14 
REMARK    7  A    between atoms: C13_22  and  O2_23 
ROOT
HETATM    1  C5  UNL     1      25.251  21.366   1.950  1.00  0.00    -0.009 A 
HETATM    2  C6  UNL     1      23.954  20.980   2.268  1.00  0.00     0.101 A 
HETATM    3  C7  UNL     1      23.564  20.506   3.504  1.00  0.00     0.088 A 
HETATM    4  C10 UNL     1      24.513  20.409   4.474  1.00  0.00    -0.016 A 
HETATM    5  C11 UNL     1      24.134  19.903   5.822  1.00  0.00     0.052 C 
HETATM    6  C12 UNL     1      25.809  20.781   4.193  1.00  0.00     0.036 A 
HETATM    7  C13 UNL     1      26.910  20.765   5.006  1.00  0.00     0.152 A 
HETATM    8  N4  UNL     1      27.921  21.209   4.294  1.00  0.00    -0.340 N 
ATOM      9  H4  UNL     1      28.870  21.300   4.657  1.00  0.00     0.168 HD
HETATM   10  C14 UNL     1      27.569  21.533   3.022  1.00  0.00     0.019 A 
HETATM   11  C15 UNL     1      28.449  22.050   1.981  1.00  0.00     0.069 C 
HETATM   12  C16 UNL     1      26.217  21.259   2.957  1.00  0.00     0.010 A 
ENDROOT
BRANCH   3  13
HETATM   13  N1  UNL     1      22.230  20.118   3.808  1.00  0.00    -0.296 N 
HETATM   14  N2  UNL     1      21.559  19.258   3.195  1.00  0.00    -0.289 N 
ATOM     15  H2  UNL     1      21.944  18.754   2.396  1.00  0.00     0.188 HD
ATOM     16  H1  UNL     1      21.780  20.582   4.597  1.00  0.00     0.187 HD
BRANCH  14  17
HETATM   17  C8  UNL     1      20.227  19.012   3.662  1.00  0.00     0.085 C 
HETATM   18  C9  UNL     1      19.817  19.415   5.033  1.00  0.00     0.090 C 
HETATM   19  N3  UNL     1      19.334  18.436   2.928  1.00  0.00    -0.388 N 
ATOM     20  H32 UNL     1      19.614  18.159   1.987  1.00  0.00     0.157 HD
ATOM     21  H31 UNL     1      18.385  18.261   3.261  1.00  0.00     0.157 HD
ENDBRANCH  14  17
ENDBRANCH   3  13
BRANCH   2  22
HETATM   22  O1  UNL     1      22.965  21.063   1.301  1.00  0.00    -0.358 OA
ATOM     23  H1  UNL     1      22.065  20.877   1.540  1.00  0.00     0.217 HD
ENDBRANCH   2  22
BRANCH   1  24
HETATM   24  C4  UNL     1      25.659  21.896   0.647  1.00  0.00     0.042 C 
BRANCH  24  25
HETATM   25  C3  UNL     1      25.443  23.338   0.387  1.00  0.00     0.004 C 
BRANCH  25  26
HETATM   26  C2  UNL     1      25.231  23.781  -1.010  1.00  0.00    -0.004 C 
HETATM   27  C1  UNL     1      24.485  22.619  -1.710  1.00  0.00     0.005 C 
ENDBRANCH  25  26
ENDBRANCH  24  25
ENDBRANCH   1  24
BRANCH   7  28
HETATM   28  O2  UNL     1      26.999  20.361   6.347  1.00  0.00    -0.345 OA
ATOM     29  H2  UNL     1      27.535  20.728   7.040  1.00  0.00     0.219 HD
ENDBRANCH   7  28
TORSDOF 7
ENDMDL
MODEL 5
REMARK VINA RESULT: -6.497137660      1.865      2.588
REMARK  7 active torsions:
REMARK  status: ('A' for Active; 'I' for Inactive)
REMARK    1  A    between atoms: C2_2  and  C3_3 
REMARK    2  A    between atoms: C3_3  and  C4_4 
REMARK    3  A    between atoms: C4_4  and  C5_5 
REMARK    4  A    between atoms: C6_6  and  O1_7 
REMARK    5  A    between atoms: C7_9  and  N1_10 
REMARK    6  A    between atoms: N2_12  and  C8_14 
REMARK    7  A    between atoms: C13_22  and  O2_23 
ROOT
HETATM    1  C5  UNL     1      23.750  20.819   4.195  1.00  0.00    -0.009 A 
HETATM    2  C6  UNL     1      23.148  21.477   3.129  1.00  0.00     0.101 A 
HETATM    3  C7  UNL     1      23.791  21.802   1.952  1.00  0.00     0.088 A 
HETATM    4  C10 UNL     1      25.102  21.456   1.829  1.00  0.00    -0.016 A 
HETATM    5  C11 UNL     1      25.833  21.789   0.576  1.00  0.00     0.052 C 
HETATM    6  C12 UNL     1      25.730  20.805   2.868  1.00  0.00     0.036 A 
HETATM    7  C13 UNL     1      27.025  20.371   2.959  1.00  0.00     0.152 A 
HETATM    8  N4  UNL     1      27.159  19.809   4.140  1.00  0.00    -0.340 N 
ATOM      9  H4  UNL     1      28.032  19.398   4.473  1.00  0.00     0.168 HD
HETATM   10  C14 UNL     1      26.013  19.833   4.871  1.00  0.00     0.019 A 
HETATM   11  C15 UNL     1      25.826  19.299   6.213  1.00  0.00     0.069 C 
HETATM   12  C16 UNL     1      25.098  20.472   4.055  1.00  0.00     0.010 A 
ENDROOT
BRANCH   3  13
HETATM   13  N1  UNL     1      23.155  22.475   0.873  1.00  0.00    -0.296 N 
HETATM   14  N2  UNL     1      22.520  23.550   0.951  1.00  0.00    -0.289 N 
ATOM     15  H2  UNL     1      22.410  24.040   1.840  1.00  0.00     0.188 HD
ATOM     16  H1  UNL     1      23.223  22.042  -0.048  1.00  0.00     0.187 HD
BRANCH  14  17
HETATM   17  C8  UNL     1      21.952  24.065  -0.260  1.00  0.00     0.085 C 
HETATM   18  C9  UNL     1      22.049  25.512  -0.588  1.00  0.00     0.090 C 
HETATM   19  N3  UNL     1      21.338  23.309  -1.109  1.00  0.00    -0.388 N 
ATOM     20  H32 UNL     1      21.272  22.316  -0.884  1.00  0.00     0.157 HD
ATOM     21  H31 UNL     1      20.935  23.675  -1.972  1.00  0.00     0.157 HD
ENDBRANCH  14  17
ENDBRANCH   3  13
BRANCH   2  22
HETATM   22  O1  UNL     1      21.816  21.846   3.224  1.00  0.00    -0.358 OA
ATOM     23  H1  UNL     1      21.596  22.714   3.539  1.00  0.00     0.217 HD
ENDBRANCH   2  22
BRANCH   1  24
HETATM   24  C4  UNL     1      23.059  20.449   5.433  1.00  0.00     0.042 C 
BRANCH  24  25
HETATM   25  C3  UNL     1      21.762  19.743   5.318  1.00  0.00     0.004 C 
BRANCH  25  26
HETATM   26  C2  UNL     1      20.674  20.106   6.254  1.00  0.00    -0.004 C 
HETATM   27  C1  UNL     1      21.258  21.211   7.168  1.00  0.00     0.005 C 
ENDBRANCH  25  26
ENDBRANCH  24  25
ENDBRANCH   1  24
BRANCH   7  28
HETATM   28  O2  UNL     1      28.052  20.481   2.010  1.00  0.00    -0.345 OA
ATOM     29  H2  UNL     1      28.423  19.800   1.460  1.00  0.00     0.219 HD
ENDBRANCH   7  28
TORSDOF 7
ENDMDL
