MODEL 1
REMARK VINA RESULT: -8.016691576      0.000      0.000
REMARK  3 active torsions:
REMARK  status: ('A' for Active; 'I' for Inactive)
REMARK    1  A    between atoms: N5_21  and  C11_22 
REMARK    2  A    between atoms: C11_22  and  C12_23 
REMARK       I    between atoms: C12_23  and  N6_25 
REMARK    3  A    between atoms: N6_25  and  C13_27 
ROOT
HETATM    1  C1  UNL     1     -13.917  12.945  17.993  1.00  0.00     0.310 C 
HETATM    2  N1  UNL     1     -14.742  13.865  18.713  1.00  0.00     0.088 N 
HETATM    3  C2  UNL     1     -15.609  14.636  17.859  1.00  0.00     0.274 C 
HETATM    4  C3  UNL     1     -17.012  14.641  18.395  1.00  0.00     0.057 C 
HETATM    5  C4  UNL     1     -17.902  13.828  17.485  1.00  0.00     0.234 C 
HETATM    6  N2  UNL     1     -19.210  13.628  18.115  1.00  0.00    -0.073 N 
ATOM      7  H21 UNL     1     -19.939  13.489  17.416  1.00  0.00     0.277 HD
ATOM      8  H22 UNL     1     -19.552  14.491  18.536  1.00  0.00     0.277 HD
HETATM    9  C5  UNL     1     -19.194  12.553  19.071  1.00  0.00     0.259 C 
HETATM   10  C6  UNL     1     -20.002  12.847  20.304  1.00  0.00     0.259 C 
HETATM   11  N3  UNL     1     -19.850  14.253  20.628  1.00  0.00    -0.072 N 
ATOM     12  H31 UNL     1     -20.202  14.840  19.872  1.00  0.00     0.277 HD
ATOM     13  H32 UNL     1     -18.867  14.525  20.608  1.00  0.00     0.277 HD
HETATM   14  C7  UNL     1     -20.452  14.613  21.874  1.00  0.00     0.259 C 
HETATM   15  C8  UNL     1     -19.585  14.393  23.079  1.00  0.00     0.259 C 
HETATM   16  N4  UNL     1     -18.303  13.812  22.793  1.00  0.00    -0.072 N 
ATOM     17  H41 UNL     1     -18.349  13.195  21.983  1.00  0.00     0.277 HD
ATOM     18  H42 UNL     1     -18.041  13.127  23.502  1.00  0.00     0.277 HD
HETATM   19  C9  UNL     1     -17.280  14.814  22.630  1.00  0.00     0.252 C 
HETATM   20  C10 UNL     1     -15.867  14.233  22.755  1.00  0.00     0.155 C 
HETATM   21  N5  UNL     1     -15.057  14.955  21.825  1.00  0.00    -0.362 N 
HETATM   22  C22 UNL     1     -14.139  14.202  21.070  1.00  0.00     0.093 C 
HETATM   23  C23 UNL     1     -13.995  14.686  19.647  1.00  0.00     0.316 C 
ENDROOT
BRANCH  21  24
HETATM   24  C11 UNL     1     -14.742  16.273  22.163  1.00  0.00     0.164 C 
BRANCH  24  25
HETATM   25  C12 UNL     1     -15.425  17.351  21.416  1.00  0.00     0.257 C 
HETATM   26  O1  UNL     1     -15.870  17.254  20.250  1.00  0.00    -0.267 OA
HETATM   27  N6  UNL     1     -15.585  18.595  22.081  1.00  0.00    -0.348 N 
ATOM     28  H6  UNL     1     -15.224  18.681  23.031  1.00  0.00     0.163 HD
BRANCH  27  29
HETATM   29  C13 UNL     1     -16.230  19.750  21.488  1.00  0.00     0.031 C 
HETATM   30  C14 UNL     1     -16.333  20.788  22.619  1.00  0.00     0.038 C 
HETATM   31  C15 UNL     1     -17.623  19.483  21.046  1.00  0.00     0.032 C 
HETATM   32  C16 UNL     1     -18.672  20.522  21.294  1.00  0.00     0.022 C 
HETATM   33  C17 UNL     1     -19.528  20.893  20.067  1.00  0.00     0.119 C 
HETATM   34  N7  UNL     1     -18.923  22.029  19.351  1.00  0.00    -0.394 N 
HETATM   35  C18 UNL     1     -18.359  21.766  18.091  1.00  0.00     0.157 C 
ATOM     36  H7  UNL     1     -18.913  22.967  19.753  1.00  0.00     0.159 HD
HETATM   37  C19 UNL     1     -17.015  22.347  17.801  1.00  0.00     0.256 C 
HETATM   38  O2  UNL     1     -16.857  23.306  16.961  1.00  0.00    -0.267 OA
HETATM   39  N8  UNL     1     -15.799  21.871  18.447  1.00  0.00    -0.356 N 
HETATM   40  C20 UNL     1     -16.068  21.071  19.563  1.00  0.00     0.125 C 
ATOM     41  H8  UNL     1     -14.858  22.095  18.124  1.00  0.00     0.162 HD
HETATM   42  C21 UNL     1     -15.242  20.291  20.427  1.00  0.00     0.050 C 
ENDBRANCH  27  29
ENDBRANCH  24  25
ENDBRANCH  21  24
TORSDOF 3
ENDMDL
MODEL 2
REMARK VINA RESULT: -8.011206965      4.490      7.340
REMARK  3 active torsions:
REMARK  status: ('A' for Active; 'I' for Inactive)
REMARK    1  A    between atoms: N5_21  and  C11_22 
REMARK    2  A    between atoms: C11_22  and  C12_23 
REMARK       I    between atoms: C12_23  and  N6_25 
REMARK    3  A    between atoms: N6_25  and  C13_27 
ROOT
HETATM    1  C1  UNL     1     -18.080  20.478  21.392  1.00  0.00     0.310 C 
HETATM    2  N1  UNL     1     -18.783  19.643  20.469  1.00  0.00     0.088 N 
HETATM    3  C2  UNL     1     -17.913  18.790  19.700  1.00  0.00     0.274 C 
HETATM    4  C3  UNL     1     -18.427  17.378  19.691  1.00  0.00     0.057 C 
HETATM    5  C4  UNL     1     -17.507  16.502  20.507  1.00  0.00     0.234 C 
HETATM    6  N2  UNL     1     -18.117  15.184  20.703  1.00  0.00    -0.073 N 
ATOM      7  H21 UNL     1     -17.407  14.465  20.844  1.00  0.00     0.277 HD
ATOM      8  H22 UNL     1     -18.530  14.836  19.838  1.00  0.00     0.277 HD
HETATM    9  C5  UNL     1     -19.077  15.184  21.774  1.00  0.00     0.259 C 
HETATM   10  C6  UNL     1     -20.297  14.357  21.475  1.00  0.00     0.259 C 
HETATM   11  N3  UNL     1     -20.617  14.507  20.068  1.00  0.00    -0.072 N 
ATOM     12  H31 UNL     1     -19.854  14.166  19.483  1.00  0.00     0.277 HD
ATOM     13  H32 UNL     1     -20.612  15.490  19.797  1.00  0.00     0.277 HD
HETATM   14  C7  UNL     1     -21.853  13.886  19.703  1.00  0.00     0.259 C 
HETATM   15  C8  UNL     1     -23.071  14.733  19.918  1.00  0.00     0.259 C 
HETATM   16  N4  UNL     1     -22.808  16.019  20.503  1.00  0.00    -0.072 N 
ATOM     17  H41 UNL     1     -21.999  15.985  21.123  1.00  0.00     0.277 HD
ATOM     18  H42 UNL     1     -23.523  16.269  21.185  1.00  0.00     0.277 HD
HETATM   19  C9  UNL     1     -22.657  17.046  19.502  1.00  0.00     0.252 C 
HETATM   20  C10 UNL     1     -22.805  18.455  20.084  1.00  0.00     0.155 C 
HETATM   21  N5  UNL     1     -21.886  19.281  19.367  1.00  0.00    -0.362 N 
HETATM   22  C22 UNL     1     -21.148  20.209  20.123  1.00  0.00     0.093 C 
HETATM   23  C23 UNL     1     -19.725  20.376  19.645  1.00  0.00     0.316 C 
ENDROOT
BRANCH  21  24
HETATM   24  C11 UNL     1     -22.224  19.592  18.048  1.00  0.00     0.164 C 
BRANCH  24  25
HETATM   25  C12 UNL     1     -21.458  18.927  16.972  1.00  0.00     0.257 C 
HETATM   26  O1  UNL     1     -20.273  18.533  17.064  1.00  0.00    -0.267 OA
HETATM   27  N6  UNL     1     -22.126  18.723  15.736  1.00  0.00    -0.348 N 
ATOM     28  H6  UNL     1     -23.092  19.042  15.654  1.00  0.00     0.163 HD
BRANCH  27  29
HETATM   29  C13 UNL     1     -21.517  18.087  14.584  1.00  0.00     0.031 C 
HETATM   30  C14 UNL     1     -22.642  17.961  13.542  1.00  0.00     0.038 C 
HETATM   31  C15 UNL     1     -21.048  16.704  14.855  1.00  0.00     0.032 C 
HETATM   32  C16 UNL     1     -21.272  15.648  13.816  1.00  0.00     0.022 C 
HETATM   33  C17 UNL     1     -20.027  14.817  13.451  1.00  0.00     0.119 C 
HETATM   34  N7  UNL     1     -19.319  15.434  12.317  1.00  0.00    -0.394 N 
HETATM   35  C18 UNL     1     -18.071  16.023  12.583  1.00  0.00     0.157 C 
ATOM     36  H7  UNL     1     -19.718  15.434  11.377  1.00  0.00     0.159 HD
HETATM   37  C19 UNL     1     -17.806  17.371  12.001  1.00  0.00     0.256 C 
HETATM   38  O2  UNL     1     -16.965  17.545  11.046  1.00  0.00    -0.267 OA
HETATM   39  N8  UNL     1     -18.477  18.576  12.473  1.00  0.00    -0.356 N 
HETATM   40  C20 UNL     1     -19.590  18.285  13.269  1.00  0.00     0.125 C 
ATOM     41  H8  UNL     1     -18.172  19.522  12.249  1.00  0.00     0.162 HD
HETATM   42  C21 UNL     1     -20.473  19.095  14.045  1.00  0.00     0.050 C 
ENDBRANCH  27  29
ENDBRANCH  24  25
ENDBRANCH  21  24
TORSDOF 3
ENDMDL
MODEL 3
REMARK VINA RESULT: -7.998975967      4.469      7.339
REMARK  3 active torsions:
REMARK  status: ('A' for Active; 'I' for Inactive)
REMARK    1  A    between atoms: N5_21  and  C11_22 
REMARK    2  A    between atoms: C11_22  and  C12_23 
REMARK       I    between atoms: C12_23  and  N6_25 
REMARK    3  A    between atoms: N6_25  and  C13_27 
ROOT
HETATM    1  C1  UNL     1     -21.435  16.357  13.781  1.00  0.00     0.310 C 
HETATM    2  N1  UNL     1     -20.506  15.657  14.613  1.00  0.00     0.088 N 
HETATM    3  C2  UNL     1     -19.737  16.531  15.462  1.00  0.00     0.274 C 
HETATM    4  C3  UNL     1     -19.721  16.017  16.874  1.00  0.00     0.057 C 
HETATM    5  C4  UNL     1     -20.536  16.935  17.753  1.00  0.00     0.234 C 
HETATM    6  N2  UNL     1     -20.725  16.325  19.072  1.00  0.00    -0.073 N 
ATOM      7  H21 UNL     1     -20.865  17.035  19.791  1.00  0.00     0.277 HD
ATOM      8  H22 UNL     1     -19.857  15.916  19.417  1.00  0.00     0.277 HD
HETATM    9  C5  UNL     1     -21.793  15.361  19.077  1.00  0.00     0.259 C 
HETATM   10  C6  UNL     1     -21.486  14.144  19.903  1.00  0.00     0.259 C 
HETATM   11  N3  UNL     1     -20.078  13.828  19.749  1.00  0.00    -0.072 N 
ATOM     12  H31 UNL     1     -19.495  14.594  20.086  1.00  0.00     0.277 HD
ATOM     13  H32 UNL     1     -19.811  13.834  18.764  1.00  0.00     0.277 HD
HETATM   14  C7  UNL     1     -19.706  12.594  20.369  1.00  0.00     0.259 C 
HETATM   15  C8  UNL     1     -19.921  11.374  19.523  1.00  0.00     0.259 C 
HETATM   16  N4  UNL     1     -20.511  11.635  18.239  1.00  0.00    -0.072 N 
ATOM     17  H41 UNL     1     -21.134  12.441  18.275  1.00  0.00     0.277 HD
ATOM     18  H42 UNL     1     -21.192  10.917  17.992  1.00  0.00     0.277 HD
HETATM   19  C9  UNL     1     -19.516  11.788  17.209  1.00  0.00     0.252 C 
HETATM   20  C10 UNL     1     -20.103  11.637  15.802  1.00  0.00     0.155 C 
HETATM   21  N5  UNL     1     -19.392  12.559  14.973  1.00  0.00    -0.362 N 
HETATM   22  C22 UNL     1     -20.155  13.293  14.046  1.00  0.00     0.093 C 
HETATM   23  C23 UNL     1     -19.682  14.717  13.877  1.00  0.00     0.316 C 
ENDROOT
BRANCH  21  24
HETATM   24  C11 UNL     1     -18.073  12.225  14.656  1.00  0.00     0.164 C 
BRANCH  24  25
HETATM   25  C12 UNL     1     -16.997  12.964  15.350  1.00  0.00     0.257 C 
HETATM   26  O1  UNL     1     -17.078  14.144  15.760  1.00  0.00    -0.267 OA
HETATM   27  N6  UNL     1     -15.775  12.275  15.564  1.00  0.00    -0.348 N 
ATOM     28  H6  UNL     1     -15.702  11.313  15.231  1.00  0.00     0.163 HD
BRANCH  27  29
HETATM   29  C13 UNL     1     -14.624  12.857  16.227  1.00  0.00     0.031 C 
HETATM   30  C14 UNL     1     -13.599  11.716  16.347  1.00  0.00     0.038 C 
HETATM   31  C15 UNL     1     -14.909  13.304  17.614  1.00  0.00     0.032 C 
HETATM   32  C16 UNL     1     -13.889  13.048  18.681  1.00  0.00     0.022 C 
HETATM   33  C17 UNL     1     -13.519  14.272  19.540  1.00  0.00     0.119 C 
HETATM   34  N7  UNL     1     -12.367  14.976  18.952  1.00  0.00    -0.394 N 
HETATM   35  C18 UNL     1     -12.609  16.238  18.382  1.00  0.00     0.157 C 
ATOM     36  H7  UNL     1     -11.433  14.565  18.958  1.00  0.00     0.159 HD
HETATM   37  C19 UNL     1     -12.004  16.520  17.048  1.00  0.00     0.256 C 
HETATM   38  O2  UNL     1     -11.035  17.350  16.903  1.00  0.00    -0.267 OA
HETATM   39  N8  UNL     1     -12.467  15.876  15.824  1.00  0.00    -0.356 N 
HETATM   40  C20 UNL     1     -13.282  14.769  16.083  1.00  0.00     0.125 C 
ATOM     41  H8  UNL     1     -12.225  16.196  14.887  1.00  0.00     0.162 HD
HETATM   42  C21 UNL     1     -14.057  13.911  15.246  1.00  0.00     0.050 C 
ENDBRANCH  27  29
ENDBRANCH  24  25
ENDBRANCH  21  24
TORSDOF 3
ENDMDL
MODEL 4
REMARK VINA RESULT: -7.937816071      7.328     11.960
REMARK  3 active torsions:
REMARK  status: ('A' for Active; 'I' for Inactive)
REMARK    1  A    between atoms: N5_21  and  C11_22 
REMARK    2  A    between atoms: C11_22  and  C12_23 
REMARK       I    between atoms: C12_23  and  N6_25 
REMARK    3  A    between atoms: N6_25  and  C13_27 
ROOT
HETATM    1  C1  UNL     1     -14.871  14.657  15.248  1.00  0.00     0.310 C 
HETATM    2  N1  UNL     1     -16.282  14.828  15.405  1.00  0.00     0.088 N 
HETATM    3  C2  UNL     1     -16.641  15.465  16.647  1.00  0.00     0.274 C 
HETATM    4  C3  UNL     1     -17.631  16.569  16.408  1.00  0.00     0.057 C 
HETATM    5  C4  UNL     1     -16.968  17.903  16.658  1.00  0.00     0.234 C 
HETATM    6  N2  UNL     1     -17.843  18.988  16.204  1.00  0.00    -0.073 N 
ATOM      7  H21 UNL     1     -17.660  19.849  16.719  1.00  0.00     0.277 HD
ATOM      8  H22 UNL     1     -18.808  18.828  16.493  1.00  0.00     0.277 HD
HETATM    9  C5  UNL     1     -17.752  19.201  14.785  1.00  0.00     0.259 C 
HETATM   10  C6  UNL     1     -19.080  19.499  14.146  1.00  0.00     0.259 C 
HETATM   11  N3  UNL     1     -20.096  18.701  14.806  1.00  0.00    -0.072 N 
ATOM     12  H31 UNL     1     -20.160  18.941  15.796  1.00  0.00     0.277 HD
ATOM     13  H32 UNL     1     -19.797  17.729  14.888  1.00  0.00     0.277 HD
HETATM   14  C7  UNL     1     -21.377  18.788  14.177  1.00  0.00     0.259 C 
HETATM   15  C8  UNL     1     -21.584  17.839  13.035  1.00  0.00     0.259 C 
HETATM   16  N4  UNL     1     -20.442  17.023  12.723  1.00  0.00    -0.072 N 
ATOM     17  H41 UNL     1     -19.572  17.511  12.930  1.00  0.00     0.277 HD
ATOM     18  H42 UNL     1     -20.330  16.915  11.715  1.00  0.00     0.277 HD
HETATM   19  C9  UNL     1     -20.496  15.744  13.384  1.00  0.00     0.252 C 
HETATM   20  C10 UNL     1     -19.549  14.719  12.750  1.00  0.00     0.155 C 
HETATM   21  N5  UNL     1     -19.049  13.922  13.826  1.00  0.00    -0.362 N 
HETATM   22  C22 UNL     1     -17.678  13.608  13.794  1.00  0.00     0.093 C 
HETATM   23  C23 UNL     1     -17.032  13.611  15.159  1.00  0.00     0.316 C 
ENDROOT
BRANCH  21  24
HETATM   24  C11 UNL     1     -19.943  13.014  14.399  1.00  0.00     0.164 C 
BRANCH  24  25
HETATM   25  C12 UNL     1     -20.516  11.974  13.519  1.00  0.00     0.257 C 
HETATM   26  O1  UNL     1     -21.650  12.018  12.990  1.00  0.00    -0.267 OA
HETATM   27  N6  UNL     1     -19.712  10.834  13.258  1.00  0.00    -0.348 N 
ATOM     28  H6  UNL     1     -18.787  10.792  13.687  1.00  0.00     0.163 HD
BRANCH  27  29
HETATM   29  C13 UNL     1     -20.127   9.727  12.419  1.00  0.00     0.031 C 
HETATM   30  C14 UNL     1     -21.387   9.154  13.088  1.00  0.00     0.038 C 
HETATM   31  C15 UNL     1     -19.140   8.618  12.379  1.00  0.00     0.032 C 
HETATM   32  C16 UNL     1     -19.636   7.206  12.423  1.00  0.00     0.022 C 
HETATM   33  C17 UNL     1     -19.068   6.278  11.332  1.00  0.00     0.119 C 
HETATM   34  N7  UNL     1     -19.945   6.288  10.150  1.00  0.00    -0.394 N 
HETATM   35  C18 UNL     1     -19.451   6.911   8.991  1.00  0.00     0.157 C 
ATOM     36  H7  UNL     1     -20.872   5.861  10.171  1.00  0.00     0.159 HD
HETATM   37  C19 UNL     1     -20.369   7.833   8.259  1.00  0.00     0.256 C 
HETATM   38  O2  UNL     1     -20.863   7.530   7.112  1.00  0.00    -0.267 OA
HETATM   39  N8  UNL     1     -20.766   9.131   8.790  1.00  0.00    -0.356 N 
HETATM   40  C20 UNL     1     -20.467   9.261  10.151  1.00  0.00     0.125 C 
ATOM     41  H8  UNL     1     -21.211   9.861   8.235  1.00  0.00     0.162 HD
HETATM   42  C21 UNL     1     -20.543  10.353  11.066  1.00  0.00     0.050 C 
ENDBRANCH  27  29
ENDBRANCH  24  25
ENDBRANCH  21  24
TORSDOF 3
ENDMDL
MODEL 5
REMARK VINA RESULT: -7.883213850      7.769     12.454
REMARK  3 active torsions:
REMARK  status: ('A' for Active; 'I' for Inactive)
REMARK    1  A    between atoms: N5_21  and  C11_22 
REMARK    2  A    between atoms: C11_22  and  C12_23 
REMARK       I    between atoms: C12_23  and  N6_25 
REMARK    3  A    between atoms: N6_25  and  C13_27 
ROOT
HETATM    1  C1  UNL     1     -16.110  12.280  16.784  1.00  0.00     0.310 C 
HETATM    2  N1  UNL     1     -17.493  12.532  16.520  1.00  0.00     0.088 N 
HETATM    3  C2  UNL     1     -18.273  12.721  17.716  1.00  0.00     0.274 C 
HETATM    4  C3  UNL     1     -19.148  13.936  17.590  1.00  0.00     0.057 C 
HETATM    5  C4  UNL     1     -18.645  15.017  18.518  1.00  0.00     0.234 C 
HETATM    6  N2  UNL     1     -19.338  16.277  18.236  1.00  0.00    -0.073 N 
ATOM      7  H21 UNL     1     -19.365  16.876  19.061  1.00  0.00     0.277 HD
ATOM      8  H22 UNL     1     -20.339  16.128  18.111  1.00  0.00     0.277 HD
HETATM    9  C5  UNL     1     -18.770  16.970  17.110  1.00  0.00     0.259 C 
HETATM   10  C6  UNL     1     -19.804  17.612  16.229  1.00  0.00     0.259 C 
HETATM   11  N3  UNL     1     -20.964  16.743  16.174  1.00  0.00    -0.072 N 
ATOM     12  H31 UNL     1     -21.371  16.622  17.102  1.00  0.00     0.277 HD
ATOM     13  H32 UNL     1     -20.687  15.780  15.985  1.00  0.00     0.277 HD
HETATM   14  C7  UNL     1     -21.953  17.182  15.239  1.00  0.00     0.259 C 
HETATM   15  C8  UNL     1     -21.730  16.727  13.827  1.00  0.00     0.259 C 
HETATM   16  N4  UNL     1     -20.530  15.960  13.630  1.00  0.00    -0.072 N 
ATOM     17  H41 UNL     1     -19.797  16.248  14.277  1.00  0.00     0.277 HD
ATOM     18  H42 UNL     1     -20.075  16.205  12.751  1.00  0.00     0.277 HD
HETATM   19  C9  UNL     1     -20.776  14.542  13.715  1.00  0.00     0.252 C 
HETATM   20  C10 UNL     1     -19.644  13.715  13.097  1.00  0.00     0.155 C 
HETATM   21  N5  UNL     1     -19.524  12.541  13.903  1.00  0.00    -0.362 N 
HETATM   22  C22 UNL     1     -18.218  12.116  14.210  1.00  0.00     0.093 C 
HETATM   23  C23 UNL     1     -18.081  11.567  15.610  1.00  0.00     0.316 C 
ENDROOT
BRANCH  21  24
HETATM   24  C11 UNL     1     -20.537  11.588  13.773  1.00  0.00     0.164 C 
BRANCH  24  25
HETATM   25  C12 UNL     1     -20.391  10.580  12.701  1.00  0.00     0.257 C 
HETATM   26  O1  UNL     1     -20.630  10.774  11.488  1.00  0.00    -0.267 OA
HETATM   27  N6  UNL     1     -19.946   9.289  13.087  1.00  0.00    -0.348 N 
ATOM     28  H6  UNL     1     -19.749   9.124  14.075  1.00  0.00     0.163 HD
BRANCH  27  29
HETATM   29  C13 UNL     1     -19.752   8.191  12.160  1.00  0.00     0.031 C 
HETATM   30  C14 UNL     1     -19.587   6.937  13.036  1.00  0.00     0.038 C 
HETATM   31  C15 UNL     1     -18.502   8.306  11.365  1.00  0.00     0.032 C 
HETATM   32  C16 UNL     1     -17.682   7.076  11.125  1.00  0.00     0.022 C 
HETATM   33  C17 UNL     1     -17.286   6.830   9.656  1.00  0.00     0.119 C 
HETATM   34  N7  UNL     1     -18.294   5.988   8.992  1.00  0.00    -0.394 N 
HETATM   35  C18 UNL     1     -19.098   6.599   8.015  1.00  0.00     0.157 C 
ATOM     36  H7  UNL     1     -18.405   5.002   9.232  1.00  0.00     0.159 HD
HETATM   37  C19 UNL     1     -20.565   6.327   8.059  1.00  0.00     0.256 C 
HETATM   38  O2  UNL     1     -21.148   5.605   7.170  1.00  0.00    -0.267 OA
HETATM   39  N8  UNL     1     -21.431   6.855   9.105  1.00  0.00    -0.356 N 
HETATM   40  C20 UNL     1     -20.705   7.347  10.196  1.00  0.00     0.125 C 
ATOM     41  H8  UNL     1     -22.449   6.866   9.049  1.00  0.00     0.162 HD
HETATM   42  C21 UNL     1     -21.079   8.058  11.376  1.00  0.00     0.050 C 
ENDBRANCH  27  29
ENDBRANCH  24  25
ENDBRANCH  21  24
TORSDOF 3
ENDMDL
