MODEL 1
REMARK VINA RESULT: -9.014949451      0.000      0.000
REMARK  3 active torsions:
REMARK  status: ('A' for Active; 'I' for Inactive)
REMARK    1  A    between atoms: C1_2  and  C2_4 
REMARK    2  A    between atoms: C4_9  and  N2_10 
REMARK    3  A    between atoms: C16_33  and  C17_34 
REMARK       I    between atoms: C17_34  and  N7_36 
ROOT
HETATM    1  N2  UNL     1     -14.281  21.291  16.060  1.00  0.00    -0.377 N 
HETATM    2  C5  UNL     1     -14.431  20.829  14.739  1.00  0.00     0.086 C 
HETATM    3  C6  UNL     1     -15.515  19.859  14.468  1.00  0.00     0.276 C 
HETATM    4  N3  UNL     1     -15.755  19.859  13.015  1.00  0.00    -0.069 N 
ATOM      5  H31 UNL     1     -16.251  20.692  12.698  1.00  0.00     0.277 HD
ATOM      6  H32 UNL     1     -16.451  19.169  12.731  1.00  0.00     0.277 HD
HETATM    7  C7  UNL     1     -14.491  19.679  12.349  1.00  0.00     0.251 C 
HETATM    8  C8  UNL     1     -14.630  19.544  10.860  1.00  0.00     0.141 C 
HETATM    9  N4  UNL     1     -13.452  19.839  10.128  1.00  0.00    -0.418 N 
ATOM     10  H4  UNL     1     -13.486  20.080   9.138  1.00  0.00     0.153 HD
HETATM   11  C9  UNL     1     -12.217  19.784  10.843  1.00  0.00     0.141 C 
HETATM   12  C10 UNL     1     -11.635  21.119  11.200  1.00  0.00     0.251 C 
HETATM   13  N5  UNL     1     -10.885  21.042  12.455  1.00  0.00    -0.072 N 
ATOM     14  H51 UNL     1     -10.051  20.462  12.368  1.00  0.00     0.277 HD
ATOM     15  H52 UNL     1     -11.375  20.492  13.161  1.00  0.00     0.277 HD
HETATM   16  C11 UNL     1     -10.573  22.371  12.923  1.00  0.00     0.259 C 
HETATM   17  C12 UNL     1     -10.068  22.379  14.324  1.00  0.00     0.259 C 
HETATM   18  N6  UNL     1     -11.059  22.910  15.277  1.00  0.00    -0.072 N 
ATOM     19  H61 UNL     1     -11.304  23.889  15.127  1.00  0.00     0.277 HD
ATOM     20  H62 UNL     1     -10.706  23.031  16.227  1.00  0.00     0.277 HD
HETATM   21  C13 UNL     1     -12.189  21.978  15.165  1.00  0.00     0.252 C 
HETATM   22  C14 UNL     1     -13.291  22.316  16.138  1.00  0.00     0.150 C 
ENDROOT
BRANCH   1  23
HETATM   23  C4  UNL     1     -15.393  21.368  16.890  1.00  0.00     0.176 C 
HETATM   24  C3  UNL     1     -16.067  22.685  16.994  1.00  0.00     0.241 C 
HETATM   25  N1  UNL     1     -17.113  22.720  17.987  1.00  0.00    -0.344 N 
HETATM   26  O3  UNL     1     -15.802  23.686  16.324  1.00  0.00    -0.271 OA
HETATM   27  C2  UNL     1     -17.430  21.420  18.578  1.00  0.00     0.198 C 
ATOM     28  H1  UNL     1     -17.591  23.581  18.255  1.00  0.00     0.163 HD
HETATM   29  C16 UNL     1     -16.188  20.796  19.206  1.00  0.00     0.113 C 
HETATM   30  C15 UNL     1     -14.970  21.026  18.328  1.00  0.00     0.051 C 
BRANCH  27  31
HETATM   31  C1  UNL     1     -18.382  21.696  19.709  1.00  0.00     0.197 C 
HETATM   32  O1  UNL     1     -19.635  21.732  19.527  1.00  0.00    -0.646 OA
HETATM   33  O2  UNL     1     -17.827  21.907  20.954  1.00  0.00    -0.646 OA
ENDBRANCH  27  31
BRANCH  29  34
HETATM   34  C17 UNL     1     -16.366  19.326  19.287  1.00  0.00     0.226 C 
HETATM   35  O4  UNL     1     -16.655  18.711  18.229  1.00  0.00    -0.273 OA
HETATM   36  N7  UNL     1     -16.216  18.612  20.511  1.00  0.00    -0.352 N 
HETATM   37  C18 UNL     1     -15.896  19.236  21.769  1.00  0.00     0.125 C 
HETATM   38  C22 UNL     1     -16.392  17.171  20.519  1.00  0.00     0.125 C 
HETATM   39  C19 UNL     1     -16.888  18.827  22.857  1.00  0.00     0.020 C 
HETATM   40  C20 UNL     1     -16.922  17.313  22.893  1.00  0.00     0.003 C 
HETATM   41  C21 UNL     1     -17.480  16.861  21.539  1.00  0.00     0.020 C 
ENDBRANCH  29  34
ENDBRANCH   1  23
TORSDOF 3
ENDMDL
MODEL 2
REMARK VINA RESULT: -8.728354096      4.458      6.229
REMARK  3 active torsions:
REMARK  status: ('A' for Active; 'I' for Inactive)
REMARK    1  A    between atoms: C1_2  and  C2_4 
REMARK    2  A    between atoms: C4_9  and  N2_10 
REMARK    3  A    between atoms: C16_33  and  C17_34 
REMARK       I    between atoms: C17_34  and  N7_36 
ROOT
HETATM    1  N2  UNL     1     -16.084  19.751  13.108  1.00  0.00    -0.377 N 
HETATM    2  C5  UNL     1     -14.770  19.571  13.577  1.00  0.00     0.086 C 
HETATM    3  C6  UNL     1     -14.528  18.476  14.543  1.00  0.00     0.276 C 
HETATM    4  N3  UNL     1     -13.080  18.206  14.552  1.00  0.00    -0.069 N 
ATOM      5  H31 UNL     1     -12.768  17.709  13.718  1.00  0.00     0.277 HD
ATOM      6  H32 UNL     1     -12.816  17.500  15.239  1.00  0.00     0.277 HD
HETATM    7  C7  UNL     1     -12.390  19.455  14.745  1.00  0.00     0.251 C 
HETATM    8  C8  UNL     1     -10.905  19.285  14.889  1.00  0.00     0.141 C 
HETATM    9  N4  UNL     1     -10.147  20.450  14.606  1.00  0.00    -0.418 N 
ATOM     10  H4  UNL     1      -9.156  20.398  14.372  1.00  0.00     0.153 HD
HETATM   11  C9  UNL     1     -10.837  21.699  14.665  1.00  0.00     0.141 C 
HETATM   12  C10 UNL     1     -11.173  22.297  13.331  1.00  0.00     0.251 C 
HETATM   13  N5  UNL     1     -12.413  23.072  13.404  1.00  0.00    -0.072 N 
ATOM     14  H51 UNL     1     -12.314  23.900  13.990  1.00  0.00     0.277 HD
ATOM     15  H52 UNL     1     -13.133  22.593  13.945  1.00  0.00     0.277 HD
HETATM   16  C11 UNL     1     -12.865  23.402  12.073  1.00  0.00     0.259 C 
HETATM   17  C12 UNL     1     -14.256  23.935  12.059  1.00  0.00     0.259 C 
HETATM   18  N6  UNL     1     -15.224  22.967  11.515  1.00  0.00    -0.072 N 
ATOM     19  H61 UNL     1     -15.072  22.725  10.535  1.00  0.00     0.277 HD
ATOM     20  H62 UNL     1     -16.166  23.340  11.389  1.00  0.00     0.277 HD
HETATM   21  C13 UNL     1     -15.142  21.829  12.440  1.00  0.00     0.252 C 
HETATM   22  C14 UNL     1     -16.135  20.749  12.088  1.00  0.00     0.150 C 
ENDROOT
BRANCH   1  23
HETATM   23  C4  UNL     1     -16.936  18.657  13.018  1.00  0.00     0.176 C 
HETATM   24  C3  UNL     1     -17.071  18.015  11.687  1.00  0.00     0.241 C 
HETATM   25  N1  UNL     1     -18.084  16.989  11.642  1.00  0.00    -0.344 N 
HETATM   26  O3  UNL     1     -16.410  18.290  10.683  1.00  0.00    -0.271 OA
HETATM   27  C2  UNL     1     -18.663  16.654  12.943  1.00  0.00     0.198 C 
ATOM     28  H1  UNL     1     -18.373  16.535  10.776  1.00  0.00     0.163 HD
HETATM   29  C16 UNL     1     -19.259  17.893  13.604  1.00  0.00     0.113 C 
HETATM   30  C15 UNL     1     -18.361  19.099  13.389  1.00  0.00     0.051 C 
BRANCH  27  31
HETATM   31  C1  UNL     1     -19.815  15.729  12.663  1.00  0.00     0.197 C 
HETATM   32  O1  UNL     1     -19.666  14.471  12.639  1.00  0.00    -0.646 OA
HETATM   33  O2  UNL     1     -21.042  16.315  12.432  1.00  0.00    -0.646 OA
ENDBRANCH  27  31
BRANCH  29  34
HETATM   34  C17 UNL     1     -19.323  17.683  15.071  1.00  0.00     0.226 C 
HETATM   35  O4  UNL     1     -18.290  17.256  15.648  1.00  0.00    -0.273 OA
HETATM   36  N7  UNL     1     -20.503  17.951  15.823  1.00  0.00    -0.352 N 
HETATM   37  C18 UNL     1     -21.731  18.432  15.243  1.00  0.00     0.125 C 
HETATM   38  C22 UNL     1     -20.495  17.736  17.258  1.00  0.00     0.125 C 
HETATM   39  C19 UNL     1     -22.915  17.560  15.657  1.00  0.00     0.020 C 
HETATM   40  C20 UNL     1     -22.917  17.487  17.170  1.00  0.00     0.003 C 
HETATM   41  C21 UNL     1     -21.626  16.764  17.569  1.00  0.00     0.020 C 
ENDBRANCH  29  34
ENDBRANCH   1  23
TORSDOF 3
ENDMDL
MODEL 3
REMARK VINA RESULT: -8.139783780      7.178      8.355
REMARK  3 active torsions:
REMARK  status: ('A' for Active; 'I' for Inactive)
REMARK    1  A    between atoms: C1_2  and  C2_4 
REMARK    2  A    between atoms: C4_9  and  N2_10 
REMARK    3  A    between atoms: C16_33  and  C17_34 
REMARK       I    between atoms: C17_34  and  N7_36 
ROOT
HETATM    1  N2  UNL     1     -13.492  12.868  16.198  1.00  0.00    -0.377 N 
HETATM    2  C5  UNL     1     -14.120  12.104  15.198  1.00  0.00     0.086 C 
HETATM    3  C6  UNL     1     -15.565  12.323  14.969  1.00  0.00     0.276 C 
HETATM    4  N3  UNL     1     -15.893  11.767  13.645  1.00  0.00    -0.069 N 
ATOM      5  H31 UNL     1     -15.555  12.350  12.880  1.00  0.00     0.277 HD
ATOM      6  H32 UNL     1     -16.889  11.822  13.431  1.00  0.00     0.277 HD
HETATM    7  C7  UNL     1     -15.385  10.421  13.583  1.00  0.00     0.251 C 
HETATM    8  C8  UNL     1     -15.767   9.711  12.316  1.00  0.00     0.141 C 
HETATM    9  N4  UNL     1     -14.936   8.611  11.983  1.00  0.00    -0.418 N 
ATOM     10  H4  UNL     1     -14.890   8.246  11.032  1.00  0.00     0.153 HD
HETATM   11  C9  UNL     1     -14.168   8.038  13.042  1.00  0.00     0.141 C 
HETATM   12  C10 UNL     1     -12.712   8.396  13.029  1.00  0.00     0.251 C 
HETATM   13  N5  UNL     1     -12.174   8.443  14.390  1.00  0.00    -0.072 N 
ATOM     14  H51 UNL     1     -12.164   7.523  14.830  1.00  0.00     0.277 HD
ATOM     15  H52 UNL     1     -12.809   8.909  15.037  1.00  0.00     0.277 HD
HETATM   16  C11 UNL     1     -10.866   9.052  14.381  1.00  0.00     0.259 C 
HETATM   17  C12 UNL     1     -10.384   9.391  15.749  1.00  0.00     0.259 C 
HETATM   18  N6  UNL     1     -10.414  10.841  16.014  1.00  0.00    -0.072 N 
ATOM     19  H61 UNL     1      -9.791  11.389  15.420  1.00  0.00     0.277 HD
ATOM     20  H62 UNL     1      -9.989  11.115  16.900  1.00  0.00     0.277 HD
HETATM   21  C13 UNL     1     -11.835  11.192  15.890  1.00  0.00     0.252 C 
HETATM   22  C14 UNL     1     -12.082  12.646  16.209  1.00  0.00     0.150 C 
ENDROOT
BRANCH   1  23
HETATM   23  C4  UNL     1     -13.972  14.138  16.493  1.00  0.00     0.176 C 
HETATM   24  C3  UNL     1     -13.774  15.189  15.466  1.00  0.00     0.241 C 
HETATM   25  N1  UNL     1     -14.160  16.507  15.907  1.00  0.00    -0.344 N 
HETATM   26  O3  UNL     1     -13.328  15.013  14.329  1.00  0.00    -0.271 OA
HETATM   27  C2  UNL     1     -14.830  16.537  17.208  1.00  0.00     0.198 C 
ATOM     28  H1  UNL     1     -13.981  17.349  15.358  1.00  0.00     0.163 HD
HETATM   29  C16 UNL     1     -13.950  15.906  18.282  1.00  0.00     0.113 C 
HETATM   30  C15 UNL     1     -13.252  14.669  17.743  1.00  0.00     0.051 C 
BRANCH  27  31
HETATM   31  C1  UNL     1     -14.967  17.990  17.574  1.00  0.00     0.197 C 
HETATM   32  O1  UNL     1     -14.006  18.803  17.436  1.00  0.00    -0.646 OA
HETATM   33  O2  UNL     1     -16.190  18.395  18.066  1.00  0.00    -0.646 OA
ENDBRANCH  27  31
BRANCH  29  34
HETATM   34  C17 UNL     1     -14.803  15.443  19.403  1.00  0.00     0.226 C 
HETATM   35  O4  UNL     1     -15.513  14.423  19.218  1.00  0.00    -0.273 OA
HETATM   36  N7  UNL     1     -14.830  16.115  20.660  1.00  0.00    -0.352 N 
HETATM   37  C18 UNL     1     -14.057  17.294  20.956  1.00  0.00     0.125 C 
HETATM   38  C22 UNL     1     -15.678  15.602  21.721  1.00  0.00     0.125 C 
HETATM   39  C19 UNL     1     -14.941  18.407  21.515  1.00  0.00     0.020 C 
HETATM   40  C20 UNL     1     -15.698  17.835  22.696  1.00  0.00     0.003 C 
HETATM   41  C21 UNL     1     -16.607  16.736  22.135  1.00  0.00     0.020 C 
ENDBRANCH  29  34
ENDBRANCH   1  23
TORSDOF 3
ENDMDL
MODEL 4
REMARK VINA RESULT: -8.133526684      6.944      9.859
REMARK  3 active torsions:
REMARK  status: ('A' for Active; 'I' for Inactive)
REMARK    1  A    between atoms: C1_2  and  C2_4 
REMARK    2  A    between atoms: C4_9  and  N2_10 
REMARK    3  A    between atoms: C16_33  and  C17_34 
REMARK       I    between atoms: C17_34  and  N7_36 
ROOT
HETATM    1  N2  UNL     1     -21.489  18.162  13.500  1.00  0.00    -0.377 N 
HETATM    2  C5  UNL     1     -22.258  19.159  14.127  1.00  0.00     0.086 C 
HETATM    3  C6  UNL     1     -22.043  19.385  15.574  1.00  0.00     0.276 C 
HETATM    4  N3  UNL     1     -22.604  20.707  15.903  1.00  0.00    -0.069 N 
ATOM      5  H31 UNL     1     -22.021  21.475  15.568  1.00  0.00     0.277 HD
ATOM      6  H32 UNL     1     -22.552  20.919  16.899  1.00  0.00     0.277 HD
HETATM    7  C7  UNL     1     -23.948  20.766  15.392  1.00  0.00     0.251 C 
HETATM    8  C8  UNL     1     -24.662  22.031  15.773  1.00  0.00     0.141 C 
HETATM    9  N4  UNL     1     -25.761  22.363  14.941  1.00  0.00    -0.418 N 
ATOM     10  H4  UNL     1     -26.128  23.313  14.896  1.00  0.00     0.153 HD
HETATM   11  C9  UNL     1     -26.329  21.304  14.168  1.00  0.00     0.141 C 
HETATM   12  C10 UNL     1     -25.967  21.320  12.713  1.00  0.00     0.251 C 
HETATM   13  N5  UNL     1     -25.915  19.961  12.172  1.00  0.00    -0.072 N 
ATOM     14  H51 UNL     1     -26.834  19.519  12.159  1.00  0.00     0.277 HD
ATOM     15  H52 UNL     1     -25.449  19.314  12.808  1.00  0.00     0.277 HD
HETATM   16  C11 UNL     1     -25.302  19.975  10.866  1.00  0.00     0.259 C 
HETATM   17  C12 UNL     1     -24.958  18.608  10.383  1.00  0.00     0.259 C 
HETATM   18  N6  UNL     1     -23.508  18.347  10.416  1.00  0.00    -0.072 N 
ATOM     19  H61 UNL     1     -22.959  18.943   9.797  1.00  0.00     0.277 HD
ATOM     20  H62 UNL     1     -23.230  17.463   9.990  1.00  0.00     0.277 HD
HETATM   21  C13 UNL     1     -23.161  18.469  11.839  1.00  0.00     0.252 C 
HETATM   22  C14 UNL     1     -21.707  18.153  12.089  1.00  0.00     0.150 C 
ENDROOT
BRANCH   1  23
HETATM   23  C4  UNL     1     -20.219  17.869  13.983  1.00  0.00     0.176 C 
HETATM   24  C3  UNL     1     -19.169  18.898  13.787  1.00  0.00     0.241 C 
HETATM   25  N1  UNL     1     -17.851  18.459  14.176  1.00  0.00    -0.344 N 
HETATM   26  O3  UNL     1     -19.346  20.035  13.339  1.00  0.00    -0.271 OA
HETATM   27  C2  UNL     1     -17.821  17.159  14.846  1.00  0.00     0.198 C 
ATOM     28  H1  UNL     1     -17.011  19.009  13.998  1.00  0.00     0.163 HD
HETATM   29  C16 UNL     1     -18.448  16.084  13.966  1.00  0.00     0.113 C 
HETATM   30  C15 UNL     1     -19.685  16.620  13.265  1.00  0.00     0.051 C 
BRANCH  27  31
HETATM   31  C1  UNL     1     -16.368  16.796  14.988  1.00  0.00     0.197 C 
HETATM   32  O1  UNL     1     -15.554  16.932  14.027  1.00  0.00    -0.646 OA
HETATM   33  O2  UNL     1     -15.965  16.308  16.213  1.00  0.00    -0.646 OA
ENDBRANCH  27  31
BRANCH  29  34
HETATM   34  C17 UNL     1     -18.911  14.962  14.819  1.00  0.00     0.226 C 
HETATM   35  O4  UNL     1     -19.924  15.152  15.538  1.00  0.00    -0.273 OA
HETATM   36  N7  UNL     1     -18.248  13.701  14.835  1.00  0.00    -0.352 N 
HETATM   37  C18 UNL     1     -17.078  13.400  14.051  1.00  0.00     0.125 C 
HETATM   38  C22 UNL     1     -18.760  12.640  15.683  1.00  0.00     0.125 C 
HETATM   39  C19 UNL     1     -15.961  12.830  14.923  1.00  0.00     0.020 C 
HETATM   40  C20 UNL     1     -16.535  11.650  15.681  1.00  0.00     0.003 C 
HETATM   41  C21 UNL     1     -17.622  12.215  16.601  1.00  0.00     0.020 C 
ENDBRANCH  29  34
ENDBRANCH   1  23
TORSDOF 3
ENDMDL
MODEL 5
REMARK VINA RESULT: -7.908279583      3.959      8.543
REMARK  3 active torsions:
REMARK  status: ('A' for Active; 'I' for Inactive)
REMARK    1  A    between atoms: C1_2  and  C2_4 
REMARK    2  A    between atoms: C4_9  and  N2_10 
REMARK    3  A    between atoms: C16_33  and  C17_34 
REMARK       I    between atoms: C17_34  and  N7_36 
ROOT
HETATM    1  N2  UNL     1     -17.145  19.469  15.439  1.00  0.00    -0.377 N 
HETATM    2  C5  UNL     1     -18.305  19.086  14.742  1.00  0.00     0.086 C 
HETATM    3  C6  UNL     1     -18.197  18.893  13.279  1.00  0.00     0.276 C 
HETATM    4  N3  UNL     1     -19.363  18.101  12.849  1.00  0.00    -0.069 N 
ATOM      5  H31 UNL     1     -19.288  17.118  13.111  1.00  0.00     0.277 HD
ATOM      6  H32 UNL     1     -19.399  17.973  11.838  1.00  0.00     0.277 HD
HETATM    7  C7  UNL     1     -20.550  18.726  13.373  1.00  0.00     0.251 C 
HETATM    8  C8  UNL     1     -21.813  18.068  12.898  1.00  0.00     0.141 C 
HETATM    9  N4  UNL     1     -22.947  18.307  13.716  1.00  0.00    -0.418 N 
ATOM     10  H4  UNL     1     -23.763  17.697  13.687  1.00  0.00     0.153 HD
HETATM   11  C9  UNL     1     -22.891  19.442  14.582  1.00  0.00     0.141 C 
HETATM   12  C10 UNL     1     -22.639  19.122  16.025  1.00  0.00     0.251 C 
HETATM   13  N5  UNL     1     -21.891  20.200  16.676  1.00  0.00    -0.072 N 
ATOM     14  H51 UNL     1     -22.436  21.060  16.739  1.00  0.00     0.277 HD
ATOM     15  H52 UNL     1     -21.133  20.548  16.090  1.00  0.00     0.277 HD
HETATM   16  C11 UNL     1     -21.421  19.760  17.968  1.00  0.00     0.259 C 
HETATM   17  C12 UNL     1     -20.420  20.693  18.558  1.00  0.00     0.259 C 
HETATM   18  N6  UNL     1     -19.052  20.145  18.526  1.00  0.00    -0.072 N 
ATOM     19  H61 UNL     1     -18.924  19.302  19.085  1.00  0.00     0.277 HD
ATOM     20  H62 UNL     1     -18.361  20.711  19.020  1.00  0.00     0.277 HD
HETATM   21  C13 UNL     1     -18.777  19.969  17.093  1.00  0.00     0.252 C 
HETATM   22  C14 UNL     1     -17.371  19.482  16.849  1.00  0.00     0.150 C 
ENDROOT
BRANCH   1  23
HETATM   23  C4  UNL     1     -15.899  19.079  14.964  1.00  0.00     0.176 C 
HETATM   24  C3  UNL     1     -15.454  17.703  15.290  1.00  0.00     0.241 C 
HETATM   25  N1  UNL     1     -14.094  17.428  14.895  1.00  0.00    -0.344 N 
HETATM   26  O3  UNL     1     -16.134  16.836  15.844  1.00  0.00    -0.271 OA
HETATM   27  C2  UNL     1     -13.470  18.485  14.099  1.00  0.00     0.198 C 
ATOM     28  H1  UNL     1     -13.607  16.568  15.149  1.00  0.00     0.163 HD
HETATM   29  C16 UNL     1     -13.496  19.812  14.851  1.00  0.00     0.113 C 
HETATM   30  C15 UNL     1     -14.822  19.995  15.568  1.00  0.00     0.051 C 
BRANCH  27  31
HETATM   31  C1  UNL     1     -12.021  18.106  13.961  1.00  0.00     0.197 C 
HETATM   32  O1  UNL     1     -11.164  18.429  14.837  1.00  0.00    -0.646 OA
HETATM   33  O2  UNL     1     -11.669  17.389  12.837  1.00  0.00    -0.646 OA
ENDBRANCH  27  31
BRANCH  29  34
HETATM   34  C17 UNL     1     -13.396  20.928  13.878  1.00  0.00     0.226 C 
HETATM   35  O4  UNL     1     -14.114  20.874  12.848  1.00  0.00    -0.273 OA
HETATM   36  N7  UNL     1     -12.524  22.036  14.085  1.00  0.00    -0.352 N 
HETATM   37  C18 UNL     1     -11.662  22.174  15.230  1.00  0.00     0.125 C 
HETATM   38  C22 UNL     1     -12.483  23.101  13.100  1.00  0.00     0.125 C 
HETATM   39  C19 UNL     1     -10.221  22.451  14.805  1.00  0.00     0.020 C 
HETATM   40  C20 UNL     1     -10.243  23.652  13.882  1.00  0.00     0.003 C 
HETATM   41  C21 UNL     1     -11.036  23.228  12.641  1.00  0.00     0.020 C 
ENDBRANCH  29  34
ENDBRANCH   1  23
TORSDOF 3
ENDMDL
