MODEL 1
REMARK VINA RESULT: -7.460013078      0.000      0.000
REMARK  3 active torsions:
REMARK  status: ('A' for Active; 'I' for Inactive)
REMARK    1  A    between atoms: N4_14  and  C7_15 
REMARK    2  A    between atoms: C7_15  and  C8_16 
REMARK       I    between atoms: C8_16  and  N5_18 
REMARK    3  A    between atoms: N5_18  and  C9_20 
ROOT
HETATM    1  C1  UNL     1      -9.674  23.247  10.341  1.00  0.00     0.145 C 
HETATM    2  N1  UNL     1     -10.759  23.096  11.247  1.00  0.00    -0.387 N 
HETATM    3  C2  UNL     1     -11.931  23.859  10.977  1.00  0.00     0.352 C 
HETATM    4  N2  UNL     1     -12.936  23.603  12.009  1.00  0.00    -0.058 N 
ATOM      5  H21 UNL     1     -12.721  24.092  12.878  1.00  0.00     0.279 HD
ATOM      6  H22 UNL     1     -12.887  22.645  12.357  1.00  0.00     0.279 HD
HETATM    7  C3  UNL     1     -14.244  23.927  11.526  1.00  0.00     0.261 C 
HETATM    8  C4  UNL     1     -15.193  22.806  11.893  1.00  0.00     0.260 C 
HETATM    9  N3  UNL     1     -15.014  22.476  13.274  1.00  0.00    -0.072 N 
ATOM     10  H31 UNL     1     -15.633  23.020  13.873  1.00  0.00     0.277 HD
ATOM     11  H32 UNL     1     -14.119  22.812  13.628  1.00  0.00     0.277 HD
HETATM   12  C5  UNL     1     -15.175  21.056  13.494  1.00  0.00     0.262 C 
HETATM   13  C6  UNL     1     -14.024  20.536  14.340  1.00  0.00     0.300 C 
HETATM   14  N4  UNL     1     -13.739  19.129  14.057  1.00  0.00     0.100 N 
HETATM   15  C20 UNL     1     -12.316  19.061  13.768  1.00  0.00     0.292 C 
HETATM   16  C21 UNL     1     -12.001  18.877  12.309  1.00  0.00     0.152 C 
HETATM   17  N8  UNL     1     -12.572  19.850  11.431  1.00  0.00    -0.358 N 
ATOM     18  H8  UNL     1     -13.547  19.715  11.163  1.00  0.00     0.162 HD
HETATM   19  C22 UNL     1     -11.906  20.985  10.901  1.00  0.00     0.235 C 
HETATM   20  O2  UNL     1     -12.152  21.275   9.687  1.00  0.00    -0.272 OA
HETATM   21  C23 UNL     1     -10.990  21.762  11.735  1.00  0.00     0.220 C 
ENDROOT
BRANCH  14  22
HETATM   22  C7  UNL     1     -14.057  18.410  15.279  1.00  0.00     0.374 C 
BRANCH  22  23
HETATM   23  C8  UNL     1     -15.321  17.675  15.242  1.00  0.00     0.246 C 
HETATM   24  O1  UNL     1     -16.290  17.958  15.998  1.00  0.00    -0.272 OA
HETATM   25  N5  UNL     1     -15.507  16.600  14.338  1.00  0.00    -0.355 N 
ATOM     26  H5  UNL     1     -14.747  16.346  13.707  1.00  0.00     0.162 HD
BRANCH  25  27
HETATM   27  C9  UNL     1     -16.764  15.839  14.285  1.00  0.00     0.084 C 
HETATM   28  C10 UNL     1     -16.382  14.405  14.166  1.00  0.00     0.025 C 
HETATM   29  C11 UNL     1     -15.331  13.947  15.103  1.00  0.00     0.002 C 
HETATM   30  C12 UNL     1     -15.729  12.907  16.106  1.00  0.00     0.002 C 
HETATM   31  C13 UNL     1     -17.139  12.949  16.552  1.00  0.00     0.027 C 
HETATM   32  C14 UNL     1     -17.994  11.841  15.983  1.00  0.00     0.232 C 
HETATM   33  N6  UNL     1     -19.372  12.300  15.766  1.00  0.00    -0.074 N 
HETATM   34  C15 UNL     1     -19.918  11.806  14.546  1.00  0.00     0.251 C 
ATOM     35  H62 UNL     1     -19.969  12.065  16.559  1.00  0.00     0.277 HD
ATOM     36  H61 UNL     1     -19.434  13.317  15.814  1.00  0.00     0.277 HD
HETATM   37  C16 UNL     1     -20.148  12.810  13.467  1.00  0.00     0.146 C 
HETATM   38  N7  UNL     1     -20.595  14.090  13.855  1.00  0.00    -0.401 N 
HETATM   39  C17 UNL     1     -19.674  15.150  13.942  1.00  0.00     0.055 C 
ATOM     40  H7  UNL     1     -21.580  14.246  14.071  1.00  0.00     0.158 HD
HETATM   41  C18 UNL     1     -18.762  15.392  12.792  1.00  0.00     0.046 C 
HETATM   42  C19 UNL     1     -17.651  16.338  13.182  1.00  0.00     0.030 C 
ENDBRANCH  25  27
ENDBRANCH  22  23
ENDBRANCH  14  22
TORSDOF 3
ENDMDL
MODEL 2
REMARK VINA RESULT: -7.351417266      1.101      2.463
REMARK  3 active torsions:
REMARK  status: ('A' for Active; 'I' for Inactive)
REMARK    1  A    between atoms: N4_14  and  C7_15 
REMARK    2  A    between atoms: C7_15  and  C8_16 
REMARK       I    between atoms: C8_16  and  N5_18 
REMARK    3  A    between atoms: N5_18  and  C9_20 
ROOT
HETATM    1  C1  UNL     1      -9.695  23.101   9.987  1.00  0.00     0.145 C 
HETATM    2  N1  UNL     1     -10.727  23.009  10.960  1.00  0.00    -0.387 N 
HETATM    3  C2  UNL     1     -11.896  23.789  10.732  1.00  0.00     0.352 C 
HETATM    4  N2  UNL     1     -12.844  23.594  11.830  1.00  0.00    -0.058 N 
ATOM      5  H21 UNL     1     -12.566  24.108  12.666  1.00  0.00     0.279 HD
ATOM      6  H22 UNL     1     -12.794  22.649  12.209  1.00  0.00     0.279 HD
HETATM    7  C3  UNL     1     -14.170  23.932  11.413  1.00  0.00     0.261 C 
HETATM    8  C4  UNL     1     -15.120  22.848  11.877  1.00  0.00     0.260 C 
HETATM    9  N3  UNL     1     -14.867  22.562  13.255  1.00  0.00    -0.072 N 
ATOM     10  H31 UNL     1     -15.437  23.143  13.870  1.00  0.00     0.277 HD
ATOM     11  H32 UNL     1     -13.944  22.889  13.544  1.00  0.00     0.277 HD
HETATM   12  C5  UNL     1     -15.045  21.155  13.536  1.00  0.00     0.262 C 
HETATM   13  C6  UNL     1     -13.857  20.638  14.331  1.00  0.00     0.300 C 
HETATM   14  N4  UNL     1     -13.621  19.216  14.084  1.00  0.00     0.100 N 
HETATM   15  C20 UNL     1     -12.219  19.103  13.714  1.00  0.00     0.292 C 
HETATM   16  C21 UNL     1     -11.996  18.860  12.247  1.00  0.00     0.152 C 
HETATM   17  N8  UNL     1     -12.597  19.815  11.370  1.00  0.00    -0.358 N 
ATOM     18  H8  UNL     1     -13.589  19.695  11.164  1.00  0.00     0.162 HD
HETATM   19  C22 UNL     1     -11.939  20.915  10.759  1.00  0.00     0.235 C 
HETATM   20  O2  UNL     1     -12.250  21.168   9.552  1.00  0.00    -0.272 OA
HETATM   21  C23 UNL     1     -10.958  21.698  11.509  1.00  0.00     0.220 C 
ENDROOT
BRANCH  14  22
HETATM   22  C7  UNL     1     -13.881  18.548  15.348  1.00  0.00     0.374 C 
BRANCH  22  23
HETATM   23  C8  UNL     1     -14.508  17.232  15.224  1.00  0.00     0.246 C 
HETATM   24  O1  UNL     1     -14.005  16.307  14.529  1.00  0.00    -0.272 OA
HETATM   25  N5  UNL     1     -15.724  16.944  15.890  1.00  0.00    -0.355 N 
ATOM     26  H5  UNL     1     -16.157  17.667  16.466  1.00  0.00     0.162 HD
BRANCH  25  27
HETATM   27  C9  UNL     1     -16.381  15.634  15.777  1.00  0.00     0.084 C 
HETATM   28  C10 UNL     1     -17.842  15.903  15.683  1.00  0.00     0.025 C 
HETATM   29  C11 UNL     1     -18.233  16.962  14.725  1.00  0.00     0.002 C 
HETATM   30  C12 UNL     1     -19.071  16.539  13.556  1.00  0.00     0.002 C 
HETATM   31  C13 UNL     1     -18.848  15.159  13.071  1.00  0.00     0.027 C 
HETATM   32  C14 UNL     1     -19.958  14.198  13.426  1.00  0.00     0.232 C 
HETATM   33  N6  UNL     1     -19.429  12.849  13.661  1.00  0.00    -0.074 N 
HETATM   34  C15 UNL     1     -20.059  12.209  14.767  1.00  0.00     0.251 C 
ATOM     35  H62 UNL     1     -19.490  12.276  12.819  1.00  0.00     0.277 HD
ATOM     36  H61 UNL     1     -18.415  12.864  13.772  1.00  0.00     0.277 HD
HETATM   37  C16 UNL     1     -19.218  12.001  15.981  1.00  0.00     0.146 C 
HETATM   38  N7  UNL     1     -17.862  11.668  15.783  1.00  0.00    -0.401 N 
HETATM   39  C17 UNL     1     -16.879  12.668  15.899  1.00  0.00     0.055 C 
ATOM     40  H7  UNL     1     -17.596  10.709  15.558  1.00  0.00     0.158 HD
HETATM   41  C18 UNL     1     -16.891  13.537  17.105  1.00  0.00     0.046 C 
HETATM   42  C19 UNL     1     -15.988  14.733  16.911  1.00  0.00     0.030 C 
ENDBRANCH  25  27
ENDBRANCH  22  23
ENDBRANCH  14  22
TORSDOF 3
ENDMDL
MODEL 3
REMARK VINA RESULT: -7.320052470      4.327      5.213
REMARK  3 active torsions:
REMARK  status: ('A' for Active; 'I' for Inactive)
REMARK    1  A    between atoms: N4_14  and  C7_15 
REMARK    2  A    between atoms: C7_15  and  C8_16 
REMARK       I    between atoms: C8_16  and  N5_18 
REMARK    3  A    between atoms: N5_18  and  C9_20 
ROOT
HETATM    1  C1  UNL     1      -9.677  20.647   9.685  1.00  0.00     0.145 C 
HETATM    2  N1  UNL     1     -10.474  21.419  10.573  1.00  0.00    -0.387 N 
HETATM    3  C2  UNL     1     -11.200  22.504  10.004  1.00  0.00     0.352 C 
HETATM    4  N2  UNL     1     -11.948  23.201  11.051  1.00  0.00    -0.058 N 
ATOM      5  H21 UNL     1     -11.343  23.797  11.616  1.00  0.00     0.279 HD
ATOM      6  H22 UNL     1     -12.260  22.563  11.782  1.00  0.00     0.279 HD
HETATM    7  C3  UNL     1     -13.038  23.935  10.483  1.00  0.00     0.261 C 
HETATM    8  C4  UNL     1     -14.281  23.684  11.311  1.00  0.00     0.260 C 
HETATM    9  N3  UNL     1     -13.963  23.854  12.696  1.00  0.00    -0.072 N 
ATOM     10  H31 UNL     1     -14.113  24.815  13.000  1.00  0.00     0.277 HD
ATOM     11  H32 UNL     1     -12.958  23.793  12.861  1.00  0.00     0.277 HD
HETATM   12  C5  UNL     1     -14.695  22.915  13.517  1.00  0.00     0.262 C 
HETATM   13  C6  UNL     1     -13.746  22.245  14.497  1.00  0.00     0.300 C 
HETATM   14  N4  UNL     1     -14.202  20.902  14.856  1.00  0.00     0.100 N 
HETATM   15  C20 UNL     1     -13.072  20.020  14.617  1.00  0.00     0.292 C 
HETATM   16  C21 UNL     1     -13.216  19.171  13.384  1.00  0.00     0.152 C 
HETATM   17  N8  UNL     1     -13.467  19.887  12.173  1.00  0.00    -0.358 N 
ATOM     18  H8  UNL     1     -14.429  20.176  11.997  1.00  0.00     0.162 HD
HETATM   19  C22 UNL     1     -12.498  20.232  11.194  1.00  0.00     0.235 C 
HETATM   20  O2  UNL     1     -12.855  20.127   9.977  1.00  0.00    -0.272 OA
HETATM   21  C23 UNL     1     -11.168  20.683  11.598  1.00  0.00     0.220 C 
ENDROOT
BRANCH  14  22
HETATM   22  C7  UNL     1     -14.525  20.962  16.272  1.00  0.00     0.374 C 
BRANCH  22  23
HETATM   23  C8  UNL     1     -15.954  21.060  16.568  1.00  0.00     0.246 C 
HETATM   24  O1  UNL     1     -16.514  22.157  16.841  1.00  0.00    -0.272 OA
HETATM   25  N5  UNL     1     -16.776  19.906  16.557  1.00  0.00    -0.355 N 
ATOM     26  H5  UNL     1     -16.359  19.002  16.335  1.00  0.00     0.162 HD
BRANCH  25  27
HETATM   27  C9  UNL     1     -18.213  19.974  16.858  1.00  0.00     0.084 C 
HETATM   28  C10 UNL     1     -18.395  19.329  18.187  1.00  0.00     0.025 C 
HETATM   29  C11 UNL     1     -17.444  19.757  19.238  1.00  0.00     0.002 C 
HETATM   30  C12 UNL     1     -18.023  20.469  20.422  1.00  0.00     0.002 C 
HETATM   31  C13 UNL     1     -19.235  21.276  20.158  1.00  0.00     0.027 C 
HETATM   32  C14 UNL     1     -20.509  20.658  20.685  1.00  0.00     0.232 C 
HETATM   33  N6  UNL     1     -21.647  20.978  19.812  1.00  0.00    -0.074 N 
HETATM   34  C15 UNL     1     -22.519  19.865  19.637  1.00  0.00     0.251 C 
ATOM     35  H62 UNL     1     -22.154  21.795  20.151  1.00  0.00     0.277 HD
ATOM     36  H61 UNL     1     -21.331  21.345  18.914  1.00  0.00     0.277 HD
HETATM   37  C16 UNL     1     -22.542  19.245  18.281  1.00  0.00     0.146 C 
HETATM   38  N7  UNL     1     -22.433  20.108  17.171  1.00  0.00    -0.401 N 
HETATM   39  C17 UNL     1     -21.191  20.254  16.524  1.00  0.00     0.055 C 
ATOM     40  H7  UNL     1     -23.249  20.624  16.839  1.00  0.00     0.158 HD
HETATM   41  C18 UNL     1     -20.449  19.026  16.134  1.00  0.00     0.046 C 
HETATM   42  C19 UNL     1     -19.025  19.361  15.754  1.00  0.00     0.030 C 
ENDBRANCH  25  27
ENDBRANCH  22  23
ENDBRANCH  14  22
TORSDOF 3
ENDMDL
MODEL 4
REMARK VINA RESULT: -7.207385632      4.432      5.699
REMARK  3 active torsions:
REMARK  status: ('A' for Active; 'I' for Inactive)
REMARK    1  A    between atoms: N4_14  and  C7_15 
REMARK    2  A    between atoms: C7_15  and  C8_16 
REMARK       I    between atoms: C8_16  and  N5_18 
REMARK    3  A    between atoms: N5_18  and  C9_20 
ROOT
HETATM    1  C1  UNL     1     -10.815  20.201   9.641  1.00  0.00     0.145 C 
HETATM    2  N1  UNL     1     -12.008  20.479  10.360  1.00  0.00    -0.387 N 
HETATM    3  C2  UNL     1     -13.188  19.809   9.928  1.00  0.00     0.352 C 
HETATM    4  N2  UNL     1     -14.322  20.219  10.757  1.00  0.00    -0.058 N 
ATOM      5  H21 UNL     1     -14.660  21.148  10.504  1.00  0.00     0.279 HD
ATOM      6  H22 UNL     1     -14.038  20.417  11.716  1.00  0.00     0.279 HD
HETATM    7  C3  UNL     1     -15.365  19.240  10.700  1.00  0.00     0.261 C 
HETATM    8  C4  UNL     1     -15.863  18.974  12.105  1.00  0.00     0.260 C 
HETATM    9  N3  UNL     1     -16.105  20.223  12.760  1.00  0.00    -0.072 N 
ATOM     10  H31 UNL     1     -17.063  20.541  12.620  1.00  0.00     0.277 HD
ATOM     11  H32 UNL     1     -15.617  20.991  12.297  1.00  0.00     0.277 HD
HETATM   12  C5  UNL     1     -15.768  20.149  14.164  1.00  0.00     0.262 C 
HETATM   13  C6  UNL     1     -14.918  21.348  14.550  1.00  0.00     0.300 C 
HETATM   14  N4  UNL     1     -14.023  21.037  15.665  1.00  0.00     0.100 N 
HETATM   15  C20 UNL     1     -12.692  21.426  15.228  1.00  0.00     0.292 C 
HETATM   16  C21 UNL     1     -11.805  20.264  14.875  1.00  0.00     0.152 C 
HETATM   17  N8  UNL     1     -12.333  19.365  13.898  1.00  0.00    -0.358 N 
ATOM     18  H8  UNL     1     -12.998  18.664  14.225  1.00  0.00     0.162 HD
HETATM   19  C22 UNL     1     -12.017  19.359  12.514  1.00  0.00     0.235 C 
HETATM   20  O2  UNL     1     -11.879  18.221  11.965  1.00  0.00    -0.272 OA
HETATM   21  C23 UNL     1     -11.866  20.618  11.786  1.00  0.00     0.220 C 
ENDROOT
BRANCH  14  22
HETATM   22  C7  UNL     1     -14.470  21.866  16.772  1.00  0.00     0.374 C 
BRANCH  22  23
HETATM   23  C8  UNL     1     -14.695  21.142  18.023  1.00  0.00     0.246 C 
HETATM   24  O1  UNL     1     -13.969  21.312  19.041  1.00  0.00    -0.272 OA
HETATM   25  N5  UNL     1     -15.753  20.208  18.140  1.00  0.00    -0.355 N 
ATOM     26  H5  UNL     1     -16.365  20.050  17.339  1.00  0.00     0.162 HD
BRANCH  25  27
HETATM   27  C9  UNL     1     -15.997  19.461  19.382  1.00  0.00     0.084 C 
HETATM   28  C10 UNL     1     -16.023  18.021  19.008  1.00  0.00     0.025 C 
HETATM   29  C11 UNL     1     -14.917  17.571  18.131  1.00  0.00     0.002 C 
HETATM   30  C12 UNL     1     -13.972  16.559  18.703  1.00  0.00     0.002 C 
HETATM   31  C13 UNL     1     -13.765  16.627  20.167  1.00  0.00     0.027 C 
HETATM   32  C14 UNL     1     -14.444  15.516  20.934  1.00  0.00     0.232 C 
HETATM   33  N6  UNL     1     -14.892  15.987  22.251  1.00  0.00    -0.074 N 
HETATM   34  C15 UNL     1     -16.175  15.473  22.597  1.00  0.00     0.251 C 
ATOM     35  H62 UNL     1     -14.203  15.776  22.973  1.00  0.00     0.277 HD
ATOM     36  H61 UNL     1     -14.875  17.005  22.304  1.00  0.00     0.277 HD
HETATM   37  C16 UNL     1     -17.297  16.455  22.632  1.00  0.00     0.146 C 
HETATM   38  N7  UNL     1     -17.013  17.748  23.118  1.00  0.00    -0.401 N 
HETATM   39  C17 UNL     1     -16.797  18.799  22.207  1.00  0.00     0.055 C 
ATOM     40  H7  UNL     1     -16.964  17.921  24.122  1.00  0.00     0.158 HD
HETATM   41  C18 UNL     1     -17.787  19.005  21.116  1.00  0.00     0.046 C 
HETATM   42  C19 UNL     1     -17.240  19.947  20.069  1.00  0.00     0.030 C 
ENDBRANCH  25  27
ENDBRANCH  22  23
ENDBRANCH  14  22
TORSDOF 3
ENDMDL
MODEL 5
REMARK VINA RESULT: -7.202481553      3.878      5.347
REMARK  3 active torsions:
REMARK  status: ('A' for Active; 'I' for Inactive)
REMARK    1  A    between atoms: N4_14  and  C7_15 
REMARK    2  A    between atoms: C7_15  and  C8_16 
REMARK       I    between atoms: C8_16  and  N5_18 
REMARK    3  A    between atoms: N5_18  and  C9_20 
ROOT
HETATM    1  C1  UNL     1      -9.758  23.610  14.176  1.00  0.00     0.145 C 
HETATM    2  N1  UNL     1     -10.444  22.397  13.901  1.00  0.00    -0.387 N 
HETATM    3  C2  UNL     1      -9.968  21.227  14.557  1.00  0.00     0.352 C 
HETATM    4  N2  UNL     1     -10.767  20.071  14.151  1.00  0.00    -0.058 N 
ATOM      5  H21 UNL     1     -10.516  19.746  13.216  1.00  0.00     0.279 HD
ATOM      6  H22 UNL     1     -11.737  20.326  13.967  1.00  0.00     0.279 HD
HETATM    7  C3  UNL     1     -10.666  19.025  15.122  1.00  0.00     0.261 C 
HETATM    8  C4  UNL     1     -12.052  18.482  15.403  1.00  0.00     0.260 C 
HETATM    9  N3  UNL     1     -12.715  18.228  14.161  1.00  0.00    -0.072 N 
ATOM     10  H31 UNL     1     -12.550  17.276  13.836  1.00  0.00     0.277 HD
ATOM     11  H32 UNL     1     -12.277  18.734  13.391  1.00  0.00     0.277 HD
HETATM   12  C5  UNL     1     -14.128  18.521  14.256  1.00  0.00     0.262 C 
HETATM   13  C6  UNL     1     -14.556  19.366  13.068  1.00  0.00     0.300 C 
HETATM   14  N4  UNL     1     -15.693  20.225  13.398  1.00  0.00     0.100 N 
HETATM   15  C20 UNL     1     -15.301  21.570  13.012  1.00  0.00     0.292 C 
HETATM   16  C21 UNL     1     -14.960  22.461  14.175  1.00  0.00     0.152 C 
HETATM   17  N8  UNL     1     -13.956  21.958  15.058  1.00  0.00    -0.358 N 
ATOM     18  H8  UNL     1     -14.253  21.279  15.759  1.00  0.00     0.162 HD
HETATM   19  C22 UNL     1     -12.582  22.316  15.047  1.00  0.00     0.235 C 
HETATM   20  O2  UNL     1     -12.023  22.465  16.180  1.00  0.00    -0.272 OA
HETATM   21  C23 UNL     1     -11.876  22.497  13.780  1.00  0.00     0.220 C 
ENDROOT
BRANCH  14  22
HETATM   22  C7  UNL     1     -16.796  19.749  12.581  1.00  0.00     0.374 C 
BRANCH  22  23
HETATM   23  C8  UNL     1     -18.044  19.528  13.311  1.00  0.00     0.246 C 
HETATM   24  O1  UNL     1     -19.091  20.192  13.076  1.00  0.00    -0.272 OA
HETATM   25  N5  UNL     1     -18.125  18.544  14.326  1.00  0.00    -0.355 N 
ATOM     26  H5  UNL     1     -17.299  17.984  14.540  1.00  0.00     0.162 HD
BRANCH  25  27
HETATM   27  C9  UNL     1     -19.363  18.306  15.082  1.00  0.00     0.084 C 
HETATM   28  C10 UNL     1     -18.991  18.348  16.522  1.00  0.00     0.025 C 
HETATM   29  C11 UNL     1     -18.138  19.490  16.926  1.00  0.00     0.002 C 
HETATM   30  C12 UNL     1     -18.732  20.464  17.898  1.00  0.00     0.002 C 
HETATM   31  C13 UNL     1     -20.199  20.638  17.819  1.00  0.00     0.027 C 
HETATM   32  C14 UNL     1     -20.954  19.990  18.956  1.00  0.00     0.232 C 
HETATM   33  N6  UNL     1     -22.261  19.496  18.504  1.00  0.00    -0.074 N 
HETATM   34  C15 UNL     1     -22.582  18.228  19.071  1.00  0.00     0.251 C 
ATOM     35  H62 UNL     1     -22.997  20.178  18.684  1.00  0.00     0.277 HD
ATOM     36  H61 UNL     1     -22.312  19.468  17.486  1.00  0.00     0.277 HD
HETATM   37  C16 UNL     1     -22.591  17.066  18.136  1.00  0.00     0.146 C 
HETATM   38  N7  UNL     1     -23.080  17.285  16.832  1.00  0.00    -0.401 N 
HETATM   39  C17 UNL     1     -22.172  17.475  15.774  1.00  0.00     0.055 C 
ATOM     40  H7  UNL     1     -24.085  17.306  16.656  1.00  0.00     0.158 HD
HETATM   41  C18 UNL     1     -21.061  16.501  15.611  1.00  0.00     0.046 C 
HETATM   42  C19 UNL     1     -20.023  17.030  14.648  1.00  0.00     0.030 C 
ENDBRANCH  25  27
ENDBRANCH  22  23
ENDBRANCH  14  22
TORSDOF 3
ENDMDL
