MODEL 1
REMARK VINA RESULT: -7.629671886      0.000      0.000
REMARK  9 active torsions:
REMARK  status: ('A' for Active; 'I' for Inactive)
REMARK    1  A    between atoms: S1_2  and  C2_4 
REMARK    2  A    between atoms: C2_4  and  C3_5 
REMARK       I    between atoms: C3_5  and  N1_7 
REMARK    3  A    between atoms: N1_7  and  N2_9 
REMARK    4  A    between atoms: N2_9  and  C4_10 
REMARK    5  A    between atoms: C4_10  and  C5_11 
REMARK    6  A    between atoms: C7_13  and  C8_14 
REMARK    7  A    between atoms: C8_14  and  N3_15 
REMARK    8  A    between atoms: N3_15  and  N4_16 
REMARK    9  A    between atoms: C11_26  and  N7_27 
ROOT
HETATM    1  C5  UNL     1      14.088 -45.992   5.232  1.00  0.00     0.051 A 
HETATM    2  C6  UNL     1      14.937 -46.370   6.170  1.00  0.00     0.070 A 
HETATM    3  C7  UNL     1      15.143 -47.753   5.872  1.00  0.00     0.131 A 
HETATM    4  O4  UNL     1      14.482 -48.052   4.824  1.00  0.00    -0.235 OA
HETATM    5  N8  UNL     1      13.800 -47.037   4.382  1.00  0.00    -0.264 N 
ATOM      6  H8  UNL     1      13.180 -47.019   3.572  1.00  0.00     0.194 HD
ENDROOT
BRANCH   3   7
HETATM    7  C8  UNL     1      16.002 -48.616   6.651  1.00  0.00     0.248 C 
BRANCH   7   8
HETATM    8  N3  UNL     1      15.814 -49.169   7.585  1.00  0.00    -0.335 NA
BRANCH   8   9
HETATM    9  N4  UNL     1      15.594 -49.873   8.699  1.00  0.00    -0.224 N 
HETATM   10  C9  UNL     1      15.201 -49.040   9.605  1.00  0.00     0.161 A 
HETATM   11  S2  UNL     1      14.918 -47.364   9.620  1.00  0.00     0.014 SA
HETATM   12  C11 UNL     1      15.685 -49.358  10.937  1.00  0.00     0.141 A 
HETATM   13  N5  UNL     1      15.206 -46.487  10.928  1.00  0.00    -0.277 N 
HETATM   14  C10 UNL     1      15.673 -47.192  11.998  1.00  0.00     0.332 A 
ATOM     15  H5  UNL     1      15.052 -45.479  10.959  1.00  0.00     0.179 HD
HETATM   16  O3  UNL     1      15.895 -46.455  12.990  1.00  0.00    -0.246 OA
HETATM   17  N6  UNL     1      15.873 -48.506  11.904  1.00  0.00    -0.292 N 
ATOM     18  H6  UNL     1      16.247 -48.926  12.755  1.00  0.00     0.172 HD
ATOM     19  H4  UNL     1      15.714 -50.880   8.812  1.00  0.00     0.202 HD
BRANCH  12  20
HETATM   20  N7  UNL     1      16.177 -50.613  11.079  1.00  0.00    -0.383 N 
ATOM     21  H72 UNL     1      15.718 -51.374  10.578  1.00  0.00     0.157 HD
ATOM     22  H71 UNL     1      16.875 -50.718  11.815  1.00  0.00     0.157 HD
ENDBRANCH  12  20
ENDBRANCH   8   9
ENDBRANCH   7   8
ENDBRANCH   3   7
BRANCH   1  23
HETATM   23  C4  UNL     1      13.423 -44.687   4.975  1.00  0.00     0.194 C 
BRANCH  23  24
HETATM   24  N2  UNL     1      13.994 -44.004   3.826  1.00  0.00    -0.133 NA
BRANCH  24  25
HETATM   25  N1  UNL     1      15.187 -43.408   4.282  1.00  0.00    -0.270 N 
HETATM   26  C3  UNL     1      16.379 -44.081   3.908  1.00  0.00     0.265 C 
HETATM   27  O2  UNL     1      16.206 -45.216   3.301  1.00  0.00    -0.267 OA
ATOM     28  H1  UNL     1      15.193 -42.554   4.841  1.00  0.00     0.185 HD
BRANCH  26  29
HETATM   29  C2  UNL     1      17.737 -43.707   4.070  1.00  0.00     0.153 C 
BRANCH  29  30
HETATM   30  S1  UNL     1      18.035 -42.921   5.692  1.00  0.00     0.040 S 
HETATM   31  C1  UNL     1      18.418 -41.214   5.317  1.00  0.00     0.132 C 
HETATM   32  O1  UNL     1      16.661 -42.985   6.587  1.00  0.00    -0.254 OA
ENDBRANCH  29  30
ENDBRANCH  26  29
ENDBRANCH  24  25
ENDBRANCH  23  24
ENDBRANCH   1  23
TORSDOF 9
ENDMDL
MODEL 2
REMARK VINA RESULT: -7.227989945      1.562      1.939
REMARK  9 active torsions:
REMARK  status: ('A' for Active; 'I' for Inactive)
REMARK    1  A    between atoms: S1_2  and  C2_4 
REMARK    2  A    between atoms: C2_4  and  C3_5 
REMARK       I    between atoms: C3_5  and  N1_7 
REMARK    3  A    between atoms: N1_7  and  N2_9 
REMARK    4  A    between atoms: N2_9  and  C4_10 
REMARK    5  A    between atoms: C4_10  and  C5_11 
REMARK    6  A    between atoms: C7_13  and  C8_14 
REMARK    7  A    between atoms: C8_14  and  N3_15 
REMARK    8  A    between atoms: N3_15  and  N4_16 
REMARK    9  A    between atoms: C11_26  and  N7_27 
ROOT
HETATM    1  C5  UNL     1      14.772 -48.088   4.087  1.00  0.00     0.051 A 
HETATM    2  C6  UNL     1      15.876 -48.380   4.750  1.00  0.00     0.070 A 
HETATM    3  C7  UNL     1      15.387 -48.683   6.059  1.00  0.00     0.131 A 
HETATM    4  O4  UNL     1      14.115 -48.599   6.054  1.00  0.00    -0.235 OA
HETATM    5  N8  UNL     1      13.664 -48.226   4.894  1.00  0.00    -0.264 N 
ATOM      6  H8  UNL     1      12.690 -48.068   4.634  1.00  0.00     0.194 HD
ENDROOT
BRANCH   3   7
HETATM    7  C8  UNL     1      16.244 -49.053   7.163  1.00  0.00     0.248 C 
BRANCH   7   8
HETATM    8  N3  UNL     1      16.002 -49.428   8.170  1.00  0.00    -0.335 NA
BRANCH   8   9
HETATM    9  N4  UNL     1      15.699 -49.918   9.375  1.00  0.00    -0.224 N 
HETATM   10  C9  UNL     1      15.226 -48.941  10.076  1.00  0.00     0.161 A 
HETATM   11  S2  UNL     1      14.927 -47.298   9.754  1.00  0.00     0.014 SA
HETATM   12  C11 UNL     1      15.603 -48.994  11.477  1.00  0.00     0.141 A 
HETATM   13  N5  UNL     1      15.100 -46.187  10.893  1.00  0.00    -0.277 N 
HETATM   14  C10 UNL     1      15.485 -46.668  12.109  1.00  0.00     0.332 A 
ATOM     15  H5  UNL     1      14.935 -45.195  10.722  1.00  0.00     0.179 HD
HETATM   16  O3  UNL     1      15.619 -45.754  12.959  1.00  0.00    -0.246 OA
HETATM   17  N6  UNL     1      15.705 -47.972  12.279  1.00  0.00    -0.292 N 
ATOM     18  H6  UNL     1      16.012 -48.217  13.220  1.00  0.00     0.172 HD
ATOM     19  H4  UNL     1      15.819 -50.883   9.684  1.00  0.00     0.202 HD
BRANCH  12  20
HETATM   20  N7  UNL     1      16.094 -50.188  11.890  1.00  0.00    -0.383 N 
ATOM     21  H72 UNL     1      15.941 -51.006  11.299  1.00  0.00     0.157 HD
ATOM     22  H71 UNL     1      16.438 -50.200  12.850  1.00  0.00     0.157 HD
ENDBRANCH  12  20
ENDBRANCH   8   9
ENDBRANCH   7   8
ENDBRANCH   3   7
BRANCH   1  23
HETATM   23  C4  UNL     1      14.556 -47.646   2.683  1.00  0.00     0.194 C 
BRANCH  23  24
HETATM   24  N2  UNL     1      14.554 -46.196   2.565  1.00  0.00    -0.133 NA
BRANCH  24  25
HETATM   25  N1  UNL     1      15.661 -45.745   3.311  1.00  0.00    -0.270 N 
HETATM   26  C3  UNL     1      15.545 -44.428   3.826  1.00  0.00     0.265 C 
HETATM   27  O2  UNL     1      14.490 -43.775   3.443  1.00  0.00    -0.267 OA
ATOM     28  H1  UNL     1      16.487 -46.323   3.469  1.00  0.00     0.185 HD
BRANCH  26  29
HETATM   29  C2  UNL     1      16.384 -43.709   4.714  1.00  0.00     0.153 C 
BRANCH  29  30
HETATM   30  S1  UNL     1      15.626 -43.532   6.367  1.00  0.00     0.040 S 
HETATM   31  C1  UNL     1      15.370 -45.207   6.942  1.00  0.00     0.132 C 
HETATM   32  O1  UNL     1      16.677 -42.769   7.369  1.00  0.00    -0.254 OA
ENDBRANCH  29  30
ENDBRANCH  26  29
ENDBRANCH  24  25
ENDBRANCH  23  24
ENDBRANCH   1  23
TORSDOF 9
ENDMDL
MODEL 3
REMARK VINA RESULT: -7.109251778      2.092      2.707
REMARK  9 active torsions:
REMARK  status: ('A' for Active; 'I' for Inactive)
REMARK    1  A    between atoms: S1_2  and  C2_4 
REMARK    2  A    between atoms: C2_4  and  C3_5 
REMARK       I    between atoms: C3_5  and  N1_7 
REMARK    3  A    between atoms: N1_7  and  N2_9 
REMARK    4  A    between atoms: N2_9  and  C4_10 
REMARK    5  A    between atoms: C4_10  and  C5_11 
REMARK    6  A    between atoms: C7_13  and  C8_14 
REMARK    7  A    between atoms: C8_14  and  N3_15 
REMARK    8  A    between atoms: N3_15  and  N4_16 
REMARK    9  A    between atoms: C11_26  and  N7_27 
ROOT
HETATM    1  C5  UNL     1      14.175 -48.158   3.695  1.00  0.00     0.051 A 
HETATM    2  C6  UNL     1      14.390 -47.773   4.940  1.00  0.00     0.070 A 
HETATM    3  C7  UNL     1      13.298 -48.366   5.646  1.00  0.00     0.131 A 
HETATM    4  O4  UNL     1      12.598 -49.048   4.828  1.00  0.00    -0.235 OA
HETATM    5  N8  UNL     1      13.058 -48.960   3.615  1.00  0.00    -0.264 N 
ATOM      6  H8  UNL     1      12.672 -49.396   2.777  1.00  0.00     0.194 HD
ENDROOT
BRANCH   3   7
HETATM    7  C8  UNL     1      13.091 -48.209   7.069  1.00  0.00     0.248 C 
BRANCH   7   8
HETATM    8  N3  UNL     1      13.641 -47.616   7.816  1.00  0.00    -0.335 NA
BRANCH   8   9
HETATM    9  N4  UNL     1      14.340 -46.898   8.700  1.00  0.00    -0.224 N 
HETATM   10  C9  UNL     1      15.154 -47.710   9.290  1.00  0.00     0.161 A 
HETATM   11  S2  UNL     1      15.478 -49.372   9.135  1.00  0.00     0.014 SA
HETATM   12  C11 UNL     1      15.358 -47.410  10.697  1.00  0.00     0.141 A 
HETATM   13  N5  UNL     1      15.891 -50.257  10.403  1.00  0.00    -0.277 N 
HETATM   14  C10 UNL     1      15.968 -49.571  11.580  1.00  0.00     0.332 A 
ATOM     15  H5  UNL     1      16.082 -51.257  10.337  1.00  0.00     0.179 HD
HETATM   16  O3  UNL     1      16.281 -50.314  12.542  1.00  0.00    -0.246 OA
HETATM   17  N6  UNL     1      15.693 -48.267  11.619  1.00  0.00    -0.292 N 
ATOM     18  H6  UNL     1      15.758 -47.862  12.552  1.00  0.00     0.172 HD
ATOM     19  H4  UNL     1      14.248 -45.898   8.876  1.00  0.00     0.202 HD
BRANCH  12  20
HETATM   20  N7  UNL     1      14.944 -46.178  11.081  1.00  0.00    -0.383 N 
ATOM     21  H72 UNL     1      15.275 -45.812  11.975  1.00  0.00     0.157 HD
ATOM     22  H71 UNL     1      14.195 -45.782  10.514  1.00  0.00     0.157 HD
ENDBRANCH  12  20
ENDBRANCH   8   9
ENDBRANCH   7   8
ENDBRANCH   3   7
BRANCH   1  23
HETATM   23  C4  UNL     1      14.908 -47.864   2.435  1.00  0.00     0.194 C 
BRANCH  23  24
HETATM   24  N2  UNL     1      14.907 -46.443   2.125  1.00  0.00    -0.133 NA
BRANCH  24  25
HETATM   25  N1  UNL     1      15.684 -45.827   3.126  1.00  0.00    -0.270 N 
HETATM   26  C3  UNL     1      15.114 -44.661   3.700  1.00  0.00     0.265 C 
HETATM   27  O2  UNL     1      14.014 -44.252   3.144  1.00  0.00    -0.267 OA
ATOM     28  H1  UNL     1      16.591 -46.193   3.417  1.00  0.00     0.185 HD
BRANCH  26  29
HETATM   29  C2  UNL     1      15.538 -43.875   4.801  1.00  0.00     0.153 C 
BRANCH  29  30
HETATM   30  S1  UNL     1      17.136 -43.053   4.470  1.00  0.00     0.040 S 
HETATM   31  C1  UNL     1      17.675 -42.430   6.059  1.00  0.00     0.132 C 
HETATM   32  O1  UNL     1      18.216 -44.163   3.928  1.00  0.00    -0.254 OA
ENDBRANCH  29  30
ENDBRANCH  26  29
ENDBRANCH  24  25
ENDBRANCH  23  24
ENDBRANCH   1  23
TORSDOF 9
ENDMDL
MODEL 4
REMARK VINA RESULT: -6.745911548      4.165      9.261
REMARK  9 active torsions:
REMARK  status: ('A' for Active; 'I' for Inactive)
REMARK    1  A    between atoms: S1_2  and  C2_4 
REMARK    2  A    between atoms: C2_4  and  C3_5 
REMARK       I    between atoms: C3_5  and  N1_7 
REMARK    3  A    between atoms: N1_7  and  N2_9 
REMARK    4  A    between atoms: N2_9  and  C4_10 
REMARK    5  A    between atoms: C4_10  and  C5_11 
REMARK    6  A    between atoms: C7_13  and  C8_14 
REMARK    7  A    between atoms: C8_14  and  N3_15 
REMARK    8  A    between atoms: N3_15  and  N4_16 
REMARK    9  A    between atoms: C11_26  and  N7_27 
ROOT
HETATM    1  C5  UNL     1      15.496 -49.243  10.508  1.00  0.00     0.051 A 
HETATM    2  C6  UNL     1      15.315 -47.938  10.590  1.00  0.00     0.070 A 
HETATM    3  C7  UNL     1      15.168 -47.553   9.221  1.00  0.00     0.131 A 
HETATM    4  O4  UNL     1      15.223 -48.596   8.490  1.00  0.00    -0.235 OA
HETATM    5  N8  UNL     1      15.436 -49.666   9.198  1.00  0.00    -0.264 N 
ATOM      6  H8  UNL     1      15.538 -50.621   8.854  1.00  0.00     0.194 HD
ENDROOT
BRANCH   3   7
HETATM    7  C8  UNL     1      14.959 -46.187   8.796  1.00  0.00     0.248 C 
BRANCH   7   8
HETATM    8  N3  UNL     1      15.227 -45.674   7.858  1.00  0.00    -0.335 NA
BRANCH   8   9
HETATM    9  N4  UNL     1      15.582 -45.034   6.741  1.00  0.00    -0.224 N 
HETATM   10  C9  UNL     1      14.935 -45.582   5.766  1.00  0.00     0.161 A 
HETATM   11  S2  UNL     1      13.799 -46.843   5.669  1.00  0.00     0.014 SA
HETATM   12  C11 UNL     1      15.697 -45.659   4.532  1.00  0.00     0.141 A 
HETATM   13  N5  UNL     1      13.750 -47.818   4.401  1.00  0.00    -0.277 N 
HETATM   14  C10 UNL     1      14.669 -47.544   3.432  1.00  0.00     0.332 A 
ATOM     15  H5  UNL     1      13.083 -48.586   4.324  1.00  0.00     0.179 HD
HETATM   16  O3  UNL     1      14.596 -48.346   2.469  1.00  0.00    -0.246 OA
HETATM   17  N6  UNL     1      15.531 -46.539   3.586  1.00  0.00    -0.292 N 
ATOM     18  H6  UNL     1      16.189 -46.440   2.813  1.00  0.00     0.172 HD
ATOM     19  H4  UNL     1      16.241 -44.258   6.671  1.00  0.00     0.202 HD
BRANCH  12  20
HETATM   20  N7  UNL     1      16.803 -44.875   4.496  1.00  0.00    -0.383 N 
ATOM     21  H72 UNL     1      16.679 -43.864   4.430  1.00  0.00     0.157 HD
ATOM     22  H71 UNL     1      17.681 -45.379   4.371  1.00  0.00     0.157 HD
ENDBRANCH  12  20
ENDBRANCH   8   9
ENDBRANCH   7   8
ENDBRANCH   3   7
BRANCH   1  23
HETATM   23  C4  UNL     1      15.754 -50.268  11.555  1.00  0.00     0.194 C 
BRANCH  23  24
HETATM   24  N2  UNL     1      16.549 -51.375  11.047  1.00  0.00    -0.133 NA
BRANCH  24  25
HETATM   25  N1  UNL     1      16.018 -52.537  11.641  1.00  0.00    -0.270 N 
HETATM   26  C3  UNL     1      16.979 -53.502  12.042  1.00  0.00     0.265 C 
HETATM   27  O2  UNL     1      18.204 -53.238  11.700  1.00  0.00    -0.267 OA
ATOM     28  H1  UNL     1      15.016 -52.676  11.774  1.00  0.00     0.185 HD
BRANCH  26  29
HETATM   29  C2  UNL     1      16.826 -54.704  12.778  1.00  0.00     0.153 C 
BRANCH  29  30
HETATM   30  S1  UNL     1      16.887 -56.173  11.694  1.00  0.00     0.040 S 
HETATM   31  C1  UNL     1      15.355 -56.133  10.770  1.00  0.00     0.132 C 
HETATM   32  O1  UNL     1      18.150 -56.031  10.656  1.00  0.00    -0.254 OA
ENDBRANCH  29  30
ENDBRANCH  26  29
ENDBRANCH  24  25
ENDBRANCH  23  24
ENDBRANCH   1  23
TORSDOF 9
ENDMDL
MODEL 5
REMARK VINA RESULT: -6.677734885      2.284      6.550
REMARK  9 active torsions:
REMARK  status: ('A' for Active; 'I' for Inactive)
REMARK    1  A    between atoms: S1_2  and  C2_4 
REMARK    2  A    between atoms: C2_4  and  C3_5 
REMARK       I    between atoms: C3_5  and  N1_7 
REMARK    3  A    between atoms: N1_7  and  N2_9 
REMARK    4  A    between atoms: N2_9  and  C4_10 
REMARK    5  A    between atoms: C4_10  and  C5_11 
REMARK    6  A    between atoms: C7_13  and  C8_14 
REMARK    7  A    between atoms: C8_14  and  N3_15 
REMARK    8  A    between atoms: N3_15  and  N4_16 
REMARK    9  A    between atoms: C11_26  and  N7_27 
ROOT
HETATM    1  C5  UNL     1      13.594 -48.407   6.281  1.00  0.00     0.051 A 
HETATM    2  C6  UNL     1      14.401 -47.411   5.965  1.00  0.00     0.070 A 
HETATM    3  C7  UNL     1      14.002 -47.093   4.629  1.00  0.00     0.131 A 
HETATM    4  O4  UNL     1      13.025 -47.842   4.300  1.00  0.00    -0.235 OA
HETATM    5  N8  UNL     1      12.726 -48.682   5.247  1.00  0.00    -0.264 N 
ATOM      6  H8  UNL     1      11.998 -49.397   5.228  1.00  0.00     0.194 HD
ENDROOT
BRANCH   3   7
HETATM    7  C8  UNL     1      14.622 -46.052   3.840  1.00  0.00     0.248 C 
BRANCH   7   8
HETATM    8  N3  UNL     1      15.632 -45.616   3.888  1.00  0.00    -0.335 NA
BRANCH   8   9
HETATM    9  N4  UNL     1      16.872 -45.123   3.952  1.00  0.00    -0.224 N 
HETATM   10  C9  UNL     1      17.019 -44.613   5.131  1.00  0.00     0.161 A 
HETATM   11  S2  UNL     1      16.012 -44.492   6.495  1.00  0.00     0.014 SA
HETATM   12  C11 UNL     1      17.830 -43.408   5.146  1.00  0.00     0.141 A 
HETATM   13  N5  UNL     1      16.082 -43.222   7.466  1.00  0.00    -0.277 N 
HETATM   14  C10 UNL     1      17.005 -42.282   7.114  1.00  0.00     0.332 A 
ATOM     15  H5  UNL     1      15.483 -43.124   8.286  1.00  0.00     0.179 HD
HETATM   16  O3  UNL     1      17.008 -41.303   7.900  1.00  0.00    -0.246 OA
HETATM   17  N6  UNL     1      17.754 -42.448   6.024  1.00  0.00    -0.292 N 
ATOM     18  H6  UNL     1      18.392 -41.674   5.842  1.00  0.00     0.172 HD
ATOM     19  H4  UNL     1      17.572 -45.144   3.210  1.00  0.00     0.202 HD
BRANCH  12  20
HETATM   20  N7  UNL     1      18.557 -43.197   4.022  1.00  0.00    -0.383 N 
ATOM     21  H72 UNL     1      19.385 -43.772   3.864  1.00  0.00     0.157 HD
ATOM     22  H71 UNL     1      18.305 -42.357   3.500  1.00  0.00     0.157 HD
ENDBRANCH  12  20
ENDBRANCH   8   9
ENDBRANCH   7   8
ENDBRANCH   3   7
BRANCH   1  23
HETATM   23  C4  UNL     1      13.493 -49.239   7.509  1.00  0.00     0.194 C 
BRANCH  23  24
HETATM   24  N2  UNL     1      14.795 -49.482   8.109  1.00  0.00    -0.133 NA
BRANCH  24  25
HETATM   25  N1  UNL     1      14.945 -48.509   9.117  1.00  0.00    -0.270 N 
HETATM   26  C3  UNL     1      15.456 -48.992  10.350  1.00  0.00     0.265 C 
HETATM   27  O2  UNL     1      15.602 -50.280  10.422  1.00  0.00    -0.267 OA
ATOM     28  H1  UNL     1      14.704 -47.528   8.972  1.00  0.00     0.185 HD
BRANCH  26  29
HETATM   29  C2  UNL     1      15.856 -48.294  11.518  1.00  0.00     0.153 C 
BRANCH  29  30
HETATM   30  S1  UNL     1      15.058 -46.655  11.633  1.00  0.00     0.040 S 
HETATM   31  C1  UNL     1      15.904 -45.820  12.972  1.00  0.00     0.132 C 
HETATM   32  O1  UNL     1      15.306 -45.830  10.237  1.00  0.00    -0.254 OA
ENDBRANCH  29  30
ENDBRANCH  26  29
ENDBRANCH  24  25
ENDBRANCH  23  24
ENDBRANCH   1  23
TORSDOF 9
ENDMDL
