MODEL 1
REMARK VINA RESULT: -8.270440097      0.000      0.000
REMARK  9 active torsions:
REMARK  status: ('A' for Active; 'I' for Inactive)
REMARK    1  A    between atoms: N1_2  and  C2_4 
REMARK    2  A    between atoms: C3_7  and  C4_8 
REMARK    3  A    between atoms: C8_13  and  C9_14 
REMARK    4  A    between atoms: C9_14  and  N3_15 
REMARK    5  A    between atoms: N3_15  and  S1_17 
REMARK    6  A    between atoms: S1_17  and  C10_20 
REMARK    7  A    between atoms: C10_20  and  O4_21 
REMARK    8  A    between atoms: C11_25  and  O5_26 
REMARK    9  A    between atoms: C13_30  and  N6_31 
ROOT
HETATM    1  C4  UNL     1      15.018 -46.723   8.543  1.00  0.00     0.063 A 
HETATM    2  C5  UNL     1      15.557 -45.573   8.024  1.00  0.00     0.058 A 
HETATM    3  C6  UNL     1      15.399 -45.137   6.717  1.00  0.00     0.093 A 
HETATM    4  O1  UNL     1      15.876 -44.148   6.007  1.00  0.00    -0.354 OA
HETATM    5  C7  UNL     1      16.358 -43.154   5.312  1.00  0.00     0.210 C 
HETATM    6  C8  UNL     1      14.570 -46.029   5.955  1.00  0.00     0.063 A 
HETATM    7  N4  UNL     1      14.097 -47.100   6.492  1.00  0.00    -0.336 N 
ATOM      8  H4  UNL     1      13.524 -47.684   5.882  1.00  0.00     0.168 HD
HETATM    9  C11 UNL     1      14.259 -47.552   7.747  1.00  0.00     0.156 A 
ENDROOT
BRANCH   6  10
HETATM   10  C9  UNL     1      13.869 -45.427   4.689  1.00  0.00     0.192 C 
BRANCH  10  11
HETATM   11  N3  UNL     1      14.198 -46.272   3.629  1.00  0.00    -0.312 N 
ATOM     12  H3  UNL     1      14.282 -45.759   2.751  1.00  0.00     0.172 HD
BRANCH  11  13
HETATM   13  S1  UNL     1      14.479 -47.839   3.430  1.00  0.00     0.248 S 
HETATM   14  O2  UNL     1      13.240 -48.695   3.605  1.00  0.00    -0.204 OA
HETATM   15  O3  UNL     1      15.606 -48.500   4.169  1.00  0.00    -0.204 OA
BRANCH  13  16
HETATM   16  C10 UNL     1      14.907 -48.047   1.642  1.00  0.00     0.326 C 
BRANCH  16  17
HETATM   17  O4  UNL     1      15.841 -49.103   1.666  1.00  0.00    -0.384 OA
ATOM     18  H4  UNL     1      16.554 -48.765   1.137  1.00  0.00     0.210 HD
ENDBRANCH  16  17
ENDBRANCH  13  16
ENDBRANCH  11  13
ENDBRANCH  10  11
ENDBRANCH   6  10
BRANCH   1  19
HETATM   19  C3  UNL     1      15.246 -47.050   9.946  1.00  0.00     0.151 A 
HETATM   20  N2  UNL     1      15.481 -48.283  10.375  1.00  0.00    -0.175 N 
HETATM   21  C2  UNL     1      15.614 -48.604  11.675  1.00  0.00     0.693 A 
ATOM     22  H2  UNL     1      15.565 -49.026   9.682  1.00  0.00     0.186 HD
HETATM   23  N7  UNL     1      15.493 -47.600  12.619  1.00  0.00    -0.023 N 
HETATM   24  C13 UNL     1      15.258 -46.378  12.240  1.00  0.00     0.692 A 
ATOM     25  H7  UNL     1      15.588 -47.817  13.611  1.00  0.00     0.203 HD
HETATM   26  N5  UNL     1      15.145 -46.101  10.892  1.00  0.00    -0.175 N 
ATOM     27  H5  UNL     1      14.978 -45.137  10.603  1.00  0.00     0.186 HD
BRANCH  21  28
HETATM   28  N1  UNL     1      16.053 -49.681  12.194  1.00  0.00    -0.230 N 
HETATM   29  C1  UNL     1      15.721 -50.867  11.133  1.00  0.00     0.165 C 
ATOM     30  H1  UNL     1      16.519 -49.781  13.096  1.00  0.00     0.177 HD
ENDBRANCH  21  28
BRANCH  24  31
HETATM   31  N6  UNL     1      15.157 -45.345  13.084  1.00  0.00    -0.234 N 
ATOM     32  H62 UNL     1      15.943 -44.751  13.348  1.00  0.00     0.174 HD
ATOM     33  H61 UNL     1      14.228 -45.135  13.449  1.00  0.00     0.174 HD
ENDBRANCH  24  31
ENDBRANCH   1  19
BRANCH   9  34
HETATM   34  O5  UNL     1      13.667 -48.746   8.063  1.00  0.00    -0.340 OA
HETATM   35  C12 UNL     1      12.801 -49.556   7.362  1.00  0.00     0.211 C 
ENDBRANCH   9  34
TORSDOF 9
ENDMDL
MODEL 2
REMARK VINA RESULT: -7.683216875      0.662      1.099
REMARK  9 active torsions:
REMARK  status: ('A' for Active; 'I' for Inactive)
REMARK    1  A    between atoms: N1_2  and  C2_4 
REMARK    2  A    between atoms: C3_7  and  C4_8 
REMARK    3  A    between atoms: C8_13  and  C9_14 
REMARK    4  A    between atoms: C9_14  and  N3_15 
REMARK    5  A    between atoms: N3_15  and  S1_17 
REMARK    6  A    between atoms: S1_17  and  C10_20 
REMARK    7  A    between atoms: C10_20  and  O4_21 
REMARK    8  A    between atoms: C11_25  and  O5_26 
REMARK    9  A    between atoms: C13_30  and  N6_31 
ROOT
HETATM    1  C4  UNL     1      14.968 -46.720   8.529  1.00  0.00     0.063 A 
HETATM    2  C5  UNL     1      15.532 -45.591   7.990  1.00  0.00     0.058 A 
HETATM    3  C6  UNL     1      15.354 -45.156   6.685  1.00  0.00     0.093 A 
HETATM    4  O1  UNL     1      15.845 -44.187   5.957  1.00  0.00    -0.354 OA
HETATM    5  C7  UNL     1      16.342 -43.212   5.245  1.00  0.00     0.210 C 
HETATM    6  C8  UNL     1      14.476 -46.023   5.950  1.00  0.00     0.063 A 
HETATM    7  N4  UNL     1      13.982 -47.075   6.505  1.00  0.00    -0.336 N 
ATOM      8  H4  UNL     1      13.374 -47.642   5.914  1.00  0.00     0.168 HD
HETATM    9  C11 UNL     1      14.161 -47.526   7.757  1.00  0.00     0.156 A 
ENDROOT
BRANCH   6  10
HETATM   10  C9  UNL     1      13.763 -45.403   4.699  1.00  0.00     0.192 C 
BRANCH  10  11
HETATM   11  N3  UNL     1      14.352 -46.001   3.585  1.00  0.00    -0.312 N 
ATOM     12  H3  UNL     1      14.766 -45.309   2.961  1.00  0.00     0.172 HD
BRANCH  11  13
HETATM   13  S1  UNL     1      14.548 -47.493   3.029  1.00  0.00     0.248 S 
HETATM   14  O2  UNL     1      15.027 -47.536   1.591  1.00  0.00    -0.204 OA
HETATM   15  O3  UNL     1      13.447 -48.503   3.181  1.00  0.00    -0.204 OA
BRANCH  13  16
HETATM   16  C10 UNL     1      15.966 -48.201   3.984  1.00  0.00     0.326 C 
BRANCH  16  17
HETATM   17  O4  UNL     1      15.343 -49.173   4.794  1.00  0.00    -0.384 OA
ATOM     18  H4  UNL     1      15.988 -49.325   5.475  1.00  0.00     0.210 HD
ENDBRANCH  16  17
ENDBRANCH  13  16
ENDBRANCH  11  13
ENDBRANCH  10  11
ENDBRANCH   6  10
BRANCH   1  19
HETATM   19  C3  UNL     1      15.221 -47.048   9.928  1.00  0.00     0.151 A 
HETATM   20  N2  UNL     1      15.466 -48.280  10.351  1.00  0.00    -0.175 N 
HETATM   21  C2  UNL     1      15.623 -48.603  11.648  1.00  0.00     0.693 A 
ATOM     22  H2  UNL     1      15.538 -49.023   9.656  1.00  0.00     0.186 HD
HETATM   23  N7  UNL     1      15.517 -47.599  12.596  1.00  0.00    -0.023 N 
HETATM   24  C13 UNL     1      15.274 -46.378  12.222  1.00  0.00     0.692 A 
ATOM     25  H7  UNL     1      15.630 -47.817  13.585  1.00  0.00     0.203 HD
HETATM   26  N5  UNL     1      15.136 -46.099  10.876  1.00  0.00    -0.175 N 
ATOM     27  H5  UNL     1      14.963 -45.135  10.591  1.00  0.00     0.186 HD
BRANCH  21  28
HETATM   28  N1  UNL     1      16.072 -49.680  12.158  1.00  0.00    -0.230 N 
HETATM   29  C1  UNL     1      15.706 -50.868  11.112  1.00  0.00     0.165 C 
ATOM     30  H1  UNL     1      16.564 -49.778  13.046  1.00  0.00     0.177 HD
ENDBRANCH  21  28
BRANCH  24  31
HETATM   31  N6  UNL     1      15.186 -45.346  13.068  1.00  0.00    -0.234 N 
ATOM     32  H62 UNL     1      14.484 -45.276  13.804  1.00  0.00     0.174 HD
ATOM     33  H61 UNL     1      15.888 -44.612  12.978  1.00  0.00     0.174 HD
ENDBRANCH  24  31
ENDBRANCH   1  19
BRANCH   9  34
HETATM   34  O5  UNL     1      13.538 -48.698   8.095  1.00  0.00    -0.340 OA
HETATM   35  C12 UNL     1      12.790 -49.588   7.356  1.00  0.00     0.211 C 
ENDBRANCH   9  34
TORSDOF 9
ENDMDL
MODEL 3
REMARK VINA RESULT: -7.659610478      0.619      1.178
REMARK  9 active torsions:
REMARK  status: ('A' for Active; 'I' for Inactive)
REMARK    1  A    between atoms: N1_2  and  C2_4 
REMARK    2  A    between atoms: C3_7  and  C4_8 
REMARK    3  A    between atoms: C8_13  and  C9_14 
REMARK    4  A    between atoms: C9_14  and  N3_15 
REMARK    5  A    between atoms: N3_15  and  S1_17 
REMARK    6  A    between atoms: S1_17  and  C10_20 
REMARK    7  A    between atoms: C10_20  and  O4_21 
REMARK    8  A    between atoms: C11_25  and  O5_26 
REMARK    9  A    between atoms: C13_30  and  N6_31 
ROOT
HETATM    1  C4  UNL     1      14.975 -46.818   8.542  1.00  0.00     0.063 A 
HETATM    2  C5  UNL     1      15.478 -45.665   7.992  1.00  0.00     0.058 A 
HETATM    3  C6  UNL     1      15.288 -45.260   6.679  1.00  0.00     0.093 A 
HETATM    4  O1  UNL     1      15.728 -44.274   5.942  1.00  0.00    -0.354 OA
HETATM    5  C7  UNL     1      16.176 -43.282   5.220  1.00  0.00     0.210 C 
HETATM    6  C8  UNL     1      14.468 -46.186   5.949  1.00  0.00     0.063 A 
HETATM    7  N4  UNL     1      14.030 -47.257   6.515  1.00  0.00    -0.336 N 
ATOM      8  H4  UNL     1      13.461 -47.866   5.927  1.00  0.00     0.168 HD
HETATM    9  C11 UNL     1      14.224 -47.680   7.775  1.00  0.00     0.156 A 
ENDROOT
BRANCH   6  10
HETATM   10  C9  UNL     1      13.732 -45.626   4.684  1.00  0.00     0.192 C 
BRANCH  10  11
HETATM   11  N3  UNL     1      14.310 -46.266   3.588  1.00  0.00    -0.312 N 
ATOM     12  H3  UNL     1      14.653 -45.597   2.899  1.00  0.00     0.172 HD
BRANCH  11  13
HETATM   13  S1  UNL     1      14.578 -47.780   3.128  1.00  0.00     0.248 S 
HETATM   14  O2  UNL     1      15.416 -48.565   4.117  1.00  0.00    -0.204 OA
HETATM   15  O3  UNL     1      15.101 -48.065   1.749  1.00  0.00    -0.204 OA
BRANCH  13  16
HETATM   16  C10 UNL     1      12.930 -48.619   3.185  1.00  0.00     0.326 C 
BRANCH  16  17
HETATM   17  O4  UNL     1      12.792 -48.943   4.550  1.00  0.00    -0.384 OA
ATOM     18  H4  UNL     1      13.598 -49.411   4.737  1.00  0.00     0.210 HD
ENDBRANCH  16  17
ENDBRANCH  13  16
ENDBRANCH  11  13
ENDBRANCH  10  11
ENDBRANCH   6  10
BRANCH   1  19
HETATM   19  C3  UNL     1      15.234 -47.111   9.947  1.00  0.00     0.151 A 
HETATM   20  N2  UNL     1      15.482 -48.333  10.399  1.00  0.00    -0.175 N 
HETATM   21  C2  UNL     1      15.644 -48.623  11.703  1.00  0.00     0.693 A 
ATOM     22  H2  UNL     1      15.553 -49.092   9.723  1.00  0.00     0.186 HD
HETATM   23  N7  UNL     1      15.541 -47.597  12.627  1.00  0.00    -0.023 N 
HETATM   24  C13 UNL     1      15.295 -46.386  12.224  1.00  0.00     0.692 A 
ATOM     25  H7  UNL     1      15.658 -47.791  13.621  1.00  0.00     0.203 HD
HETATM   26  N5  UNL     1      15.152 -46.140  10.872  1.00  0.00    -0.175 N 
ATOM     27  H5  UNL     1      14.976 -45.183  10.564  1.00  0.00     0.186 HD
BRANCH  21  28
HETATM   28  N1  UNL     1      16.097 -49.687  12.238  1.00  0.00    -0.230 N 
HETATM   29  C1  UNL     1      15.749 -50.897  11.212  1.00  0.00     0.165 C 
ATOM     30  H1  UNL     1      16.581 -49.765  13.133  1.00  0.00     0.177 HD
ENDBRANCH  21  28
BRANCH  24  31
HETATM   31  N6  UNL     1      15.209 -45.333  13.045  1.00  0.00    -0.234 N 
ATOM     32  H62 UNL     1      15.688 -45.276  13.944  1.00  0.00     0.174 HD
ATOM     33  H61 UNL     1      14.653 -44.540  12.725  1.00  0.00     0.174 HD
ENDBRANCH  24  31
ENDBRANCH   1  19
BRANCH   9  34
HETATM   34  O5  UNL     1      13.666 -48.881   8.124  1.00  0.00    -0.340 OA
HETATM   35  C12 UNL     1      12.739 -49.682   7.494  1.00  0.00     0.211 C 
ENDBRANCH   9  34
TORSDOF 9
ENDMDL
MODEL 4
REMARK VINA RESULT: -7.129325370      0.489      1.971
REMARK  9 active torsions:
REMARK  status: ('A' for Active; 'I' for Inactive)
REMARK    1  A    between atoms: N1_2  and  C2_4 
REMARK    2  A    between atoms: C3_7  and  C4_8 
REMARK    3  A    between atoms: C8_13  and  C9_14 
REMARK    4  A    between atoms: C9_14  and  N3_15 
REMARK    5  A    between atoms: N3_15  and  S1_17 
REMARK    6  A    between atoms: S1_17  and  C10_20 
REMARK    7  A    between atoms: C10_20  and  O4_21 
REMARK    8  A    between atoms: C11_25  and  O5_26 
REMARK    9  A    between atoms: C13_30  and  N6_31 
ROOT
HETATM    1  C4  UNL     1      14.965 -46.753   8.411  1.00  0.00     0.063 A 
HETATM    2  C5  UNL     1      15.533 -45.611   7.905  1.00  0.00     0.058 A 
HETATM    3  C6  UNL     1      15.429 -45.184   6.590  1.00  0.00     0.093 A 
HETATM    4  O1  UNL     1      15.939 -44.204   5.891  1.00  0.00    -0.354 OA
HETATM    5  C7  UNL     1      16.455 -43.218   5.208  1.00  0.00     0.210 C 
HETATM    6  C8  UNL     1      14.622 -46.076   5.803  1.00  0.00     0.063 A 
HETATM    7  N4  UNL     1      14.122 -47.139   6.329  1.00  0.00    -0.336 N 
ATOM      8  H4  UNL     1      13.568 -47.723   5.703  1.00  0.00     0.168 HD
HETATM    9  C11 UNL     1      14.232 -47.583   7.593  1.00  0.00     0.156 A 
ENDROOT
BRANCH   6  10
HETATM   10  C9  UNL     1      13.975 -45.479   4.507  1.00  0.00     0.192 C 
BRANCH  10  11
HETATM   11  N3  UNL     1      14.285 -46.367   3.478  1.00  0.00    -0.312 N 
ATOM     12  H3  UNL     1      14.416 -45.884   2.589  1.00  0.00     0.172 HD
BRANCH  11  13
HETATM   13  S1  UNL     1      14.489 -47.951   3.326  1.00  0.00     0.248 S 
HETATM   14  O2  UNL     1      13.210 -48.740   3.525  1.00  0.00    -0.204 OA
HETATM   15  O3  UNL     1      15.583 -48.644   4.086  1.00  0.00    -0.204 OA
BRANCH  13  16
HETATM   16  C10 UNL     1      14.906 -48.234   1.546  1.00  0.00     0.326 C 
BRANCH  16  17
HETATM   17  O4  UNL     1      15.947 -49.183   1.616  1.00  0.00    -0.384 OA
ATOM     18  H4  UNL     1      15.931 -49.576   0.751  1.00  0.00     0.210 HD
ENDBRANCH  16  17
ENDBRANCH  13  16
ENDBRANCH  11  13
ENDBRANCH  10  11
ENDBRANCH   6  10
BRANCH   1  19
HETATM   19  C3  UNL     1      15.137 -47.071   9.825  1.00  0.00     0.151 A 
HETATM   20  N2  UNL     1      15.136 -46.152  10.780  1.00  0.00    -0.175 N 
HETATM   21  C2  UNL     1      15.371 -46.427  12.076  1.00  0.00     0.693 A 
ATOM     22  H2  UNL     1      14.947 -45.184  10.519  1.00  0.00     0.186 HD
HETATM   23  N7  UNL     1      15.637 -47.738  12.436  1.00  0.00    -0.023 N 
HETATM   24  C13 UNL     1      15.651 -48.668  11.528  1.00  0.00     0.692 A 
ATOM     25  H7  UNL     1      15.820 -47.973  13.411  1.00  0.00     0.203 HD
HETATM   26  N5  UNL     1      15.388 -48.333  10.214  1.00  0.00    -0.175 N 
ATOM     27  H5  UNL     1      15.384 -49.072   9.511  1.00  0.00     0.186 HD
BRANCH  21  28
HETATM   28  N1  UNL     1      15.183 -45.693  13.100  1.00  0.00    -0.230 N 
HETATM   29  C1  UNL     1      16.658 -45.299  13.656  1.00  0.00     0.165 C 
ATOM     30  H1  UNL     1      14.286 -45.408  13.492  1.00  0.00     0.177 HD
ENDBRANCH  21  28
BRANCH  24  31
HETATM   31  N6  UNL     1      15.868 -49.961  11.793  1.00  0.00    -0.234 N 
ATOM     32  H62 UNL     1      16.649 -50.494  11.409  1.00  0.00     0.174 HD
ATOM     33  H61 UNL     1      15.226 -50.415  12.441  1.00  0.00     0.174 HD
ENDBRANCH  24  31
ENDBRANCH   1  19
BRANCH   9  34
HETATM   34  O5  UNL     1      13.619 -48.770   7.895  1.00  0.00    -0.340 OA
HETATM   35  C12 UNL     1      12.767 -49.574   7.171  1.00  0.00     0.211 C 
ENDBRANCH   9  34
TORSDOF 9
ENDMDL
MODEL 5
REMARK VINA RESULT: -6.586470818      0.799      2.248
REMARK  9 active torsions:
REMARK  status: ('A' for Active; 'I' for Inactive)
REMARK    1  A    between atoms: N1_2  and  C2_4 
REMARK    2  A    between atoms: C3_7  and  C4_8 
REMARK    3  A    between atoms: C8_13  and  C9_14 
REMARK    4  A    between atoms: C9_14  and  N3_15 
REMARK    5  A    between atoms: N3_15  and  S1_17 
REMARK    6  A    between atoms: S1_17  and  C10_20 
REMARK    7  A    between atoms: C10_20  and  O4_21 
REMARK    8  A    between atoms: C11_25  and  O5_26 
REMARK    9  A    between atoms: C13_30  and  N6_31 
ROOT
HETATM    1  C4  UNL     1      14.911 -46.772   8.361  1.00  0.00     0.063 A 
HETATM    2  C5  UNL     1      15.511 -45.657   7.834  1.00  0.00     0.058 A 
HETATM    3  C6  UNL     1      15.390 -45.234   6.519  1.00  0.00     0.093 A 
HETATM    4  O1  UNL     1      15.922 -44.279   5.801  1.00  0.00    -0.354 OA
HETATM    5  C7  UNL     1      16.460 -43.319   5.099  1.00  0.00     0.210 C 
HETATM    6  C8  UNL     1      14.528 -46.095   5.759  1.00  0.00     0.063 A 
HETATM    7  N4  UNL     1      13.998 -47.135   6.304  1.00  0.00    -0.336 N 
ATOM      8  H4  UNL     1      13.405 -47.699   5.696  1.00  0.00     0.168 HD
HETATM    9  C11 UNL     1      14.123 -47.576   7.567  1.00  0.00     0.156 A 
ENDROOT
BRANCH   6  10
HETATM   10  C9  UNL     1      13.872 -45.479   4.476  1.00  0.00     0.192 C 
BRANCH  10  11
HETATM   11  N3  UNL     1      14.467 -46.124   3.392  1.00  0.00    -0.312 N 
ATOM     12  H3  UNL     1      14.971 -45.470   2.794  1.00  0.00     0.172 HD
BRANCH  11  13
HETATM   13  S1  UNL     1      14.565 -47.628   2.840  1.00  0.00     0.248 S 
HETATM   14  O2  UNL     1      14.988 -47.704   1.386  1.00  0.00    -0.204 OA
HETATM   15  O3  UNL     1      13.418 -48.577   3.038  1.00  0.00    -0.204 OA
BRANCH  13  16
HETATM   16  C10 UNL     1      15.977 -48.404   3.749  1.00  0.00     0.326 C 
BRANCH  16  17
HETATM   17  O4  UNL     1      15.326 -49.218   4.699  1.00  0.00    -0.384 OA
ATOM     18  H4  UNL     1      15.133 -48.609   5.402  1.00  0.00     0.210 HD
ENDBRANCH  16  17
ENDBRANCH  13  16
ENDBRANCH  11  13
ENDBRANCH  10  11
ENDBRANCH   6  10
BRANCH   1  19
HETATM   19  C3  UNL     1      15.106 -47.090   9.772  1.00  0.00     0.151 A 
HETATM   20  N2  UNL     1      15.100 -46.172  10.729  1.00  0.00    -0.175 N 
HETATM   21  C2  UNL     1      15.356 -46.446  12.022  1.00  0.00     0.693 A 
ATOM     22  H2  UNL     1      14.889 -45.208  10.472  1.00  0.00     0.186 HD
HETATM   23  N7  UNL     1      15.651 -47.751  12.375  1.00  0.00    -0.023 N 
HETATM   24  C13 UNL     1      15.671 -48.680  11.465  1.00  0.00     0.692 A 
ATOM     25  H7  UNL     1      15.851 -47.985  13.347  1.00  0.00     0.203 HD
HETATM   26  N5  UNL     1      15.386 -48.347  10.155  1.00  0.00    -0.175 N 
ATOM     27  H5  UNL     1      15.387 -49.085   9.451  1.00  0.00     0.186 HD
BRANCH  21  28
HETATM   28  N1  UNL     1      15.167 -45.717  13.049  1.00  0.00    -0.230 N 
HETATM   29  C1  UNL     1      16.641 -45.349  13.625  1.00  0.00     0.165 C 
ATOM     30  H1  UNL     1      14.269 -45.422  13.433  1.00  0.00     0.177 HD
ENDBRANCH  21  28
BRANCH  24  31
HETATM   31  N6  UNL     1      15.917 -49.969  11.725  1.00  0.00    -0.234 N 
ATOM     32  H62 UNL     1      15.620 -50.735  11.120  1.00  0.00     0.174 HD
ATOM     33  H61 UNL     1      16.459 -50.177  12.563  1.00  0.00     0.174 HD
ENDBRANCH  24  31
ENDBRANCH   1  19
BRANCH   9  34
HETATM   34  O5  UNL     1      13.470 -48.735   7.893  1.00  0.00    -0.340 OA
HETATM   35  C12 UNL     1      12.712 -49.605   7.140  1.00  0.00     0.211 C 
ENDBRANCH   9  34
TORSDOF 9
ENDMDL
