MODEL 1
REMARK VINA RESULT: -8.861921162      0.000      0.000
REMARK  8 active torsions:
REMARK  status: ('A' for Active; 'I' for Inactive)
REMARK    1  A    between atoms: C3_10  and  N4_11 
REMARK    2  A    between atoms: N4_11  and  N5_13 
REMARK    3  A    between atoms: C4_15  and  C5_16 
REMARK    4  A    between atoms: C8_19  and  O1_20 
REMARK    5  A    between atoms: N6_22  and  C9_23 
REMARK    6  A    between atoms: C9_23  and  C10_24 
REMARK    7  A    between atoms: C10_24  and  C11_25 
REMARK    8  A    between atoms: C11_25  and  N7_26 
ROOT
HETATM    1  C5  UNL     1      14.486 -48.147   5.138  1.00  0.00     0.049 A 
HETATM    2  C6  UNL     1      14.974 -49.075   4.215  1.00  0.00     0.023 A 
HETATM    3  C7  UNL     1      15.151 -48.681   2.907  1.00  0.00     0.057 A 
HETATM    4  C8  UNL     1      14.870 -47.406   2.460  1.00  0.00     0.144 A 
HETATM    5  N6  UNL     1      14.397 -46.517   3.370  1.00  0.00    -0.294 N 
HETATM    6  C16 UNL     1      14.216 -46.880   4.650  1.00  0.00     0.261 A 
HETATM    7  O2  UNL     1      13.773 -46.039   5.490  1.00  0.00    -0.267 OA
ENDROOT
BRANCH   1   8
HETATM    8  C4  UNL     1      14.281 -48.517   6.519  1.00  0.00     0.124 C 
HETATM    9  N5  UNL     1      15.286 -48.812   7.248  1.00  0.00    -0.309 N 
ATOM     10  H5  UNL     1      16.207 -48.771   6.812  1.00  0.00     0.186 HD
BRANCH   9  11
HETATM   11  N4  UNL     1      15.232 -49.185   8.594  1.00  0.00    -0.282 N 
ATOM     12  H4  UNL     1      15.162 -50.168   8.863  1.00  0.00     0.188 HD
BRANCH  11  13
HETATM   13  C3  UNL     1      15.278 -48.169   9.567  1.00  0.00     0.176 A 
HETATM   14  N3  UNL     1      15.008 -46.962   9.252  1.00  0.00    -0.334 N 
HETATM   15  C2  UNL     1      15.012 -45.838  10.116  1.00  0.00     0.183 A 
ATOM     16  H3  UNL     1      14.765 -46.788   8.277  1.00  0.00     0.168 HD
HETATM   17  N2  UNL     1      15.364 -46.098  11.491  1.00  0.00    -0.336 N 
HETATM   18  C1  UNL     1      15.672 -47.419  11.899  1.00  0.00     0.154 A 
ATOM     19  H2  UNL     1      15.390 -45.334  12.167  1.00  0.00     0.168 HD
HETATM   20  N1  UNL     1      15.980 -47.612  13.140  1.00  0.00    -0.382 N 
HETATM   21  C17 UNL     1      15.636 -48.506  10.932  1.00  0.00     0.260 A 
ATOM     22  H12 UNL     1      16.004 -46.850  13.818  1.00  0.00     0.157 HD
ATOM     23  H11 UNL     1      16.202 -48.564  13.434  1.00  0.00     0.157 HD
HETATM   24  O3  UNL     1      15.909 -49.682  11.288  1.00  0.00    -0.280 OA
ENDBRANCH  11  13
ENDBRANCH   9  11
ENDBRANCH   1   8
BRANCH   5  25
HETATM   25  C9  UNL     1      14.097 -45.175   2.912  1.00  0.00     0.136 C 
BRANCH  25  26
HETATM   26  C10 UNL     1      14.455 -44.145   3.968  1.00  0.00     0.040 C 
BRANCH  26  27
HETATM   27  C11 UNL     1      15.729 -43.431   3.588  1.00  0.00     0.118 C 
BRANCH  27  28
HETATM   28  N7  UNL     1      16.782 -43.814   4.455  1.00  0.00    -0.409 N 
HETATM   29  C12 UNL     1      16.453 -44.202   5.775  1.00  0.00     0.144 C 
HETATM   30  C13 UNL     1      16.628 -43.084   6.790  1.00  0.00     0.251 C 
HETATM   31  N8  UNL     1      17.715 -42.203   6.500  1.00  0.00    -0.072 N 
HETATM   32  C14 UNL     1      18.689 -42.826   5.645  1.00  0.00     0.251 C 
ATOM     33  H82 UNL     1      17.386 -41.321   6.109  1.00  0.00     0.277 HD
ATOM     34  H81 UNL     1      18.144 -41.848   7.355  1.00  0.00     0.277 HD
HETATM   35  C15 UNL     1      18.016 -43.110   4.315  1.00  0.00     0.144 C 
ENDBRANCH  27  28
ENDBRANCH  26  27
ENDBRANCH  25  26
ENDBRANCH   5  25
BRANCH   4  36
HETATM   36  O1  UNL     1      15.045 -47.003   1.148  1.00  0.00    -0.346 OA
ATOM     37  H1  UNL     1      15.786 -47.264   0.614  1.00  0.00     0.219 HD
ENDBRANCH   4  36
TORSDOF 8
ENDMDL
MODEL 2
REMARK VINA RESULT: -7.982346795      0.498      1.008
REMARK  8 active torsions:
REMARK  status: ('A' for Active; 'I' for Inactive)
REMARK    1  A    between atoms: C3_10  and  N4_11 
REMARK    2  A    between atoms: N4_11  and  N5_13 
REMARK    3  A    between atoms: C4_15  and  C5_16 
REMARK    4  A    between atoms: C8_19  and  O1_20 
REMARK    5  A    between atoms: N6_22  and  C9_23 
REMARK    6  A    between atoms: C9_23  and  C10_24 
REMARK    7  A    between atoms: C10_24  and  C11_25 
REMARK    8  A    between atoms: C11_25  and  N7_26 
ROOT
HETATM    1  C5  UNL     1      14.564 -48.171   5.180  1.00  0.00     0.049 A 
HETATM    2  C6  UNL     1      15.125 -49.119   4.321  1.00  0.00     0.023 A 
HETATM    3  C7  UNL     1      15.318 -48.786   2.999  1.00  0.00     0.057 A 
HETATM    4  C8  UNL     1      14.985 -47.553   2.476  1.00  0.00     0.144 A 
HETATM    5  N6  UNL     1      14.442 -46.643   3.325  1.00  0.00    -0.294 N 
HETATM    6  C16 UNL     1      14.244 -46.947   4.618  1.00  0.00     0.261 A 
HETATM    7  O2  UNL     1      13.735 -46.088   5.399  1.00  0.00    -0.267 OA
ENDROOT
BRANCH   1   8
HETATM    8  C4  UNL     1      14.340 -48.479   6.573  1.00  0.00     0.124 C 
HETATM    9  N5  UNL     1      15.302 -48.924   7.283  1.00  0.00    -0.309 N 
ATOM     10  H5  UNL     1      16.204 -49.044   6.823  1.00  0.00     0.186 HD
BRANCH   9  11
HETATM   11  N4  UNL     1      15.225 -49.260   8.637  1.00  0.00    -0.282 N 
ATOM     12  H4  UNL     1      15.140 -50.234   8.932  1.00  0.00     0.188 HD
BRANCH  11  13
HETATM   13  C3  UNL     1      15.267 -48.219   9.584  1.00  0.00     0.176 A 
HETATM   14  N3  UNL     1      14.993 -47.021   9.236  1.00  0.00    -0.334 N 
HETATM   15  C2  UNL     1      14.993 -45.874  10.071  1.00  0.00     0.183 A 
ATOM     16  H3  UNL     1      14.749 -46.873   8.257  1.00  0.00     0.168 HD
HETATM   17  N2  UNL     1      15.346 -46.097  11.452  1.00  0.00    -0.336 N 
HETATM   18  C1  UNL     1      15.659 -47.405  11.894  1.00  0.00     0.154 A 
ATOM     19  H2  UNL     1      15.370 -45.315  12.107  1.00  0.00     0.168 HD
HETATM   20  N1  UNL     1      15.969 -47.565  13.140  1.00  0.00    -0.382 N 
HETATM   21  C17 UNL     1      15.627 -48.517  10.957  1.00  0.00     0.260 A 
ATOM     22  H12 UNL     1      15.991 -46.785  13.797  1.00  0.00     0.157 HD
ATOM     23  H11 UNL     1      16.195 -48.507  13.459  1.00  0.00     0.157 HD
HETATM   24  O3  UNL     1      15.904 -49.683  11.344  1.00  0.00    -0.280 OA
ENDBRANCH  11  13
ENDBRANCH   9  11
ENDBRANCH   1   8
BRANCH   5  25
HETATM   25  C9  UNL     1      14.087 -45.345   2.787  1.00  0.00     0.136 C 
BRANCH  25  26
HETATM   26  C10 UNL     1      14.542 -44.230   3.710  1.00  0.00     0.040 C 
BRANCH  26  27
HETATM   27  C11 UNL     1      16.049 -44.158   3.735  1.00  0.00     0.118 C 
BRANCH  27  28
HETATM   28  N7  UNL     1      16.475 -43.112   4.591  1.00  0.00    -0.409 N 
HETATM   29  C12 UNL     1      17.608 -42.355   4.210  1.00  0.00     0.144 C 
HETATM   30  C13 UNL     1      18.891 -42.819   4.879  1.00  0.00     0.251 C 
HETATM   31  N8  UNL     1      18.709 -43.303   6.212  1.00  0.00    -0.072 N 
HETATM   32  C14 UNL     1      17.500 -42.793   6.800  1.00  0.00     0.251 C 
ATOM     33  H82 UNL     1      18.737 -44.322   6.245  1.00  0.00     0.277 HD
ATOM     34  H81 UNL     1      19.520 -43.101   6.795  1.00  0.00     0.277 HD
HETATM   35  C15 UNL     1      16.334 -43.334   5.995  1.00  0.00     0.144 C 
ENDBRANCH  27  28
ENDBRANCH  26  27
ENDBRANCH  25  26
ENDBRANCH   5  25
BRANCH   4  36
HETATM   36  O1  UNL     1      15.176 -47.210   1.149  1.00  0.00    -0.346 OA
ATOM     37  H1  UNL     1      15.417 -46.337   0.863  1.00  0.00     0.219 HD
ENDBRANCH   4  36
TORSDOF 8
ENDMDL
MODEL 3
REMARK VINA RESULT: -7.933758493      0.784      1.250
REMARK  8 active torsions:
REMARK  status: ('A' for Active; 'I' for Inactive)
REMARK    1  A    between atoms: C3_10  and  N4_11 
REMARK    2  A    between atoms: N4_11  and  N5_13 
REMARK    3  A    between atoms: C4_15  and  C5_16 
REMARK    4  A    between atoms: C8_19  and  O1_20 
REMARK    5  A    between atoms: N6_22  and  C9_23 
REMARK    6  A    between atoms: C9_23  and  C10_24 
REMARK    7  A    between atoms: C10_24  and  C11_25 
REMARK    8  A    between atoms: C11_25  and  N7_26 
ROOT
HETATM    1  C5  UNL     1      14.517 -48.165   5.141  1.00  0.00     0.049 A 
HETATM    2  C6  UNL     1      15.121 -49.110   4.309  1.00  0.00     0.023 A 
HETATM    3  C7  UNL     1      15.350 -48.785   2.990  1.00  0.00     0.057 A 
HETATM    4  C8  UNL     1      15.011 -47.564   2.446  1.00  0.00     0.144 A 
HETATM    5  N6  UNL     1      14.424 -46.657   3.269  1.00  0.00    -0.294 N 
HETATM    6  C16 UNL     1      14.191 -46.953   4.558  1.00  0.00     0.261 A 
HETATM    7  O2  UNL     1      13.642 -46.096   5.316  1.00  0.00    -0.267 OA
ENDROOT
BRANCH   1   8
HETATM    8  C4  UNL     1      14.255 -48.465   6.530  1.00  0.00     0.124 C 
HETATM    9  N5  UNL     1      15.193 -48.922   7.264  1.00  0.00    -0.309 N 
ATOM     10  H5  UNL     1      16.104 -49.058   6.825  1.00  0.00     0.186 HD
BRANCH   9  11
HETATM   11  N4  UNL     1      15.079 -49.253   8.617  1.00  0.00    -0.282 N 
ATOM     12  H4  UNL     1      14.925 -50.219   8.909  1.00  0.00     0.188 HD
BRANCH  11  13
HETATM   13  C3  UNL     1      15.182 -48.217   9.564  1.00  0.00     0.176 A 
HETATM   14  N3  UNL     1      14.903 -47.015   9.238  1.00  0.00    -0.334 N 
HETATM   15  C2  UNL     1      14.959 -45.873  10.077  1.00  0.00     0.183 A 
ATOM     16  H3  UNL     1      14.609 -46.860   8.274  1.00  0.00     0.168 HD
HETATM   17  N2  UNL     1      15.383 -46.106  11.436  1.00  0.00    -0.336 N 
HETATM   18  C1  UNL     1      15.705 -47.420  11.855  1.00  0.00     0.154 A 
ATOM     19  H2  UNL     1      15.450 -45.329  12.093  1.00  0.00     0.168 HD
HETATM   20  N1  UNL     1      16.078 -47.590  13.082  1.00  0.00    -0.382 N 
HETATM   21  C17 UNL     1      15.611 -48.527  10.915  1.00  0.00     0.260 A 
ATOM     22  H12 UNL     1      16.143 -46.814  13.741  1.00  0.00     0.157 HD
ATOM     23  H11 UNL     1      16.310 -48.536  13.384  1.00  0.00     0.157 HD
HETATM   24  O3  UNL     1      15.896 -49.698  11.281  1.00  0.00    -0.280 OA
ENDBRANCH  11  13
ENDBRANCH   9  11
ENDBRANCH   1   8
BRANCH   5  25
HETATM   25  C9  UNL     1      14.061 -45.370   2.708  1.00  0.00     0.136 C 
BRANCH  25  26
HETATM   26  C10 UNL     1      14.163 -44.273   3.752  1.00  0.00     0.040 C 
BRANCH  26  27
HETATM   27  C11 UNL     1      15.422 -43.468   3.540  1.00  0.00     0.118 C 
BRANCH  27  28
HETATM   28  N7  UNL     1      16.161 -43.389   4.746  1.00  0.00    -0.409 N 
HETATM   29  C12 UNL     1      17.387 -44.091   4.827  1.00  0.00     0.144 C 
HETATM   30  C13 UNL     1      17.261 -45.439   5.519  1.00  0.00     0.251 C 
HETATM   31  N8  UNL     1      16.297 -45.461   6.573  1.00  0.00    -0.072 N 
HETATM   32  C14 UNL     1      16.034 -44.142   7.080  1.00  0.00     0.251 C 
ATOM     33  H82 UNL     1      15.437 -45.926   6.282  1.00  0.00     0.277 HD
ATOM     34  H81 UNL     1      16.576 -46.098   7.319  1.00  0.00     0.277 HD
HETATM   35  C15 UNL     1      15.408 -43.335   5.959  1.00  0.00     0.144 C 
ENDBRANCH  27  28
ENDBRANCH  26  27
ENDBRANCH  25  26
ENDBRANCH   5  25
BRANCH   4  36
HETATM   36  O1  UNL     1      15.236 -47.229   1.123  1.00  0.00    -0.346 OA
ATOM     37  H1  UNL     1      15.245 -47.863   0.416  1.00  0.00     0.219 HD
ENDBRANCH   4  36
TORSDOF 8
ENDMDL
MODEL 4
REMARK VINA RESULT: -7.930945919      1.081      1.489
REMARK  8 active torsions:
REMARK  status: ('A' for Active; 'I' for Inactive)
REMARK    1  A    between atoms: C3_10  and  N4_11 
REMARK    2  A    between atoms: N4_11  and  N5_13 
REMARK    3  A    between atoms: C4_15  and  C5_16 
REMARK    4  A    between atoms: C8_19  and  O1_20 
REMARK    5  A    between atoms: N6_22  and  C9_23 
REMARK    6  A    between atoms: C9_23  and  C10_24 
REMARK    7  A    between atoms: C10_24  and  C11_25 
REMARK    8  A    between atoms: C11_25  and  N7_26 
ROOT
HETATM    1  C5  UNL     1      14.263 -48.362   4.889  1.00  0.00     0.049 A 
HETATM    2  C6  UNL     1      14.958 -49.079   3.912  1.00  0.00     0.023 A 
HETATM    3  C7  UNL     1      15.292 -48.446   2.735  1.00  0.00     0.057 A 
HETATM    4  C8  UNL     1      14.974 -47.130   2.471  1.00  0.00     0.144 A 
HETATM    5  N6  UNL     1      14.298 -46.448   3.431  1.00  0.00    -0.294 N 
HETATM    6  C16 UNL     1      13.962 -47.045   4.586  1.00  0.00     0.261 A 
HETATM    7  O2  UNL     1      13.330 -46.397   5.474  1.00  0.00    -0.267 OA
ENDROOT
BRANCH   1   8
HETATM    8  C4  UNL     1      13.889 -48.987   6.136  1.00  0.00     0.124 C 
HETATM    9  N5  UNL     1      14.755 -49.108   7.065  1.00  0.00    -0.309 N 
ATOM     10  H5  UNL     1      15.692 -48.751   6.878  1.00  0.00     0.186 HD
BRANCH   9  11
HETATM   11  N4  UNL     1      14.530 -49.690   8.315  1.00  0.00    -0.282 N 
ATOM     12  H4  UNL     1      14.042 -50.583   8.398  1.00  0.00     0.188 HD
BRANCH  11  13
HETATM   13  C3  UNL     1      14.994 -49.009   9.457  1.00  0.00     0.176 A 
HETATM   14  N3  UNL     1      15.522 -49.656  10.423  1.00  0.00    -0.334 N 
HETATM   15  C2  UNL     1      16.032 -49.114  11.630  1.00  0.00     0.183 A 
ATOM     16  H3  UNL     1      15.584 -50.668  10.315  1.00  0.00     0.168 HD
HETATM   17  N2  UNL     1      15.932 -47.681  11.772  1.00  0.00    -0.336 N 
HETATM   18  C1  UNL     1      15.356 -46.912  10.732  1.00  0.00     0.154 A 
ATOM     19  H2  UNL     1      16.275 -47.225  12.617  1.00  0.00     0.168 HD
HETATM   20  N1  UNL     1      15.286 -45.631  10.895  1.00  0.00    -0.382 N 
HETATM   21  C17 UNL     1      14.864 -47.566   9.529  1.00  0.00     0.260 A 
ATOM     22  H12 UNL     1      15.631 -45.172  11.738  1.00  0.00     0.157 HD
ATOM     23  H11 UNL     1      14.871 -45.076  10.146  1.00  0.00     0.157 HD
HETATM   24  O3  UNL     1      14.350 -46.888   8.601  1.00  0.00    -0.280 OA
ENDBRANCH  11  13
ENDBRANCH   9  11
ENDBRANCH   1   8
BRANCH   5  25
HETATM   25  C9  UNL     1      13.957 -45.065   3.164  1.00  0.00     0.136 C 
BRANCH  25  26
HETATM   26  C10 UNL     1      14.564 -44.143   4.206  1.00  0.00     0.040 C 
BRANCH  26  27
HETATM   27  C11 UNL     1      15.834 -43.523   3.675  1.00  0.00     0.118 C 
BRANCH  27  28
HETATM   28  N7  UNL     1      16.920 -43.818   4.535  1.00  0.00    -0.409 N 
HETATM   29  C12 UNL     1      16.633 -44.204   5.866  1.00  0.00     0.144 C 
HETATM   30  C13 UNL     1      16.742 -43.059   6.859  1.00  0.00     0.251 C 
HETATM   31  N8  UNL     1      17.765 -42.112   6.542  1.00  0.00    -0.072 N 
HETATM   32  C14 UNL     1      18.768 -42.682   5.685  1.00  0.00     0.251 C 
ATOM     33  H82 UNL     1      17.372 -41.261   6.139  1.00  0.00     0.277 HD
ATOM     34  H81 UNL     1      18.178 -41.714   7.385  1.00  0.00     0.277 HD
HETATM   35  C15 UNL     1      18.102 -43.035   4.369  1.00  0.00     0.144 C 
ENDBRANCH  27  28
ENDBRANCH  26  27
ENDBRANCH  25  26
ENDBRANCH   5  25
BRANCH   4  36
HETATM   36  O1  UNL     1      15.305 -46.487   1.292  1.00  0.00    -0.346 OA
ATOM     37  H1  UNL     1      15.553 -45.571   1.246  1.00  0.00     0.219 HD
ENDBRANCH   4  36
TORSDOF 8
ENDMDL
MODEL 5
REMARK VINA RESULT: -7.903118879      1.110      1.709
REMARK  8 active torsions:
REMARK  status: ('A' for Active; 'I' for Inactive)
REMARK    1  A    between atoms: C3_10  and  N4_11 
REMARK    2  A    between atoms: N4_11  and  N5_13 
REMARK    3  A    between atoms: C4_15  and  C5_16 
REMARK    4  A    between atoms: C8_19  and  O1_20 
REMARK    5  A    between atoms: N6_22  and  C9_23 
REMARK    6  A    between atoms: C9_23  and  C10_24 
REMARK    7  A    between atoms: C10_24  and  C11_25 
REMARK    8  A    between atoms: C11_25  and  N7_26 
ROOT
HETATM    1  C5  UNL     1      14.220 -47.452   5.910  1.00  0.00     0.049 A 
HETATM    2  C6  UNL     1      14.617 -48.684   5.385  1.00  0.00     0.023 A 
HETATM    3  C7  UNL     1      14.990 -48.754   4.062  1.00  0.00     0.057 A 
HETATM    4  C8  UNL     1      14.994 -47.660   3.221  1.00  0.00     0.144 A 
HETATM    5  N6  UNL     1      14.605 -46.470   3.747  1.00  0.00    -0.294 N 
HETATM    6  C16 UNL     1      14.237 -46.379   5.035  1.00  0.00     0.261 A 
HETATM    7  O2  UNL     1      13.876 -45.261   5.513  1.00  0.00    -0.267 OA
ENDROOT
BRANCH   1   8
HETATM    8  C4  UNL     1      13.817 -47.333   7.291  1.00  0.00     0.124 C 
HETATM    9  N5  UNL     1      14.630 -46.847   8.146  1.00  0.00    -0.309 N 
ATOM     10  H5  UNL     1      15.547 -46.560   7.805  1.00  0.00     0.186 HD
BRANCH   9  11
HETATM   11  N4  UNL     1      14.371 -46.676   9.508  1.00  0.00    -0.282 N 
ATOM     12  H4  UNL     1      13.715 -45.964   9.832  1.00  0.00     0.188 HD
BRANCH  11  13
HETATM   13  C3  UNL     1      15.041 -47.513  10.422  1.00  0.00     0.176 A 
HETATM   14  N3  UNL     1      15.469 -47.045  11.530  1.00  0.00    -0.334 N 
HETATM   15  C2  UNL     1      16.156 -47.760  12.544  1.00  0.00     0.183 A 
ATOM     16  H3  UNL     1      15.299 -46.055  11.704  1.00  0.00     0.168 HD
HETATM   17  N2  UNL     1      16.395 -49.158  12.281  1.00  0.00    -0.336 N 
HETATM   18  C1  UNL     1      15.942 -49.732  11.068  1.00  0.00     0.154 A 
ATOM     19  H2  UNL     1      16.888 -49.731  12.966  1.00  0.00     0.168 HD
HETATM   20  N1  UNL     1      16.173 -50.989  10.870  1.00  0.00    -0.382 N 
HETATM   21  C17 UNL     1      15.242 -48.911  10.092  1.00  0.00     0.260 A 
ATOM     22  H12 UNL     1      16.664 -51.565  11.555  1.00  0.00     0.157 HD
ATOM     23  H11 UNL     1      15.848 -51.403   9.996  1.00  0.00     0.157 HD
HETATM   24  O3  UNL     1      14.837 -49.415   9.012  1.00  0.00    -0.280 OA
ENDBRANCH  11  13
ENDBRANCH   9  11
ENDBRANCH   1   8
BRANCH   5  25
HETATM   25  C9  UNL     1      14.604 -45.314   2.873  1.00  0.00     0.136 C 
BRANCH  25  26
HETATM   26  C10 UNL     1      14.524 -44.026   3.674  1.00  0.00     0.040 C 
BRANCH  26  27
HETATM   27  C11 UNL     1      15.795 -43.230   3.508  1.00  0.00     0.118 C 
BRANCH  27  28
HETATM   28  N7  UNL     1      16.786 -43.698   4.405  1.00  0.00    -0.409 N 
HETATM   29  C12 UNL     1      16.405 -43.967   5.741  1.00  0.00     0.144 C 
HETATM   30  C13 UNL     1      16.720 -42.827   6.695  1.00  0.00     0.251 C 
HETATM   31  N8  UNL     1      17.914 -42.112   6.371  1.00  0.00    -0.072 N 
HETATM   32  C14 UNL     1      18.801 -42.902   5.561  1.00  0.00     0.251 C 
ATOM     33  H82 UNL     1      17.704 -41.218   5.928  1.00  0.00     0.277 HD
ATOM     34  H81 UNL     1      18.382 -41.769   7.210  1.00  0.00     0.277 HD
HETATM   35  C15 UNL     1      18.103 -43.170   4.241  1.00  0.00     0.144 C 
ENDBRANCH  27  28
ENDBRANCH  26  27
ENDBRANCH  25  26
ENDBRANCH   5  25
BRANCH   4  36
HETATM   36  O1  UNL     1      15.367 -47.722   1.891  1.00  0.00    -0.346 OA
ATOM     37  H1  UNL     1      15.571 -48.533   1.441  1.00  0.00     0.219 HD
ENDBRANCH   4  36
TORSDOF 8
ENDMDL
