MODEL 1
REMARK VINA RESULT: -9.697451701      0.000      0.000
REMARK  7 active torsions:
REMARK  status: ('A' for Active; 'I' for Inactive)
REMARK    1  A    between atoms: C2_2  and  C3_4 
REMARK    2  A    between atoms: C5_6  and  C6_7 
REMARK    3  A    between atoms: C7_11  and  C8_12 
REMARK    4  A    between atoms: N1_15  and  C11_16 
REMARK    5  A    between atoms: C11_16  and  N2_17 
REMARK    6  A    between atoms: C12_18  and  O2_19 
REMARK    7  A    between atoms: C15_23  and  O3_24 
ROOT
HETATM    1  C8  UNL     1       3.520 -12.067  -3.583  1.00  0.00     0.023 C 
HETATM    2  C9  UNL     1       4.709 -11.341  -4.175  1.00  0.00     0.039 C 
HETATM    3  C10 UNL     1       5.536 -10.538  -3.262  1.00  0.00     0.275 C 
HETATM    4  N1  UNL     1       4.798  -9.529  -2.514  1.00  0.00     0.106 N 
HETATM    5  C22 UNL     1       3.405  -9.943  -2.401  1.00  0.00     0.275 C 
HETATM    6  C23 UNL     1       3.436 -11.465  -2.153  1.00  0.00     0.039 C 
ENDROOT
BRANCH   4   7
HETATM    7  C11 UNL     1       4.855  -8.298  -3.242  1.00  0.00     0.406 C 
BRANCH   7   8
HETATM    8  N2  UNL     1       5.523  -7.254  -2.497  1.00  0.00    -0.280 N 
HETATM    9  C12 UNL     1       4.854  -6.182  -1.973  1.00  0.00     0.152 A 
HETATM   10  C13 UNL     1       5.785  -5.428  -1.325  1.00  0.00     0.004 A 
HETATM   11  C14 UNL     1       7.021  -6.013  -1.437  1.00  0.00     0.004 A 
HETATM   12  C21 UNL     1       5.720  -4.156  -0.557  1.00  0.00     0.044 C 
HETATM   13  C15 UNL     1       6.819  -7.168  -2.186  1.00  0.00     0.152 A 
HETATM   14  C16 UNL     1       8.206  -5.364  -0.801  1.00  0.00     0.052 C 
HETATM   15  C17 UNL     1       7.877  -4.793   0.546  1.00  0.00    -0.043 C 
HETATM   16  C18 UNL     1       8.717  -3.526   0.723  1.00  0.00     0.015 C 
HETATM   17  C19 UNL     1       8.265  -5.759   1.661  1.00  0.00     0.015 C 
HETATM   18  C20 UNL     1       6.451  -4.423   0.757  1.00  0.00     0.014 C 
BRANCH   9  19
HETATM   19  O2  UNL     1       3.471  -5.949  -2.105  1.00  0.00    -0.345 OA
ATOM     20  H2  UNL     1       2.996  -5.238  -1.692  1.00  0.00     0.219 HD
ENDBRANCH   9  19
BRANCH  13  21
HETATM   21  O3  UNL     1       7.884  -8.013  -2.489  1.00  0.00    -0.345 OA
ATOM     22  H3  UNL     1       8.785  -7.817  -2.717  1.00  0.00     0.219 HD
ENDBRANCH  13  21
ENDBRANCH   7   8
ENDBRANCH   4   7
BRANCH   1  23
HETATM   23  C7  UNL     1       3.746 -13.506  -3.479  1.00  0.00    -0.038 A 
HETATM   24  C5  UNL     1       2.783 -14.440  -3.744  1.00  0.00     0.055 A 
HETATM   25  C4  UNL     1       3.078 -15.802  -3.529  1.00  0.00     0.032 A 
HETATM   26  C3  UNL     1       4.303 -16.222  -3.064  1.00  0.00     0.016 A 
HETATM   27  C25 UNL     1       5.276 -15.288  -2.799  1.00  0.00    -0.048 A 
HETATM   28  C24 UNL     1       4.975 -13.950  -3.011  1.00  0.00     0.016 A 
HETATM   29  C26 UNL     1       6.622 -15.688  -2.293  1.00  0.00     0.049 C 
BRANCH  24  30
HETATM   30  C6  UNL     1       1.481 -14.042  -4.304  1.00  0.00     0.418 C 
HETATM   31  F1  UNL     1       1.317 -14.419  -5.633  1.00  0.00    -0.166 F 
HETATM   32  F2  UNL     1       0.528 -14.897  -3.655  1.00  0.00    -0.166 F 
HETATM   33  F3  UNL     1       1.035 -12.798  -4.009  1.00  0.00    -0.166 F 
ENDBRANCH  24  30
BRANCH  26  34
HETATM   34  C2  UNL     1       4.503 -17.642  -2.882  1.00  0.00     0.156 C 
HETATM   35  C1  UNL     1       5.180 -18.440  -3.920  1.00  0.00     0.097 C 
HETATM   36  O1  UNL     1       4.104 -18.203  -1.843  1.00  0.00    -0.293 OA
ENDBRANCH  26  34
ENDBRANCH   1  23
TORSDOF 7
ENDMDL
MODEL 2
REMARK VINA RESULT: -9.305114919      3.349      5.032
REMARK  7 active torsions:
REMARK  status: ('A' for Active; 'I' for Inactive)
REMARK    1  A    between atoms: C2_2  and  C3_4 
REMARK    2  A    between atoms: C5_6  and  C6_7 
REMARK    3  A    between atoms: C7_11  and  C8_12 
REMARK    4  A    between atoms: N1_15  and  C11_16 
REMARK    5  A    between atoms: C11_16  and  N2_17 
REMARK    6  A    between atoms: C12_18  and  O2_19 
REMARK    7  A    between atoms: C15_23  and  O3_24 
ROOT
HETATM    1  C8  UNL     1       3.771  -7.578  -2.377  1.00  0.00     0.023 C 
HETATM    2  C9  UNL     1       4.929  -6.997  -3.157  1.00  0.00     0.039 C 
HETATM    3  C10 UNL     1       6.286  -7.278  -2.667  1.00  0.00     0.275 C 
HETATM    4  N1  UNL     1       6.517  -6.889  -1.283  1.00  0.00     0.106 N 
HETATM    5  C22 UNL     1       5.245  -6.879  -0.572  1.00  0.00     0.275 C 
HETATM    6  C23 UNL     1       4.463  -8.103  -1.088  1.00  0.00     0.039 C 
ENDROOT
BRANCH   4   7
HETATM    7  C11 UNL     1       7.062  -5.566  -1.273  1.00  0.00     0.406 C 
BRANCH   7   8
HETATM    8  N2  UNL     1       7.677  -5.238  -0.005  1.00  0.00    -0.280 N 
HETATM    9  C12 UNL     1       7.146  -4.314   0.852  1.00  0.00     0.152 A 
HETATM   10  C13 UNL     1       7.964  -4.284   1.940  1.00  0.00     0.004 A 
HETATM   11  C14 UNL     1       8.995  -5.175   1.773  1.00  0.00     0.004 A 
HETATM   12  C21 UNL     1       7.955  -3.511   3.211  1.00  0.00     0.044 C 
HETATM   13  C15 UNL     1       8.782  -5.762   0.530  1.00  0.00     0.152 A 
HETATM   14  C16 UNL     1      10.025  -5.321   2.844  1.00  0.00     0.052 C 
HETATM   15  C17 UNL     1       9.420  -5.277   4.216  1.00  0.00    -0.043 C 
HETATM   16  C18 UNL     1      10.430  -4.592   5.140  1.00  0.00     0.015 C 
HETATM   17  C19 UNL     1       9.184  -6.683   4.758  1.00  0.00     0.015 C 
HETATM   18  C20 UNL     1       8.132  -4.538   4.327  1.00  0.00     0.014 C 
BRANCH   9  19
HETATM   19  O2  UNL     1       5.978  -3.565   0.611  1.00  0.00    -0.345 OA
ATOM     20  H2  UNL     1       5.518  -3.047   1.261  1.00  0.00     0.219 HD
ENDBRANCH   9  19
BRANCH  13  21
HETATM   21  O3  UNL     1       9.657  -6.730   0.043  1.00  0.00    -0.345 OA
ATOM     22  H3  UNL     1       9.692  -7.667   0.195  1.00  0.00     0.219 HD
ENDBRANCH  13  21
ENDBRANCH   7   8
ENDBRANCH   4   7
BRANCH   1  23
HETATM   23  C7  UNL     1       3.144  -8.701  -3.070  1.00  0.00    -0.038 A 
HETATM   24  C5  UNL     1       1.914  -8.628  -3.661  1.00  0.00     0.055 A 
HETATM   25  C4  UNL     1       1.361  -9.794  -4.229  1.00  0.00     0.032 A 
HETATM   26  C3  UNL     1       2.019 -11.002  -4.209  1.00  0.00     0.016 A 
HETATM   27  C25 UNL     1       3.258 -11.082  -3.618  1.00  0.00    -0.048 A 
HETATM   28  C24 UNL     1       3.792  -9.928  -3.060  1.00  0.00     0.016 A 
HETATM   29  C26 UNL     1       4.016 -12.365  -3.568  1.00  0.00     0.049 C 
BRANCH  24  30
HETATM   30  C6  UNL     1       1.202  -7.343  -3.764  1.00  0.00     0.418 C 
HETATM   31  F1  UNL     1       1.915  -6.375  -4.464  1.00  0.00    -0.166 F 
HETATM   32  F2  UNL     1       0.120  -7.598  -4.673  1.00  0.00    -0.166 F 
HETATM   33  F3  UNL     1       0.575  -6.892  -2.652  1.00  0.00    -0.166 F 
ENDBRANCH  24  30
BRANCH  26  34
HETATM   34  C2  UNL     1       1.365 -12.135  -4.823  1.00  0.00     0.156 C 
HETATM   35  C1  UNL     1       0.993 -12.101  -6.249  1.00  0.00     0.097 C 
HETATM   36  O1  UNL     1       1.112 -13.153  -4.149  1.00  0.00    -0.293 OA
ENDBRANCH  26  34
ENDBRANCH   1  23
TORSDOF 7
ENDMDL
MODEL 3
REMARK VINA RESULT: -9.103113666      4.200      6.134
REMARK  7 active torsions:
REMARK  status: ('A' for Active; 'I' for Inactive)
REMARK    1  A    between atoms: C2_2  and  C3_4 
REMARK    2  A    between atoms: C5_6  and  C6_7 
REMARK    3  A    between atoms: C7_11  and  C8_12 
REMARK    4  A    between atoms: N1_15  and  C11_16 
REMARK    5  A    between atoms: C11_16  and  N2_17 
REMARK    6  A    between atoms: C12_18  and  O2_19 
REMARK    7  A    between atoms: C15_23  and  O3_24 
ROOT
HETATM    1  C8  UNL     1       4.094  -6.294  -2.206  1.00  0.00     0.023 C 
HETATM    2  C9  UNL     1       5.604  -6.273  -2.308  1.00  0.00     0.039 C 
HETATM    3  C10 UNL     1       6.370  -6.638  -1.108  1.00  0.00     0.275 C 
HETATM    4  N1  UNL     1       6.050  -5.846   0.072  1.00  0.00     0.106 N 
HETATM    5  C22 UNL     1       4.694  -5.328  -0.055  1.00  0.00     0.275 C 
HETATM    6  C23 UNL     1       3.862  -6.467  -0.679  1.00  0.00     0.039 C 
ENDROOT
BRANCH   4   7
HETATM    7  C11 UNL     1       6.961  -4.744   0.135  1.00  0.00     0.406 C 
BRANCH   7   8
HETATM    8  N2  UNL     1       7.666  -4.690   1.396  1.00  0.00    -0.280 N 
HETATM    9  C12 UNL     1       7.255  -3.899   2.434  1.00  0.00     0.152 A 
HETATM   10  C13 UNL     1       8.130  -4.119   3.455  1.00  0.00     0.004 A 
HETATM   11  C14 UNL     1       9.077  -5.034   3.068  1.00  0.00     0.004 A 
HETATM   12  C21 UNL     1       8.248  -3.585   4.838  1.00  0.00     0.044 C 
HETATM   13  C15 UNL     1       8.753  -5.374   1.759  1.00  0.00     0.152 A 
HETATM   14  C16 UNL     1      10.148  -5.437   4.027  1.00  0.00     0.052 C 
HETATM   15  C17 UNL     1       9.622  -5.596   5.423  1.00  0.00    -0.043 C 
HETATM   16  C18 UNL     1      10.730  -5.157   6.383  1.00  0.00     0.015 C 
HETATM   17  C19 UNL     1       9.306  -7.057   5.727  1.00  0.00     0.015 C 
HETATM   18  C20 UNL     1       8.404  -4.804   5.745  1.00  0.00     0.014 C 
BRANCH   9  19
HETATM   19  O2  UNL     1       6.138  -3.041   2.404  1.00  0.00    -0.345 OA
ATOM     20  H2  UNL     1       5.322  -3.223   1.954  1.00  0.00     0.219 HD
ENDBRANCH   9  19
BRANCH  13  21
HETATM   21  O3  UNL     1       9.523  -6.297   1.054  1.00  0.00    -0.345 OA
ATOM     22  H3  UNL     1      10.101  -6.985   1.362  1.00  0.00     0.219 HD
ENDBRANCH  13  21
ENDBRANCH   7   8
ENDBRANCH   4   7
BRANCH   1  23
HETATM   23  C7  UNL     1       3.507  -7.435  -2.906  1.00  0.00    -0.038 A 
HETATM   24  C5  UNL     1       2.171  -7.548  -3.170  1.00  0.00     0.055 A 
HETATM   25  C4  UNL     1       1.695  -8.729  -3.776  1.00  0.00     0.032 A 
HETATM   26  C3  UNL     1       2.531  -9.770  -4.110  1.00  0.00     0.016 A 
HETATM   27  C25 UNL     1       3.876  -9.661  -3.849  1.00  0.00    -0.048 A 
HETATM   28  C24 UNL     1       4.335  -8.494  -3.252  1.00  0.00     0.016 A 
HETATM   29  C26 UNL     1       4.827 -10.757  -4.192  1.00  0.00     0.049 C 
BRANCH  24  30
HETATM   30  C6  UNL     1       1.250  -6.435  -2.890  1.00  0.00     0.418 C 
HETATM   31  F1  UNL     1       1.624  -5.244  -3.504  1.00  0.00    -0.166 F 
HETATM   32  F2  UNL     1       0.056  -6.757  -3.620  1.00  0.00    -0.166 F 
HETATM   33  F3  UNL     1       0.809  -6.302  -1.617  1.00  0.00    -0.166 F 
ENDBRANCH  24  30
BRANCH  26  34
HETATM   34  C2  UNL     1       1.941 -10.935  -4.730  1.00  0.00     0.156 C 
HETATM   35  C1  UNL     1       1.706 -10.969  -6.185  1.00  0.00     0.097 C 
HETATM   36  O1  UNL     1       1.627 -11.922  -4.036  1.00  0.00    -0.293 OA
ENDBRANCH  26  34
ENDBRANCH   1  23
TORSDOF 7
ENDMDL
MODEL 4
REMARK VINA RESULT: -9.021099351      3.562      5.418
REMARK  7 active torsions:
REMARK  status: ('A' for Active; 'I' for Inactive)
REMARK    1  A    between atoms: C2_2  and  C3_4 
REMARK    2  A    between atoms: C5_6  and  C6_7 
REMARK    3  A    between atoms: C7_11  and  C8_12 
REMARK    4  A    between atoms: N1_15  and  C11_16 
REMARK    5  A    between atoms: C11_16  and  N2_17 
REMARK    6  A    between atoms: C12_18  and  O2_19 
REMARK    7  A    between atoms: C15_23  and  O3_24 
ROOT
HETATM    1  C8  UNL     1       3.884  -6.871  -2.430  1.00  0.00     0.023 C 
HETATM    2  C9  UNL     1       5.391  -6.829  -2.304  1.00  0.00     0.039 C 
HETATM    3  C10 UNL     1       5.957  -6.811  -0.947  1.00  0.00     0.275 C 
HETATM    4  N1  UNL     1       5.466  -5.728  -0.106  1.00  0.00     0.106 N 
HETATM    5  C22 UNL     1       4.152  -5.314  -0.581  1.00  0.00     0.275 C 
HETATM    6  C23 UNL     1       3.416  -6.611  -0.971  1.00  0.00     0.039 C 
ENDROOT
BRANCH   4   7
HETATM    7  C11 UNL     1       6.368  -4.623  -0.223  1.00  0.00     0.406 C 
BRANCH   7   8
HETATM    8  N2  UNL     1       7.179  -4.453   0.962  1.00  0.00    -0.280 N 
HETATM    9  C12 UNL     1       6.808  -3.637   1.995  1.00  0.00     0.152 A 
HETATM   10  C13 UNL     1       7.786  -3.741   2.938  1.00  0.00     0.004 A 
HETATM   11  C14 UNL     1       8.758  -4.609   2.507  1.00  0.00     0.004 A 
HETATM   12  C21 UNL     1       7.991  -3.126   4.276  1.00  0.00     0.044 C 
HETATM   13  C15 UNL     1       8.343  -5.041   1.252  1.00  0.00     0.152 A 
HETATM   14  C16 UNL     1       9.939  -4.886   3.379  1.00  0.00     0.052 C 
HETATM   15  C17 UNL     1       9.555  -5.005   4.824  1.00  0.00    -0.043 C 
HETATM   16  C18 UNL     1      10.711  -4.440   5.653  1.00  0.00     0.015 C 
HETATM   17  C19 UNL     1       9.375  -6.466   5.225  1.00  0.00     0.015 C 
HETATM   18  C20 UNL     1       8.317  -4.281   5.222  1.00  0.00     0.014 C 
BRANCH   9  19
HETATM   19  O2  UNL     1       5.634  -2.861   2.031  1.00  0.00    -0.345 OA
ATOM     20  H2  UNL     1       5.434  -2.203   2.687  1.00  0.00     0.219 HD
ENDBRANCH   9  19
BRANCH  13  21
HETATM   21  O3  UNL     1       9.110  -5.946   0.523  1.00  0.00    -0.345 OA
ATOM     22  H3  UNL     1       9.073  -6.894   0.477  1.00  0.00     0.219 HD
ENDBRANCH  13  21
ENDBRANCH   7   8
ENDBRANCH   4   7
BRANCH   1  23
HETATM   23  C7  UNL     1       3.400  -8.183  -2.856  1.00  0.00    -0.038 A 
HETATM   24  C5  UNL     1       2.209  -8.373  -3.497  1.00  0.00     0.055 A 
HETATM   25  C4  UNL     1       1.795  -9.689  -3.789  1.00  0.00     0.032 A 
HETATM   26  C3  UNL     1       2.552 -10.788  -3.451  1.00  0.00     0.016 A 
HETATM   27  C25 UNL     1       3.753 -10.602  -2.808  1.00  0.00    -0.048 A 
HETATM   28  C24 UNL     1       4.151  -9.303  -2.524  1.00  0.00     0.016 A 
HETATM   29  C26 UNL     1       4.614 -11.757  -2.419  1.00  0.00     0.049 C 
BRANCH  24  30
HETATM   30  C6  UNL     1       1.397  -7.226  -3.936  1.00  0.00     0.418 C 
HETATM   31  F1  UNL     1       2.126  -6.278  -4.646  1.00  0.00    -0.166 F 
HETATM   32  F2  UNL     1       0.551  -7.753  -4.970  1.00  0.00    -0.166 F 
HETATM   33  F3  UNL     1       0.517  -6.714  -3.044  1.00  0.00    -0.166 F 
ENDBRANCH  24  30
BRANCH  26  34
HETATM   34  C2  UNL     1       2.038 -12.092  -3.798  1.00  0.00     0.156 C 
HETATM   35  C1  UNL     1       1.370 -12.311  -5.094  1.00  0.00     0.097 C 
HETATM   36  O1  UNL     1       2.157 -13.046  -3.004  1.00  0.00    -0.293 OA
ENDBRANCH  26  34
ENDBRANCH   1  23
TORSDOF 7
ENDMDL
MODEL 5
REMARK VINA RESULT: -8.913737062      4.904      8.012
REMARK  7 active torsions:
REMARK  status: ('A' for Active; 'I' for Inactive)
REMARK    1  A    between atoms: C2_2  and  C3_4 
REMARK    2  A    between atoms: C5_6  and  C6_7 
REMARK    3  A    between atoms: C7_11  and  C8_12 
REMARK    4  A    between atoms: N1_15  and  C11_16 
REMARK    5  A    between atoms: C11_16  and  N2_17 
REMARK    6  A    between atoms: C12_18  and  O2_19 
REMARK    7  A    between atoms: C15_23  and  O3_24 
ROOT
HETATM    1  C8  UNL     1       4.702 -10.593  -5.205  1.00  0.00     0.023 C 
HETATM    2  C9  UNL     1       5.158 -11.539  -4.115  1.00  0.00     0.039 C 
HETATM    3  C10 UNL     1       6.432 -11.239  -3.447  1.00  0.00     0.275 C 
HETATM    4  N1  UNL     1       7.568 -11.113  -4.350  1.00  0.00     0.106 N 
HETATM    5  C22 UNL     1       7.086 -10.728  -5.671  1.00  0.00     0.275 C 
HETATM    6  C23 UNL     1       5.958  -9.706  -5.428  1.00  0.00     0.039 C 
ENDROOT
BRANCH   4   7
HETATM    7  C11 UNL     1       8.209 -12.389  -4.447  1.00  0.00     0.406 C 
BRANCH   7   8
HETATM    8  N2  UNL     1       9.642 -12.294  -4.275  1.00  0.00    -0.280 N 
HETATM    9  C12 UNL     1      10.247 -12.444  -3.057  1.00  0.00     0.152 A 
HETATM   10  C13 UNL     1      11.586 -12.318  -3.274  1.00  0.00     0.004 A 
HETATM   11  C14 UNL     1      11.822 -12.092  -4.607  1.00  0.00     0.004 A 
HETATM   12  C21 UNL     1      12.779 -12.376  -2.389  1.00  0.00     0.044 C 
HETATM   13  C15 UNL     1      10.569 -12.083  -5.212  1.00  0.00     0.152 A 
HETATM   14  C16 UNL     1      13.226 -11.922  -5.089  1.00  0.00     0.052 C 
HETATM   15  C17 UNL     1      14.171 -12.870  -4.412  1.00  0.00    -0.043 C 
HETATM   16  C18 UNL     1      15.511 -12.148  -4.259  1.00  0.00     0.015 C 
HETATM   17  C19 UNL     1      14.413 -14.109  -5.269  1.00  0.00     0.015 C 
HETATM   18  C20 UNL     1      13.754 -13.340  -3.063  1.00  0.00     0.014 C 
BRANCH   9  19
HETATM   19  O2  UNL     1       9.573 -12.681  -1.843  1.00  0.00    -0.345 OA
ATOM     20  H2  UNL     1       9.404 -12.027  -1.176  1.00  0.00     0.219 HD
ENDBRANCH   9  19
BRANCH  13  21
HETATM   21  O3  UNL     1      10.444 -11.878  -6.584  1.00  0.00    -0.345 OA
ATOM     22  H3  UNL     1       9.921 -12.332  -7.233  1.00  0.00     0.219 HD
ENDBRANCH  13  21
ENDBRANCH   7   8
ENDBRANCH   4   7
BRANCH   1  23
HETATM   23  C7  UNL     1       3.592  -9.746  -4.776  1.00  0.00    -0.038 A 
HETATM   24  C5  UNL     1       2.299  -9.944  -5.169  1.00  0.00     0.055 A 
HETATM   25  C4  UNL     1       1.315  -9.017  -4.767  1.00  0.00     0.032 A 
HETATM   26  C3  UNL     1       1.615  -7.921  -3.990  1.00  0.00     0.016 A 
HETATM   27  C25 UNL     1       2.914  -7.718  -3.589  1.00  0.00    -0.048 A 
HETATM   28  C24 UNL     1       3.875  -8.635  -3.992  1.00  0.00     0.016 A 
HETATM   29  C26 UNL     1       3.294  -6.547  -2.747  1.00  0.00     0.049 C 
BRANCH  24  30
HETATM   30  C6  UNL     1       1.921 -11.137  -5.945  1.00  0.00     0.418 C 
HETATM   31  F1  UNL     1       1.843 -12.291  -5.174  1.00  0.00    -0.166 F 
HETATM   32  F2  UNL     1       0.538 -10.934  -6.275  1.00  0.00    -0.166 F 
HETATM   33  F3  UNL     1       2.509 -11.300  -7.153  1.00  0.00    -0.166 F 
ENDBRANCH  24  30
BRANCH  26  34
HETATM   34  C2  UNL     1       0.531  -7.035  -3.631  1.00  0.00     0.156 C 
HETATM   35  C1  UNL     1       0.626  -6.188  -2.428  1.00  0.00     0.097 C 
HETATM   36  O1  UNL     1      -0.494  -6.978  -4.339  1.00  0.00    -0.293 OA
ENDBRANCH  26  34
ENDBRANCH   1  23
TORSDOF 7
ENDMDL
