MODEL 1
REMARK VINA RESULT: -9.969808642      0.000      0.000
REMARK  6 active torsions:
REMARK  status: ('A' for Active; 'I' for Inactive)
REMARK    1  A    between atoms: O1_1  and  C1_3 
REMARK    2  A    between atoms: C3_5  and  C4_6 
REMARK    3  A    between atoms: C5_9  and  C6_10 
REMARK    4  A    between atoms: C13_17  and  N2_18 
REMARK    5  A    between atoms: C24_34  and  O2_35 
REMARK    6  A    between atoms: O2_35  and  C25_36 
ROOT
HETATM    1  C4  UNL     1       5.790  -6.771  -2.477  1.00  0.00     0.117 A 
HETATM    2  N1  UNL     1       4.507  -6.729  -2.893  1.00  0.00    -0.345 N 
ATOM      3  H1  UNL     1       3.890  -6.017  -2.503  1.00  0.00     0.167 HD
HETATM    4  C5  UNL     1       4.008  -7.588  -3.802  1.00  0.00     0.018 A 
HETATM    5  C12 UNL     1       4.870  -8.538  -4.311  1.00  0.00     0.073 A 
HETATM    6  C13 UNL     1       6.183  -8.612  -3.912  1.00  0.00     0.106 A 
HETATM    7  N4  UNL     1       6.595  -7.713  -2.999  1.00  0.00    -0.328 N 
ATOM      8  H4  UNL     1       7.565  -7.749  -2.687  1.00  0.00     0.169 HD
ENDROOT
BRANCH   1   9
HETATM    9  C3  UNL     1       6.281  -5.810  -1.483  1.00  0.00     0.011 A 
HETATM   10  C2  UNL     1       5.393  -5.178  -0.677  1.00  0.00     0.054 A 
HETATM   11  C1  UNL     1       5.832  -4.266   0.269  1.00  0.00     0.100 A 
HETATM   12  C24 UNL     1       7.171  -3.991   0.402  1.00  0.00     0.111 A 
HETATM   13  C23 UNL     1       8.064  -4.662  -0.444  1.00  0.00     0.041 A 
HETATM   14  C22 UNL     1       7.620  -5.568  -1.383  1.00  0.00     0.018 A 
BRANCH  11  15
HETATM   15  O1  UNL     1       4.854  -3.668   1.054  1.00  0.00    -0.358 OA
ATOM     16  H1  UNL     1       4.463  -2.872   0.712  1.00  0.00     0.217 HD
ENDBRANCH  11  15
BRANCH  12  17
HETATM   17  O2  UNL     1       7.630  -3.081   1.337  1.00  0.00    -0.252 OA
BRANCH  17  18
HETATM   18  C25 UNL     1       7.836  -1.708   1.104  1.00  0.00     0.530 C 
HETATM   19  F1  UNL     1       9.148  -1.401   1.425  1.00  0.00    -0.144 F 
HETATM   20  F2  UNL     1       7.683  -1.433  -0.269  1.00  0.00    -0.144 F 
HETATM   21  F3  UNL     1       6.919  -0.911   1.732  1.00  0.00    -0.144 F 
ENDBRANCH  17  18
ENDBRANCH  12  17
ENDBRANCH   1   9
BRANCH   4  22
HETATM   22  C6  UNL     1       2.619  -7.563  -4.271  1.00  0.00     0.036 C 
HETATM   23  C7  UNL     1       2.245  -8.861  -4.938  1.00  0.00     0.011 C 
HETATM   24  C8  UNL     1       0.815  -9.232  -4.794  1.00  0.00     0.001 C 
HETATM   25  C9  UNL     1      -0.132  -8.072  -4.734  1.00  0.00     0.000 C 
HETATM   26  C10 UNL     1       0.309  -6.994  -3.778  1.00  0.00     0.001 C 
HETATM   27  C11 UNL     1       1.637  -7.323  -3.130  1.00  0.00     0.011 C 
ENDBRANCH   4  22
BRANCH   6  28
HETATM   28  N2  UNL     1       7.060  -9.594  -4.443  1.00  0.00    -0.366 N 
HETATM   29  C14 UNL     1       6.801 -10.367  -5.642  1.00  0.00     0.125 C 
HETATM   30  C15 UNL     1       7.919 -11.348  -5.768  1.00  0.00     0.031 C 
HETATM   31  C16 UNL     1       8.428 -11.439  -4.337  1.00  0.00    -0.020 C 
HETATM   32  C17 UNL     1       9.833 -11.991  -4.292  1.00  0.00     0.039 C 
HETATM   33  C20 UNL     1       7.491 -12.295  -3.549  1.00  0.00     0.039 C 
HETATM   34  C21 UNL     1       8.351  -9.999  -3.900  1.00  0.00     0.134 C 
HETATM   35  C18 UNL     1       9.716 -13.499  -4.450  1.00  0.00     0.233 C 
HETATM   36  N3  UNL     1       9.203 -14.030  -3.209  1.00  0.00    -0.075 N 
HETATM   37  C19 UNL     1       8.299 -13.119  -2.581  1.00  0.00     0.233 C 
ATOM     38  H32 UNL     1       8.774 -14.945  -3.344  1.00  0.00     0.277 HD
ATOM     39  H31 UNL     1       9.958 -14.300  -2.579  1.00  0.00     0.277 HD
ENDBRANCH   6  28
TORSDOF 6
ENDMDL
MODEL 2
REMARK VINA RESULT: -9.953179731      1.003      1.175
REMARK  6 active torsions:
REMARK  status: ('A' for Active; 'I' for Inactive)
REMARK    1  A    between atoms: O1_1  and  C1_3 
REMARK    2  A    between atoms: C3_5  and  C4_6 
REMARK    3  A    between atoms: C5_9  and  C6_10 
REMARK    4  A    between atoms: C13_17  and  N2_18 
REMARK    5  A    between atoms: C24_34  and  O2_35 
REMARK    6  A    between atoms: O2_35  and  C25_36 
ROOT
HETATM    1  C4  UNL     1       5.782  -6.801  -2.451  1.00  0.00     0.117 A 
HETATM    2  N1  UNL     1       4.501  -6.764  -2.877  1.00  0.00    -0.345 N 
ATOM      3  H1  UNL     1       3.875  -6.062  -2.483  1.00  0.00     0.167 HD
HETATM    4  C5  UNL     1       4.017  -7.614  -3.802  1.00  0.00     0.018 A 
HETATM    5  C12 UNL     1       4.891  -8.550  -4.316  1.00  0.00     0.073 A 
HETATM    6  C13 UNL     1       6.201  -8.618  -3.908  1.00  0.00     0.106 A 
HETATM    7  N4  UNL     1       6.598  -7.729  -2.979  1.00  0.00    -0.328 N 
ATOM      8  H4  UNL     1       7.566  -7.761  -2.661  1.00  0.00     0.169 HD
ENDROOT
BRANCH   1   9
HETATM    9  C3  UNL     1       6.257  -5.849  -1.441  1.00  0.00     0.011 A 
HETATM   10  C2  UNL     1       5.353  -5.194  -0.671  1.00  0.00     0.054 A 
HETATM   11  C1  UNL     1       5.777  -4.290   0.290  1.00  0.00     0.100 A 
HETATM   12  C24 UNL     1       7.116  -4.047   0.474  1.00  0.00     0.111 A 
HETATM   13  C23 UNL     1       8.025  -4.741  -0.336  1.00  0.00     0.041 A 
HETATM   14  C22 UNL     1       7.596  -5.638  -1.290  1.00  0.00     0.018 A 
BRANCH  11  15
HETATM   15  O1  UNL     1       4.784  -3.667   1.036  1.00  0.00    -0.358 OA
ATOM     16  H1  UNL     1       4.870  -3.716   1.981  1.00  0.00     0.217 HD
ENDBRANCH  11  15
BRANCH  12  17
HETATM   17  O2  UNL     1       7.560  -3.145   1.424  1.00  0.00    -0.252 OA
BRANCH  17  18
HETATM   18  C25 UNL     1       7.792  -3.441   2.781  1.00  0.00     0.530 C 
HETATM   19  F1  UNL     1       8.819  -2.630   3.237  1.00  0.00    -0.144 F 
HETATM   20  F2  UNL     1       6.652  -3.109   3.539  1.00  0.00    -0.144 F 
HETATM   21  F3  UNL     1       8.001  -4.772   3.015  1.00  0.00    -0.144 F 
ENDBRANCH  17  18
ENDBRANCH  12  17
ENDBRANCH   1   9
BRANCH   4  22
HETATM   22  C6  UNL     1       2.631  -7.595  -4.281  1.00  0.00     0.036 C 
HETATM   23  C7  UNL     1       2.268  -8.893  -4.955  1.00  0.00     0.011 C 
HETATM   24  C8  UNL     1       0.839  -9.270  -4.822  1.00  0.00     0.001 C 
HETATM   25  C9  UNL     1      -0.114  -8.115  -4.767  1.00  0.00     0.000 C 
HETATM   26  C10 UNL     1       0.315  -7.037  -3.804  1.00  0.00     0.001 C 
HETATM   27  C11 UNL     1       1.639  -7.362  -3.147  1.00  0.00     0.011 C 
ENDBRANCH   4  22
BRANCH   6  28
HETATM   28  N2  UNL     1       7.091  -9.585  -4.445  1.00  0.00    -0.366 N 
HETATM   29  C14 UNL     1       6.853 -10.336  -5.663  1.00  0.00     0.125 C 
HETATM   30  C15 UNL     1       7.977 -11.309  -5.792  1.00  0.00     0.031 C 
HETATM   31  C16 UNL     1       8.465 -11.427  -4.355  1.00  0.00    -0.020 C 
HETATM   32  C17 UNL     1       9.871 -11.974  -4.300  1.00  0.00     0.039 C 
HETATM   33  C20 UNL     1       7.519 -12.303  -3.599  1.00  0.00     0.039 C 
HETATM   34  C21 UNL     1       8.375  -9.997  -3.890  1.00  0.00     0.134 C 
HETATM   35  C18 UNL     1       9.763 -13.478  -4.489  1.00  0.00     0.233 C 
HETATM   36  N3  UNL     1       9.234 -14.037  -3.268  1.00  0.00    -0.075 N 
HETATM   37  C19 UNL     1       8.317 -13.142  -2.636  1.00  0.00     0.233 C 
ATOM     38  H32 UNL     1       8.812 -14.951  -3.428  1.00  0.00     0.277 HD
ATOM     39  H31 UNL     1       9.981 -14.316  -2.631  1.00  0.00     0.277 HD
ENDBRANCH   6  28
TORSDOF 6
ENDMDL
MODEL 3
REMARK VINA RESULT: -9.595247123      0.950      1.435
REMARK  6 active torsions:
REMARK  status: ('A' for Active; 'I' for Inactive)
REMARK    1  A    between atoms: O1_1  and  C1_3 
REMARK    2  A    between atoms: C3_5  and  C4_6 
REMARK    3  A    between atoms: C5_9  and  C6_10 
REMARK    4  A    between atoms: C13_17  and  N2_18 
REMARK    5  A    between atoms: C24_34  and  O2_35 
REMARK    6  A    between atoms: O2_35  and  C25_36 
ROOT
HETATM    1  C4  UNL     1       5.787  -7.170  -2.437  1.00  0.00     0.117 A 
HETATM    2  N1  UNL     1       4.477  -7.389  -2.682  1.00  0.00    -0.345 N 
ATOM      3  H1  UNL     1       3.790  -6.763  -2.260  1.00  0.00     0.167 HD
HETATM    4  C5  UNL     1       4.040  -8.397  -3.459  1.00  0.00     0.018 A 
HETATM    5  C12 UNL     1       4.995  -9.223  -4.015  1.00  0.00     0.073 A 
HETATM    6  C13 UNL     1       6.337  -9.032  -3.790  1.00  0.00     0.106 A 
HETATM    7  N4  UNL     1       6.683  -8.000  -3.000  1.00  0.00    -0.328 N 
ATOM      8  H4  UNL     1       7.673  -7.839  -2.818  1.00  0.00     0.169 HD
ENDROOT
BRANCH   1   9
HETATM    9  C3  UNL     1       6.208  -6.055  -1.581  1.00  0.00     0.011 A 
HETATM   10  C2  UNL     1       5.298  -5.463  -0.770  1.00  0.00     0.054 A 
HETATM   11  C1  UNL     1       5.671  -4.408   0.047  1.00  0.00     0.100 A 
HETATM   12  C24 UNL     1       6.966  -3.950   0.045  1.00  0.00     0.111 A 
HETATM   13  C23 UNL     1       7.883  -4.585  -0.803  1.00  0.00     0.041 A 
HETATM   14  C22 UNL     1       7.504  -5.633  -1.614  1.00  0.00     0.018 A 
BRANCH  11  15
HETATM   15  O1  UNL     1       4.676  -3.863   0.849  1.00  0.00    -0.358 OA
ATOM     16  H1  UNL     1       3.787  -3.920   0.519  1.00  0.00     0.217 HD
ENDBRANCH  11  15
BRANCH  12  17
HETATM   17  O2  UNL     1       7.358  -2.896   0.850  1.00  0.00    -0.252 OA
BRANCH  17  18
HETATM   18  C25 UNL     1       7.734  -3.000   2.203  1.00  0.00     0.530 C 
HETATM   19  F1  UNL     1       6.712  -2.484   2.983  1.00  0.00    -0.144 F 
HETATM   20  F2  UNL     1       7.861  -4.358   2.555  1.00  0.00    -0.144 F 
HETATM   21  F3  UNL     1       8.956  -2.447   2.466  1.00  0.00    -0.144 F 
ENDBRANCH  17  18
ENDBRANCH  12  17
ENDBRANCH   1   9
BRANCH   4  22
HETATM   22  C6  UNL     1       2.624  -8.655  -3.739  1.00  0.00     0.036 C 
HETATM   23  C7  UNL     1       1.811  -7.389  -3.655  1.00  0.00     0.011 C 
HETATM   24  C8  UNL     1       0.636  -7.357  -4.560  1.00  0.00     0.001 C 
HETATM   25  C9  UNL     1      -0.001  -8.690  -4.811  1.00  0.00     0.000 C 
HETATM   26  C10 UNL     1       0.994  -9.769  -5.155  1.00  0.00     0.001 C 
HETATM   27  C11 UNL     1       2.417  -9.254  -5.126  1.00  0.00     0.011 C 
ENDBRANCH   4  22
BRANCH   6  28
HETATM   28  N2  UNL     1       7.310  -9.889  -4.369  1.00  0.00    -0.366 N 
HETATM   29  C14 UNL     1       7.141 -10.599  -5.622  1.00  0.00     0.125 C 
HETATM   30  C15 UNL     1       8.348 -11.460  -5.792  1.00  0.00     0.031 C 
HETATM   31  C16 UNL     1       8.844 -11.602  -4.360  1.00  0.00    -0.020 C 
HETATM   32  C17 UNL     1      10.293 -12.023  -4.325  1.00  0.00     0.039 C 
HETATM   33  C20 UNL     1       7.981 -12.594  -3.651  1.00  0.00     0.039 C 
HETATM   34  C21 UNL     1       8.625 -10.210  -3.828  1.00  0.00     0.134 C 
HETATM   35  C18 UNL     1      10.321 -13.520  -4.586  1.00  0.00     0.233 C 
HETATM   36  N3  UNL     1       9.843 -14.182  -3.394  1.00  0.00    -0.075 N 
HETATM   37  C19 UNL     1       8.850 -13.404  -2.725  1.00  0.00     0.233 C 
ATOM     38  H32 UNL     1       9.505 -15.121  -3.600  1.00  0.00     0.277 HD
ATOM     39  H31 UNL     1      10.612 -14.423  -2.769  1.00  0.00     0.277 HD
ENDBRANCH   6  28
TORSDOF 6
ENDMDL
MODEL 4
REMARK VINA RESULT: -9.511281522      0.607      1.203
REMARK  6 active torsions:
REMARK  status: ('A' for Active; 'I' for Inactive)
REMARK    1  A    between atoms: O1_1  and  C1_3 
REMARK    2  A    between atoms: C3_5  and  C4_6 
REMARK    3  A    between atoms: C5_9  and  C6_10 
REMARK    4  A    between atoms: C13_17  and  N2_18 
REMARK    5  A    between atoms: C24_34  and  O2_35 
REMARK    6  A    between atoms: O2_35  and  C25_36 
ROOT
HETATM    1  C4  UNL     1       5.766  -6.986  -2.646  1.00  0.00     0.117 A 
HETATM    2  N1  UNL     1       4.489  -7.018  -3.080  1.00  0.00    -0.345 N 
ATOM      3  H1  UNL     1       3.831  -6.330  -2.714  1.00  0.00     0.167 HD
HETATM    4  C5  UNL     1       4.046  -7.921  -3.976  1.00  0.00     0.018 A 
HETATM    5  C12 UNL     1       4.962  -8.836  -4.452  1.00  0.00     0.073 A 
HETATM    6  C13 UNL     1       6.271  -8.834  -4.035  1.00  0.00     0.106 A 
HETATM    7  N4  UNL     1       6.625  -7.897  -3.137  1.00  0.00    -0.328 N 
ATOM      8  H4  UNL     1       7.591  -7.877  -2.813  1.00  0.00     0.169 HD
ENDROOT
BRANCH   1   9
HETATM    9  C3  UNL     1       6.195  -5.980  -1.668  1.00  0.00     0.011 A 
HETATM   10  C2  UNL     1       7.516  -5.837  -1.399  1.00  0.00     0.054 A 
HETATM   11  C1  UNL     1       7.944  -4.894  -0.479  1.00  0.00     0.100 A 
HETATM   12  C24 UNL     1       7.037  -4.094   0.172  1.00  0.00     0.111 A 
HETATM   13  C23 UNL     1       5.680  -4.265  -0.129  1.00  0.00     0.041 A 
HETATM   14  C22 UNL     1       5.260  -5.205  -1.045  1.00  0.00     0.018 A 
BRANCH  11  15
HETATM   15  O1  UNL     1       9.315  -4.812  -0.269  1.00  0.00    -0.358 OA
ATOM     16  H1  UNL     1       9.727  -3.982  -0.478  1.00  0.00     0.217 HD
ENDBRANCH  11  15
BRANCH  12  17
HETATM   17  O2  UNL     1       7.445  -3.150   1.097  1.00  0.00    -0.252 OA
BRANCH  17  18
HETATM   18  C25 UNL     1       7.871  -1.843   0.793  1.00  0.00     0.530 C 
HETATM   19  F1  UNL     1       9.236  -1.764   1.018  1.00  0.00    -0.144 F 
HETATM   20  F2  UNL     1       7.674  -1.588  -0.578  1.00  0.00    -0.144 F 
HETATM   21  F3  UNL     1       7.153  -0.877   1.442  1.00  0.00    -0.144 F 
ENDBRANCH  17  18
ENDBRANCH  12  17
ENDBRANCH   1   9
BRANCH   4  22
HETATM   22  C6  UNL     1       2.664  -7.976  -4.462  1.00  0.00     0.036 C 
HETATM   23  C7  UNL     1       2.318  -9.354  -4.964  1.00  0.00     0.011 C 
HETATM   24  C8  UNL     1       0.891  -9.725  -4.793  1.00  0.00     0.001 C 
HETATM   25  C9  UNL     1      -0.073  -8.582  -4.894  1.00  0.00     0.000 C 
HETATM   26  C10 UNL     1       0.340  -7.384  -4.076  1.00  0.00     0.001 C 
HETATM   27  C11 UNL     1       1.662  -7.608  -3.374  1.00  0.00     0.011 C 
ENDBRANCH   4  22
BRANCH   6  28
HETATM   28  N2  UNL     1       7.204  -9.781  -4.533  1.00  0.00    -0.366 N 
HETATM   29  C14 UNL     1       7.018 -10.565  -5.739  1.00  0.00     0.125 C 
HETATM   30  C15 UNL     1       8.177 -11.501  -5.825  1.00  0.00     0.031 C 
HETATM   31  C16 UNL     1       8.638 -11.573  -4.376  1.00  0.00    -0.020 C 
HETATM   32  C17 UNL     1      10.060 -12.070  -4.281  1.00  0.00     0.039 C 
HETATM   33  C20 UNL     1       7.707 -12.464  -3.621  1.00  0.00     0.039 C 
HETATM   34  C21 UNL     1       8.490 -10.137  -3.944  1.00  0.00     0.134 C 
HETATM   35  C18 UNL     1      10.008 -13.581  -4.440  1.00  0.00     0.233 C 
HETATM   36  N3  UNL     1       9.472 -14.131  -3.217  1.00  0.00    -0.075 N 
HETATM   37  C19 UNL     1       8.512 -13.256  -2.623  1.00  0.00     0.233 C 
ATOM     38  H32 UNL     1       9.084 -15.063  -3.366  1.00  0.00     0.277 HD
ATOM     39  H31 UNL     1      10.214 -14.372  -2.560  1.00  0.00     0.277 HD
ENDBRANCH   6  28
TORSDOF 6
ENDMDL
MODEL 5
REMARK VINA RESULT: -9.499442899      1.719      2.367
REMARK  6 active torsions:
REMARK  status: ('A' for Active; 'I' for Inactive)
REMARK    1  A    between atoms: O1_1  and  C1_3 
REMARK    2  A    between atoms: C3_5  and  C4_6 
REMARK    3  A    between atoms: C5_9  and  C6_10 
REMARK    4  A    between atoms: C13_17  and  N2_18 
REMARK    5  A    between atoms: C24_34  and  O2_35 
REMARK    6  A    between atoms: O2_35  and  C25_36 
ROOT
HETATM    1  C4  UNL     1       5.621  -8.181  -3.262  1.00  0.00     0.117 A 
HETATM    2  N1  UNL     1       4.500  -8.649  -3.851  1.00  0.00    -0.345 N 
ATOM      3  H1  UNL     1       3.609  -8.208  -3.625  1.00  0.00     0.167 HD
HETATM    4  C5  UNL     1       4.510  -9.673  -4.724  1.00  0.00     0.018 A 
HETATM    5  C12 UNL     1       5.733 -10.246  -5.009  1.00  0.00     0.073 A 
HETATM    6  C13 UNL     1       6.895  -9.798  -4.430  1.00  0.00     0.106 A 
HETATM    7  N4  UNL     1       6.790  -8.770  -3.568  1.00  0.00    -0.328 N 
ATOM      8  H4  UNL     1       7.640  -8.420  -3.126  1.00  0.00     0.169 HD
ENDROOT
BRANCH   1   9
HETATM    9  C3  UNL     1       5.552  -7.061  -2.316  1.00  0.00     0.011 A 
HETATM   10  C2  UNL     1       4.353  -6.711  -1.791  1.00  0.00     0.054 A 
HETATM   11  C1  UNL     1       4.262  -5.657  -0.896  1.00  0.00     0.100 A 
HETATM   12  C24 UNL     1       5.385  -4.955  -0.531  1.00  0.00     0.111 A 
HETATM   13  C23 UNL     1       6.610  -5.343  -1.090  1.00  0.00     0.041 A 
HETATM   14  C22 UNL     1       6.692  -6.393  -1.979  1.00  0.00     0.018 A 
BRANCH  11  15
HETATM   15  O1  UNL     1       2.995  -5.369  -0.404  1.00  0.00    -0.358 OA
ATOM     16  H1  UNL     1       2.856  -5.519   0.524  1.00  0.00     0.217 HD
ENDBRANCH  11  15
BRANCH  12  17
HETATM   17  O2  UNL     1       5.315  -3.897   0.357  1.00  0.00    -0.252 OA
BRANCH  17  18
HETATM   18  C25 UNL     1       6.383  -3.420   1.142  1.00  0.00     0.530 C 
HETATM   19  F1  UNL     1       7.136  -2.549   0.373  1.00  0.00    -0.144 F 
HETATM   20  F2  UNL     1       5.878  -2.670   2.222  1.00  0.00    -0.144 F 
HETATM   21  F3  UNL     1       7.119  -4.420   1.715  1.00  0.00    -0.144 F 
ENDBRANCH  17  18
ENDBRANCH  12  17
ENDBRANCH   1   9
BRANCH   4  22
HETATM   22  C6  UNL     1       3.307 -10.200  -5.377  1.00  0.00     0.036 C 
HETATM   23  C7  UNL     1       2.870 -11.498  -4.750  1.00  0.00     0.011 C 
HETATM   24  C8  UNL     1       1.405 -11.732  -4.787  1.00  0.00     0.001 C 
HETATM   25  C9  UNL     1       0.707 -11.157  -5.983  1.00  0.00     0.000 C 
HETATM   26  C10 UNL     1       1.097  -9.728  -6.268  1.00  0.00     0.001 C 
HETATM   27  C11 UNL     1       2.140  -9.223  -5.294  1.00  0.00     0.011 C 
ENDBRANCH   4  22
BRANCH   6  28
HETATM   28  N2  UNL     1       8.147 -10.395  -4.732  1.00  0.00    -0.366 N 
HETATM   29  C14 UNL     1       8.362 -11.368  -5.785  1.00  0.00     0.125 C 
HETATM   30  C15 UNL     1       9.784 -11.809  -5.677  1.00  0.00     0.031 C 
HETATM   31  C16 UNL     1      10.112 -11.478  -4.228  1.00  0.00    -0.020 C 
HETATM   32  C17 UNL     1      11.604 -11.390  -4.014  1.00  0.00     0.039 C 
HETATM   33  C20 UNL     1       9.506 -12.523  -3.350  1.00  0.00     0.039 C 
HETATM   34  C21 UNL     1       9.417 -10.152  -4.060  1.00  0.00     0.134 C 
HETATM   35  C18 UNL     1      12.116 -12.817  -3.906  1.00  0.00     0.233 C 
HETATM   36  N3  UNL     1      11.712 -13.331  -2.618  1.00  0.00    -0.075 N 
HETATM   37  C19 UNL     1      10.453 -12.793  -2.210  1.00  0.00     0.233 C 
ATOM     38  H32 UNL     1      11.702 -14.350  -2.609  1.00  0.00     0.277 HD
ATOM     39  H31 UNL     1      12.431 -13.173  -1.912  1.00  0.00     0.277 HD
ENDBRANCH   6  28
TORSDOF 6
ENDMDL
