MODEL 1
REMARK VINA RESULT: -9.871555047      0.000      0.000
REMARK  7 active torsions:
REMARK  status: ('A' for Active; 'I' for Inactive)
REMARK    1  A    between atoms: N1_1  and  N2_4 
REMARK    2  A    between atoms: N2_4  and  N3_5 
REMARK    3  A    between atoms: N3_5  and  C1_7 
REMARK    4  A    between atoms: N4_10  and  N5_11 
REMARK       I    between atoms: N5_11  and  C4_13 
REMARK       I    between atoms: C4_13  and  N6_15 
REMARK    5  A    between atoms: N6_15  and  C5_17 
REMARK    6  A    between atoms: C6_18  and  C7_19 
REMARK    7  A    between atoms: C8_23  and  C9_24 
ROOT
HETATM    1  C5  UNL     1       4.572 -12.596  -3.436  1.00  0.00     0.067 A 
HETATM    2  C6  UNL     1       5.231 -13.719  -2.979  1.00  0.00     0.098 A 
HETATM    3  C8  UNL     1       4.707 -14.992  -2.931  1.00  0.00     0.031 A 
HETATM    4  N7  UNL     1       3.452 -15.114  -3.372  1.00  0.00    -0.352 N 
ATOM      5  H7  UNL     1       2.999 -16.028  -3.362  1.00  0.00     0.166 HD
HETATM    6  C12 UNL     1       2.770 -14.024  -3.836  1.00  0.00     0.087 A 
HETATM    7  S1  UNL     1       1.205 -13.923  -4.496  1.00  0.00    -0.075 SA
HETATM    8  C13 UNL     1       1.159 -12.263  -4.836  1.00  0.00    -0.008 A 
HETATM    9  C14 UNL     1       2.389 -11.817  -4.415  1.00  0.00    -0.030 A 
HETATM   10  C15 UNL     1       3.237 -12.754  -3.901  1.00  0.00     0.033 A 
HETATM   11  C16 UNL     1       2.454 -10.283  -4.472  1.00  0.00     0.040 C 
HETATM   12  C17 UNL     1       1.142  -9.802  -3.800  1.00  0.00     0.005 C 
HETATM   13  C18 UNL     1      -0.069 -10.127  -4.598  1.00  0.00     0.005 C 
HETATM   14  C19 UNL     1       0.170 -11.333  -5.489  1.00  0.00     0.047 C 
ENDROOT
BRANCH   1  15
HETATM   15  N6  UNL     1       5.206 -11.339  -3.425  1.00  0.00    -0.306 N 
HETATM   16  C4  UNL     1       5.064 -10.336  -2.426  1.00  0.00     0.339 C 
HETATM   17  N5  UNL     1       5.764  -9.112  -2.564  1.00  0.00    -0.250 N 
HETATM   18  O1  UNL     1       4.346 -10.490  -1.432  1.00  0.00    -0.245 OA
ATOM     19  H5  UNL     1       6.352  -8.998  -3.389  1.00  0.00     0.192 HD
ATOM     20  H6  UNL     1       5.826 -11.128  -4.208  1.00  0.00     0.171 HD
BRANCH  17  21
HETATM   21  N4  UNL     1       5.713  -8.069  -1.674  1.00  0.00    -0.303 N 
HETATM   22  C3  UNL     1       4.789  -8.176  -0.625  1.00  0.00     0.085 C 
HETATM   23  C2  UNL     1       3.594  -7.270  -0.699  1.00  0.00     0.074 C 
HETATM   24  C1  UNL     1       3.528  -6.586  -2.075  1.00  0.00     0.120 C 
HETATM   25  C21 UNL     1       4.835  -5.832  -2.220  1.00  0.00     0.049 C 
HETATM   26  C20 UNL     1       5.984  -6.779  -2.223  1.00  0.00     0.150 C 
BRANCH  24  27
HETATM   27  N3  UNL     1       2.410  -5.650  -2.016  1.00  0.00    -0.247 N 
ATOM     28  H3  UNL     1       2.607  -4.670  -1.814  1.00  0.00     0.197 HD
BRANCH  27  29
HETATM   29  N2  UNL     1       1.253  -5.984  -2.198  1.00  0.00    -0.248 NA
BRANCH  29  30
HETATM   30  N1  UNL     1       0.090  -6.348  -2.389  1.00  0.00    -0.261 N 
ATOM     31  H12 UNL     1       0.945  -6.904  -2.372  1.00  0.00     0.193 HD
ATOM     32  H11 UNL     1      -0.879  -6.627  -2.544  1.00  0.00     0.193 HD
ENDBRANCH  29  30
ENDBRANCH  27  29
ENDBRANCH  24  27
ENDBRANCH  17  21
ENDBRANCH   1  15
BRANCH   2  33
HETATM   33  C7  UNL     1       6.582 -13.544  -2.402  1.00  0.00     0.421 C 
HETATM   34  F1  UNL     1       7.338 -12.605  -3.040  1.00  0.00    -0.166 F 
HETATM   35  F2  UNL     1       6.328 -13.134  -1.065  1.00  0.00    -0.166 F 
HETATM   36  F3  UNL     1       7.333 -14.659  -2.260  1.00  0.00    -0.166 F 
ENDBRANCH   2  33
BRANCH   3  37
HETATM   37  C9  UNL     1       5.506 -16.190  -2.548  1.00  0.00     0.036 A 
HETATM   38  C10 UNL     1       4.841 -17.538  -2.429  1.00  0.00     0.011 A 
HETATM   39  C11 UNL     1       5.375 -17.262  -3.753  1.00  0.00     0.011 A 
ENDBRANCH   3  37
TORSDOF 7
ENDMDL
MODEL 2
REMARK VINA RESULT: -9.780689028      3.999      7.331
REMARK  7 active torsions:
REMARK  status: ('A' for Active; 'I' for Inactive)
REMARK    1  A    between atoms: N1_1  and  N2_4 
REMARK    2  A    between atoms: N2_4  and  N3_5 
REMARK    3  A    between atoms: N3_5  and  C1_7 
REMARK    4  A    between atoms: N4_10  and  N5_11 
REMARK       I    between atoms: N5_11  and  C4_13 
REMARK       I    between atoms: C4_13  and  N6_15 
REMARK    5  A    between atoms: N6_15  and  C5_17 
REMARK    6  A    between atoms: C6_18  and  C7_19 
REMARK    7  A    between atoms: C8_23  and  C9_24 
ROOT
HETATM    1  C5  UNL     1       4.589  -9.557  -3.155  1.00  0.00     0.067 A 
HETATM    2  C6  UNL     1       3.683 -10.393  -3.773  1.00  0.00     0.098 A 
HETATM    3  C8  UNL     1       2.371 -10.084  -4.057  1.00  0.00     0.031 A 
HETATM    4  N7  UNL     1       1.977  -8.861  -3.688  1.00  0.00    -0.352 N 
ATOM      5  H7  UNL     1       1.016  -8.565  -3.864  1.00  0.00     0.166 HD
HETATM    6  C12 UNL     1       2.848  -8.005  -3.078  1.00  0.00     0.087 A 
HETATM    7  S1  UNL     1       2.616  -6.398  -2.569  1.00  0.00    -0.075 SA
HETATM    8  C13 UNL     1       4.166  -6.075  -1.966  1.00  0.00    -0.008 A 
HETATM    9  C14 UNL     1       4.842  -7.253  -2.175  1.00  0.00    -0.030 A 
HETATM   10  C15 UNL     1       4.144  -8.261  -2.774  1.00  0.00     0.033 A 
HETATM   11  C16 UNL     1       6.225  -7.206  -1.509  1.00  0.00     0.040 C 
HETATM   12  C17 UNL     1       5.962  -6.664  -0.079  1.00  0.00     0.005 C 
HETATM   13  C18 UNL     1       5.526  -5.244  -0.071  1.00  0.00     0.005 C 
HETATM   14  C19 UNL     1       4.856  -4.869  -1.381  1.00  0.00     0.047 C 
ENDROOT
BRANCH   1  15
HETATM   15  N6  UNL     1       5.906  -9.988  -2.903  1.00  0.00    -0.306 N 
HETATM   16  C4  UNL     1       7.019  -9.842  -3.779  1.00  0.00     0.339 C 
HETATM   17  N5  UNL     1       8.285 -10.339  -3.385  1.00  0.00    -0.250 N 
HETATM   18  O1  UNL     1       6.924  -9.291  -4.881  1.00  0.00    -0.245 OA
ATOM     19  H5  UNL     1       8.348 -10.792  -2.473  1.00  0.00     0.192 HD
ATOM     20  H6  UNL     1       6.079 -10.449  -2.009  1.00  0.00     0.171 HD
BRANCH  17  21
HETATM   21  N4  UNL     1       9.432 -10.261  -4.133  1.00  0.00    -0.303 N 
HETATM   22  C3  UNL     1       9.648 -11.281  -5.070  1.00  0.00     0.085 C 
HETATM   23  C2  UNL     1      10.744 -12.256  -4.748  1.00  0.00     0.074 C 
HETATM   24  C1  UNL     1      11.229 -12.054  -3.303  1.00  0.00     0.120 C 
HETATM   25  C21 UNL     1      11.696 -10.614  -3.226  1.00  0.00     0.049 C 
HETATM   26  C20 UNL     1      10.559  -9.685  -3.472  1.00  0.00     0.150 C 
BRANCH  24  27
HETATM   27  N3  UNL     1      12.358 -12.960  -3.118  1.00  0.00    -0.247 N 
ATOM     28  H3  UNL     1      12.741 -13.434  -3.936  1.00  0.00     0.197 HD
BRANCH  27  29
HETATM   29  N2  UNL     1      12.865 -13.178  -2.032  1.00  0.00    -0.248 NA
BRANCH  29  30
HETATM   30  N1  UNL     1      13.403 -13.406  -0.946  1.00  0.00    -0.261 N 
ATOM     31  H12 UNL     1      13.811 -13.411  -1.881  1.00  0.00     0.193 HD
ATOM     32  H11 UNL     1      13.827 -13.591  -0.036  1.00  0.00     0.193 HD
ENDBRANCH  29  30
ENDBRANCH  27  29
ENDBRANCH  24  27
ENDBRANCH  17  21
ENDBRANCH   1  15
BRANCH   2  33
HETATM   33  C7  UNL     1       4.111 -11.776  -4.080  1.00  0.00     0.421 C 
HETATM   34  F1  UNL     1       3.083 -12.669  -4.152  1.00  0.00    -0.166 F 
HETATM   35  F2  UNL     1       4.741 -11.660  -5.349  1.00  0.00    -0.166 F 
HETATM   36  F3  UNL     1       5.071 -12.307  -3.291  1.00  0.00    -0.166 F 
ENDBRANCH   2  33
BRANCH   3  37
HETATM   37  C9  UNL     1       1.472 -10.977  -4.840  1.00  0.00     0.036 A 
HETATM   38  C10 UNL     1       0.290 -10.402  -5.579  1.00  0.00     0.011 A 
HETATM   39  C11 UNL     1       1.505 -10.468  -6.375  1.00  0.00     0.011 A 
ENDBRANCH   3  37
TORSDOF 7
ENDMDL
MODEL 3
REMARK VINA RESULT: -9.753644455      3.571      6.950
REMARK  7 active torsions:
REMARK  status: ('A' for Active; 'I' for Inactive)
REMARK    1  A    between atoms: N1_1  and  N2_4 
REMARK    2  A    between atoms: N2_4  and  N3_5 
REMARK    3  A    between atoms: N3_5  and  C1_7 
REMARK    4  A    between atoms: N4_10  and  N5_11 
REMARK       I    between atoms: N5_11  and  C4_13 
REMARK       I    between atoms: C4_13  and  N6_15 
REMARK    5  A    between atoms: N6_15  and  C5_17 
REMARK    6  A    between atoms: C6_18  and  C7_19 
REMARK    7  A    between atoms: C8_23  and  C9_24 
ROOT
HETATM    1  C5  UNL     1       3.583 -10.342  -3.053  1.00  0.00     0.067 A 
HETATM    2  C6  UNL     1       2.559 -11.142  -3.513  1.00  0.00     0.098 A 
HETATM    3  C8  UNL     1       1.279 -10.722  -3.801  1.00  0.00     0.031 A 
HETATM    4  N7  UNL     1       1.045  -9.421  -3.606  1.00  0.00    -0.352 N 
ATOM      5  H7  UNL     1       0.118  -9.040  -3.795  1.00  0.00     0.166 HD
HETATM    6  C12 UNL     1       2.037  -8.596  -3.156  1.00  0.00     0.087 A 
HETATM    7  S1  UNL     1       2.015  -6.917  -2.885  1.00  0.00    -0.075 SA
HETATM    8  C13 UNL     1       3.619  -6.699  -2.382  1.00  0.00    -0.008 A 
HETATM    9  C14 UNL     1       4.145  -7.968  -2.435  1.00  0.00    -0.030 A 
HETATM   10  C15 UNL     1       3.308  -8.960  -2.856  1.00  0.00     0.033 A 
HETATM   11  C16 UNL     1       5.554  -7.993  -1.824  1.00  0.00     0.040 C 
HETATM   12  C17 UNL     1       5.423  -7.223  -0.484  1.00  0.00     0.005 C 
HETATM   13  C18 UNL     1       5.153  -5.774  -0.674  1.00  0.00     0.005 C 
HETATM   14  C19 UNL     1       4.469  -5.514  -2.004  1.00  0.00     0.047 C 
ENDROOT
BRANCH   1  15
HETATM   15  N6  UNL     1       4.852 -10.888  -2.780  1.00  0.00    -0.306 N 
HETATM   16  C4  UNL     1       5.945 -10.965  -3.688  1.00  0.00     0.339 C 
HETATM   17  N5  UNL     1       7.161 -11.555  -3.265  1.00  0.00    -0.250 N 
HETATM   18  O1  UNL     1       5.877 -10.533  -4.844  1.00  0.00    -0.245 OA
ATOM     19  H5  UNL     1       7.204 -11.908  -2.309  1.00  0.00     0.192 HD
ATOM     20  H6  UNL     1       5.002 -11.263  -1.843  1.00  0.00     0.171 HD
BRANCH  17  21
HETATM   21  N4  UNL     1       8.286 -11.689  -4.039  1.00  0.00    -0.303 N 
HETATM   22  C3  UNL     1       8.695 -12.996  -4.341  1.00  0.00     0.085 C 
HETATM   23  C2  UNL     1       9.943 -13.475  -3.659  1.00  0.00     0.074 C 
HETATM   24  C1  UNL     1      10.365 -12.483  -2.562  1.00  0.00     0.120 C 
HETATM   25  C21 UNL     1      10.564 -11.155  -3.266  1.00  0.00     0.049 C 
HETATM   26  C20 UNL     1       9.282 -10.682  -3.857  1.00  0.00     0.150 C 
BRANCH  24  27
HETATM   27  N3  UNL     1      11.635 -12.969  -2.034  1.00  0.00    -0.247 N 
ATOM     28  H3  UNL     1      11.784 -13.976  -1.976  1.00  0.00     0.197 HD
BRANCH  27  29
HETATM   29  N2  UNL     1      12.527 -12.229  -1.659  1.00  0.00    -0.248 NA
BRANCH  29  30
HETATM   30  N1  UNL     1      13.429 -11.492  -1.253  1.00  0.00    -0.261 N 
ATOM     31  H12 UNL     1      12.438 -11.487  -1.016  1.00  0.00     0.193 HD
ATOM     32  H11 UNL     1      14.192 -10.895  -0.932  1.00  0.00     0.193 HD
ENDBRANCH  29  30
ENDBRANCH  27  29
ENDBRANCH  24  27
ENDBRANCH  17  21
ENDBRANCH   1  15
BRANCH   2  33
HETATM   33  C7  UNL     1       2.810 -12.597  -3.625  1.00  0.00     0.421 C 
HETATM   34  F1  UNL     1       3.899 -12.912  -4.384  1.00  0.00    -0.166 F 
HETATM   35  F2  UNL     1       3.023 -13.007  -2.280  1.00  0.00    -0.166 F 
HETATM   36  F3  UNL     1       1.777 -13.364  -4.036  1.00  0.00    -0.166 F 
ENDBRANCH   2  33
BRANCH   3  37
HETATM   37  C9  UNL     1       0.248 -11.604  -4.416  1.00  0.00     0.036 A 
HETATM   38  C10 UNL     1      -0.971 -11.002  -5.068  1.00  0.00     0.011 A 
HETATM   39  C11 UNL     1       0.143 -11.205  -5.980  1.00  0.00     0.011 A 
ENDBRANCH   3  37
TORSDOF 7
ENDMDL
MODEL 4
REMARK VINA RESULT: -9.716534225      3.827      7.429
REMARK  7 active torsions:
REMARK  status: ('A' for Active; 'I' for Inactive)
REMARK    1  A    between atoms: N1_1  and  N2_4 
REMARK    2  A    between atoms: N2_4  and  N3_5 
REMARK    3  A    between atoms: N3_5  and  C1_7 
REMARK    4  A    between atoms: N4_10  and  N5_11 
REMARK       I    between atoms: N5_11  and  C4_13 
REMARK       I    between atoms: C4_13  and  N6_15 
REMARK    5  A    between atoms: N6_15  and  C5_17 
REMARK    6  A    between atoms: C6_18  and  C7_19 
REMARK    7  A    between atoms: C8_23  and  C9_24 
ROOT
HETATM    1  C5  UNL     1       4.426  -9.493  -3.168  1.00  0.00     0.067 A 
HETATM    2  C6  UNL     1       3.459 -10.280  -3.756  1.00  0.00     0.098 A 
HETATM    3  C8  UNL     1       2.151  -9.911  -3.980  1.00  0.00     0.031 A 
HETATM    4  N7  UNL     1       1.826  -8.677  -3.582  1.00  0.00    -0.352 N 
ATOM      5  H7  UNL     1       0.873  -8.338  -3.714  1.00  0.00     0.166 HD
HETATM    6  C12 UNL     1       2.759  -7.867  -3.000  1.00  0.00     0.087 A 
HETATM    7  S1  UNL     1       2.619  -6.258  -2.465  1.00  0.00    -0.075 SA
HETATM    8  C13 UNL     1       4.206  -6.010  -1.924  1.00  0.00    -0.008 A 
HETATM    9  C14 UNL     1       4.821  -7.214  -2.175  1.00  0.00    -0.030 A 
HETATM   10  C15 UNL     1       4.055  -8.183  -2.755  1.00  0.00     0.033 A 
HETATM   11  C16 UNL     1       6.231  -7.236  -1.568  1.00  0.00     0.040 C 
HETATM   12  C17 UNL     1       6.053  -6.701  -0.123  1.00  0.00     0.005 C 
HETATM   13  C18 UNL     1       5.680  -5.263  -0.081  1.00  0.00     0.005 C 
HETATM   14  C19 UNL     1       4.972  -4.844  -1.357  1.00  0.00     0.047 C 
ENDROOT
BRANCH   1  15
HETATM   15  N6  UNL     1       5.732  -9.983  -2.978  1.00  0.00    -0.306 N 
HETATM   16  C4  UNL     1       6.795  -9.927  -3.922  1.00  0.00     0.339 C 
HETATM   17  N5  UNL     1       8.056 -10.476  -3.584  1.00  0.00    -0.250 N 
HETATM   18  O1  UNL     1       6.662  -9.411  -5.037  1.00  0.00    -0.245 OA
ATOM     19  H5  UNL     1       8.152 -10.899  -2.661  1.00  0.00     0.192 HD
ATOM     20  H6  UNL     1       5.935 -10.421  -2.078  1.00  0.00     0.171 HD
BRANCH  17  21
HETATM   21  N4  UNL     1       9.158 -10.485  -4.400  1.00  0.00    -0.303 N 
HETATM   22  C3  UNL     1       9.151 -11.397  -5.465  1.00  0.00     0.085 C 
HETATM   23  C2  UNL     1      10.084 -12.567  -5.344  1.00  0.00     0.074 C 
HETATM   24  C1  UNL     1      10.674 -12.633  -3.925  1.00  0.00     0.120 C 
HETATM   25  C21 UNL     1      11.378 -11.307  -3.713  1.00  0.00     0.049 C 
HETATM   26  C20 UNL     1      10.399 -10.186  -3.761  1.00  0.00     0.150 C 
BRANCH  24  27
HETATM   27  N3  UNL     1      11.644 -13.723  -3.932  1.00  0.00    -0.247 N 
ATOM     28  H3  UNL     1      12.414 -13.693  -3.264  1.00  0.00     0.197 HD
BRANCH  27  29
HETATM   29  N2  UNL     1      11.578 -14.668  -4.698  1.00  0.00    -0.248 NA
BRANCH  29  30
HETATM   30  N1  UNL     1      11.538 -15.633  -5.465  1.00  0.00    -0.261 N 
ATOM     31  H12 UNL     1      12.340 -15.077  -5.170  1.00  0.00     0.193 HD
ATOM     32  H11 UNL     1      11.480 -16.433  -6.095  1.00  0.00     0.193 HD
ENDBRANCH  29  30
ENDBRANCH  27  29
ENDBRANCH  24  27
ENDBRANCH  17  21
ENDBRANCH   1  15
BRANCH   2  33
HETATM   33  C7  UNL     1       3.812 -11.676  -4.096  1.00  0.00     0.421 C 
HETATM   34  F1  UNL     1       2.746 -12.526  -4.120  1.00  0.00    -0.166 F 
HETATM   35  F2  UNL     1       4.378 -11.574  -5.396  1.00  0.00    -0.166 F 
HETATM   36  F3  UNL     1       4.790 -12.254  -3.363  1.00  0.00    -0.166 F 
ENDBRANCH   2  33
BRANCH   3  37
HETATM   37  C9  UNL     1       1.181 -10.754  -4.734  1.00  0.00     0.036 A 
HETATM   38  C10 UNL     1      -0.082 -10.145  -5.288  1.00  0.00     0.011 A 
HETATM   39  C11 UNL     1       1.038 -10.118  -6.215  1.00  0.00     0.011 A 
ENDBRANCH   3  37
TORSDOF 7
ENDMDL
MODEL 5
REMARK VINA RESULT: -9.631272158      1.933      2.204
REMARK  7 active torsions:
REMARK  status: ('A' for Active; 'I' for Inactive)
REMARK    1  A    between atoms: N1_1  and  N2_4 
REMARK    2  A    between atoms: N2_4  and  N3_5 
REMARK    3  A    between atoms: N3_5  and  C1_7 
REMARK    4  A    between atoms: N4_10  and  N5_11 
REMARK       I    between atoms: N5_11  and  C4_13 
REMARK       I    between atoms: C4_13  and  N6_15 
REMARK    5  A    between atoms: N6_15  and  C5_17 
REMARK    6  A    between atoms: C6_18  and  C7_19 
REMARK    7  A    between atoms: C8_23  and  C9_24 
ROOT
HETATM    1  C5  UNL     1       4.300 -12.779  -2.614  1.00  0.00     0.067 A 
HETATM    2  C6  UNL     1       5.108 -13.869  -2.372  1.00  0.00     0.098 A 
HETATM    3  C8  UNL     1       4.893 -15.147  -2.840  1.00  0.00     0.031 A 
HETATM    4  N7  UNL     1       3.798 -15.307  -3.589  1.00  0.00    -0.352 N 
ATOM      5  H7  UNL     1       3.574 -16.229  -3.966  1.00  0.00     0.166 HD
HETATM    6  C12 UNL     1       2.976 -14.249  -3.853  1.00  0.00     0.087 A 
HETATM    7  S1  UNL     1       1.572 -14.176  -4.812  1.00  0.00    -0.075 SA
HETATM    8  C13 UNL     1       1.205 -12.531  -4.635  1.00  0.00    -0.008 A 
HETATM    9  C14 UNL     1       2.204 -12.067  -3.812  1.00  0.00    -0.030 A 
HETATM   10  C15 UNL     1       3.141 -12.976  -3.415  1.00  0.00     0.033 A 
HETATM   11  C16 UNL     1       1.922 -10.619  -3.385  1.00  0.00     0.040 C 
HETATM   12  C17 UNL     1       0.436 -10.615  -2.940  1.00  0.00     0.005 C 
HETATM   13  C18 UNL     1      -0.506 -10.834  -4.068  1.00  0.00     0.005 C 
HETATM   14  C19 UNL     1       0.159 -11.603  -5.196  1.00  0.00     0.047 C 
ENDROOT
BRANCH   1  15
HETATM   15  N6  UNL     1       4.614 -11.519  -2.070  1.00  0.00    -0.306 N 
HETATM   16  C4  UNL     1       5.155 -10.410  -2.781  1.00  0.00     0.339 C 
HETATM   17  N5  UNL     1       5.428  -9.205  -2.087  1.00  0.00    -0.250 N 
HETATM   18  O1  UNL     1       5.397 -10.455  -3.991  1.00  0.00    -0.245 OA
ATOM     19  H5  UNL     1       5.223  -9.182  -1.088  1.00  0.00     0.192 HD
ATOM     20  H6  UNL     1       4.438 -11.388  -1.074  1.00  0.00     0.171 HD
BRANCH  17  21
HETATM   21  N4  UNL     1       5.946  -8.068  -2.653  1.00  0.00    -0.303 N 
HETATM   22  C3  UNL     1       7.302  -7.803  -2.414  1.00  0.00     0.085 C 
HETATM   23  C2  UNL     1       7.602  -6.655  -1.493  1.00  0.00     0.074 C 
HETATM   24  C1  UNL     1       6.314  -6.173  -0.806  1.00  0.00     0.120 C 
HETATM   25  C21 UNL     1       5.372  -5.783  -1.929  1.00  0.00     0.049 C 
HETATM   26  C20 UNL     1       5.040  -6.970  -2.765  1.00  0.00     0.150 C 
BRANCH  24  27
HETATM   27  N3  UNL     1       6.680  -4.997  -0.024  1.00  0.00    -0.247 N 
ATOM     28  H3  UNL     1       7.669  -4.780   0.094  1.00  0.00     0.197 HD
BRANCH  27  29
HETATM   29  N2  UNL     1       5.860  -4.262   0.496  1.00  0.00    -0.248 NA
BRANCH  29  30
HETATM   30  N1  UNL     1       5.009  -3.538   1.018  1.00  0.00    -0.261 N 
ATOM     31  H12 UNL     1       6.024  -3.500   1.099  1.00  0.00     0.193 HD
ATOM     32  H11 UNL     1       4.287  -2.952   1.439  1.00  0.00     0.193 HD
ENDBRANCH  29  30
ENDBRANCH  27  29
ENDBRANCH  24  27
ENDBRANCH  17  21
ENDBRANCH   1  15
BRANCH   2  33
HETATM   33  C7  UNL     1       6.259 -13.692  -1.458  1.00  0.00     0.421 C 
HETATM   34  F1  UNL     1       7.305 -13.013  -2.012  1.00  0.00    -0.166 F 
HETATM   35  F2  UNL     1       5.718 -12.947  -0.376  1.00  0.00    -0.166 F 
HETATM   36  F3  UNL     1       6.748 -14.806  -0.871  1.00  0.00    -0.166 F 
ENDBRANCH   2  33
BRANCH   3  37
HETATM   37  C9  UNL     1       5.867 -16.260  -2.655  1.00  0.00     0.036 A 
HETATM   38  C10 UNL     1       5.378 -17.645  -2.314  1.00  0.00     0.011 A 
HETATM   39  C11 UNL     1       5.505 -17.402  -3.742  1.00  0.00     0.011 A 
ENDBRANCH   3  37
TORSDOF 7
ENDMDL
