MODEL 1
REMARK VINA RESULT: -9.962557738      0.000      0.000
REMARK  6 active torsions:
REMARK  status: ('A' for Active; 'I' for Inactive)
REMARK    1  A    between atoms: C2_2  and  C5_5 
REMARK    2  A    between atoms: N1_8  and  C8_9 
REMARK    3  A    between atoms: C9_12  and  N3_13 
REMARK    4  A    between atoms: C13_17  and  C14_18 
REMARK    5  A    between atoms: C17_21  and  O1_22 
REMARK    6  A    between atoms: C21_29  and  C22_30 
ROOT
HETATM    1  C8  UNL     1       3.867 -10.475  -3.854  1.00  0.00     0.686 A 
HETATM    2  N2  UNL     1       4.476 -11.561  -3.391  1.00  0.00    -0.176 N 
ATOM      3  H2  UNL     1       5.342 -11.449  -2.864  1.00  0.00     0.186 HD
HETATM    4  C9  UNL     1       4.004 -12.787  -3.586  1.00  0.00     0.124 A 
HETATM    5  C20 UNL     1       2.801 -12.929  -4.328  1.00  0.00     0.084 A 
HETATM    6  C21 UNL     1       2.157 -11.817  -4.818  1.00  0.00     0.136 A 
HETATM    7  N5  UNL     1       2.687 -10.639  -4.576  1.00  0.00    -0.186 N 
ATOM      8  H5  UNL     1       2.214  -9.809  -4.932  1.00  0.00     0.184 HD
ENDROOT
BRANCH   4   9
HETATM    9  N3  UNL     1       4.485 -13.999  -3.082  1.00  0.00    -0.347 N 
HETATM   10  C10 UNL     1       5.857 -14.267  -3.045  1.00  0.00     0.065 C 
HETATM   11  C11 UNL     1       6.227 -15.701  -2.793  1.00  0.00     0.045 C 
HETATM   12  C12 UNL     1       5.325 -16.517  -1.952  1.00  0.00     0.016 C 
HETATM   13  C13 UNL     1       4.145 -17.134  -2.586  1.00  0.00     0.037 C 
HETATM   14  C18 UNL     1       3.543 -16.110  -3.546  1.00  0.00     0.031 C 
HETATM   15  C19 UNL     1       3.357 -14.866  -2.663  1.00  0.00     0.130 C 
BRANCH  13  16
HETATM   16  C14 UNL     1       4.388 -18.421  -3.280  1.00  0.00     0.015 A 
HETATM   17  C15 UNL     1       3.706 -19.594  -3.239  1.00  0.00     0.029 A 
HETATM   18  C16 UNL     1       4.329 -20.494  -4.049  1.00  0.00     0.058 A 
HETATM   19  C17 UNL     1       5.419 -19.870  -4.606  1.00  0.00     0.140 A 
HETATM   20  N4  UNL     1       5.421 -18.602  -4.110  1.00  0.00    -0.340 N 
ATOM     21  H4  UNL     1       6.114 -17.890  -4.339  1.00  0.00     0.167 HD
BRANCH  19  22
HETATM   22  O1  UNL     1       6.333 -20.427  -5.492  1.00  0.00    -0.346 OA
ATOM     23  H1  UNL     1       7.266 -20.538  -5.350  1.00  0.00     0.219 HD
ENDBRANCH  19  22
ENDBRANCH  13  16
ENDBRANCH   4   9
BRANCH   1  24
HETATM   24  N1  UNL     1       4.198  -9.133  -3.678  1.00  0.00    -0.197 N 
HETATM   25  C7  UNL     1       5.559  -8.893  -3.092  1.00  0.00     0.147 C 
HETATM   26  C6  UNL     1       5.144  -8.227  -1.769  1.00  0.00     0.026 C 
HETATM   27  C5  UNL     1       4.893  -6.783  -2.131  1.00  0.00    -0.001 C 
HETATM   28  C24 UNL     1       4.090  -6.697  -3.412  1.00  0.00     0.050 C 
HETATM   29  C23 UNL     1       3.441  -7.982  -3.885  1.00  0.00     0.082 C 
BRANCH  27  30
HETATM   30  C2  UNL     1       4.190  -6.058  -1.001  1.00  0.00    -0.047 C 
HETATM   31  C1  UNL     1       2.734  -5.816  -1.387  1.00  0.00     0.015 C 
HETATM   32  C3  UNL     1       4.842  -4.890  -0.433  1.00  0.00     0.015 C 
HETATM   33  C4  UNL     1       4.077  -7.122   0.128  1.00  0.00     0.015 C 
ENDBRANCH  27  30
ENDBRANCH   1  24
BRANCH   6  34
HETATM   34  C22 UNL     1       0.885 -11.917  -5.599  1.00  0.00     0.433 C 
HETATM   35  F1  UNL     1       0.874 -10.806  -6.427  1.00  0.00    -0.165 F 
HETATM   36  F2  UNL     1       0.823 -13.068  -6.317  1.00  0.00    -0.165 F 
HETATM   37  F3  UNL     1      -0.138 -11.780  -4.694  1.00  0.00    -0.165 F 
ENDBRANCH   6  34
TORSDOF 6
ENDMDL
MODEL 2
REMARK VINA RESULT: -9.790103946      5.236      6.331
REMARK  6 active torsions:
REMARK  status: ('A' for Active; 'I' for Inactive)
REMARK    1  A    between atoms: C2_2  and  C5_5 
REMARK    2  A    between atoms: N1_8  and  C8_9 
REMARK    3  A    between atoms: C9_12  and  N3_13 
REMARK    4  A    between atoms: C13_17  and  C14_18 
REMARK    5  A    between atoms: C17_21  and  O1_22 
REMARK    6  A    between atoms: C21_29  and  C22_30 
ROOT
HETATM    1  C8  UNL     1       6.268 -10.580  -3.652  1.00  0.00     0.686 A 
HETATM    2  N2  UNL     1       7.396 -10.734  -4.338  1.00  0.00    -0.176 N 
ATOM      3  H2  UNL     1       7.678  -9.999  -4.986  1.00  0.00     0.186 HD
HETATM    4  C9  UNL     1       8.171 -11.805  -4.213  1.00  0.00     0.124 A 
HETATM    5  C20 UNL     1       7.762 -12.823  -3.311  1.00  0.00     0.084 A 
HETATM    6  C21 UNL     1       6.597 -12.685  -2.595  1.00  0.00     0.136 A 
HETATM    7  N5  UNL     1       5.890 -11.591  -2.772  1.00  0.00    -0.186 N 
ATOM      8  H5  UNL     1       5.026 -11.478  -2.242  1.00  0.00     0.184 HD
ENDROOT
BRANCH   4   9
HETATM    9  N3  UNL     1       9.418 -12.054  -4.794  1.00  0.00    -0.347 N 
HETATM   10  C10 UNL     1      10.137 -11.027  -5.416  1.00  0.00     0.065 C 
HETATM   11  C11 UNL     1      11.287 -11.475  -6.273  1.00  0.00     0.045 C 
HETATM   12  C12 UNL     1      12.006 -12.709  -5.889  1.00  0.00     0.016 C 
HETATM   13  C13 UNL     1      11.441 -14.006  -6.306  1.00  0.00     0.037 C 
HETATM   14  C18 UNL     1       9.927 -13.937  -6.118  1.00  0.00     0.031 C 
HETATM   15  C19 UNL     1       9.774 -13.486  -4.656  1.00  0.00     0.130 C 
BRANCH  13  16
HETATM   16  C14 UNL     1      11.777 -14.440  -7.683  1.00  0.00     0.015 A 
HETATM   17  C15 UNL     1      12.821 -15.168  -8.153  1.00  0.00     0.029 A 
HETATM   18  C16 UNL     1      12.694 -15.297  -9.504  1.00  0.00     0.058 A 
HETATM   19  C17 UNL     1      11.550 -14.636  -9.880  1.00  0.00     0.140 A 
HETATM   20  N4  UNL     1      11.017 -14.124  -8.737  1.00  0.00    -0.340 N 
ATOM     21  H4  UNL     1      10.158 -13.576  -8.692  1.00  0.00     0.167 HD
BRANCH  19  22
HETATM   22  O1  UNL     1      11.047 -14.515 -11.170  1.00  0.00    -0.346 OA
ATOM     23  H1  UNL     1      10.959 -13.713 -11.672  1.00  0.00     0.219 HD
ENDBRANCH  19  22
ENDBRANCH  13  16
ENDBRANCH   4   9
BRANCH   1  24
HETATM   24  N1  UNL     1       5.391  -9.498  -3.625  1.00  0.00    -0.197 N 
HETATM   25  C7  UNL     1       5.991  -8.191  -4.055  1.00  0.00     0.147 C 
HETATM   26  C6  UNL     1       5.863  -7.414  -2.732  1.00  0.00     0.026 C 
HETATM   27  C5  UNL     1       4.440  -6.914  -2.720  1.00  0.00    -0.001 C 
HETATM   28  C24 UNL     1       3.494  -8.017  -3.150  1.00  0.00     0.050 C 
HETATM   29  C23 UNL     1       4.070  -9.418  -3.189  1.00  0.00     0.082 C 
BRANCH  27  30
HETATM   30  C2  UNL     1       4.066  -6.385  -1.350  1.00  0.00    -0.047 C 
HETATM   31  C1  UNL     1       4.551  -7.362  -0.282  1.00  0.00     0.015 C 
HETATM   32  C3  UNL     1       2.699  -5.934  -1.145  1.00  0.00     0.015 C 
HETATM   33  C4  UNL     1       4.997  -5.156  -1.144  1.00  0.00     0.015 C 
ENDBRANCH  27  30
ENDBRANCH   1  24
BRANCH   6  34
HETATM   34  C22 UNL     1       6.130 -13.727  -1.630  1.00  0.00     0.433 C 
HETATM   35  F1  UNL     1       6.804 -14.885  -1.984  1.00  0.00    -0.165 F 
HETATM   36  F2  UNL     1       6.392 -13.377  -0.344  1.00  0.00    -0.165 F 
HETATM   37  F3  UNL     1       4.795 -13.920  -1.884  1.00  0.00    -0.165 F 
ENDBRANCH   6  34
TORSDOF 6
ENDMDL
MODEL 3
REMARK VINA RESULT: -9.520005866      5.401      6.730
REMARK  6 active torsions:
REMARK  status: ('A' for Active; 'I' for Inactive)
REMARK    1  A    between atoms: C2_2  and  C5_5 
REMARK    2  A    between atoms: N1_8  and  C8_9 
REMARK    3  A    between atoms: C9_12  and  N3_13 
REMARK    4  A    between atoms: C13_17  and  C14_18 
REMARK    5  A    between atoms: C17_21  and  O1_22 
REMARK    6  A    between atoms: C21_29  and  C22_30 
ROOT
HETATM    1  C8  UNL     1       6.250 -10.734  -3.827  1.00  0.00     0.686 A 
HETATM    2  N2  UNL     1       7.374 -10.889  -4.519  1.00  0.00    -0.176 N 
ATOM      3  H2  UNL     1       7.599 -10.208  -5.245  1.00  0.00     0.186 HD
HETATM    4  C9  UNL     1       8.215 -11.893  -4.306  1.00  0.00     0.124 A 
HETATM    5  C20 UNL     1       7.886 -12.838  -3.298  1.00  0.00     0.084 A 
HETATM    6  C21 UNL     1       6.727 -12.698  -2.572  1.00  0.00     0.136 A 
HETATM    7  N5  UNL     1       5.950 -11.672  -2.841  1.00  0.00    -0.186 N 
ATOM      8  H5  UNL     1       5.090 -11.558  -2.305  1.00  0.00     0.184 HD
ENDROOT
BRANCH   4   9
HETATM    9  N3  UNL     1       9.466 -12.125  -4.888  1.00  0.00    -0.347 N 
HETATM   10  C10 UNL     1      10.168 -11.089  -5.514  1.00  0.00     0.065 C 
HETATM   11  C11 UNL     1      11.324 -11.521  -6.370  1.00  0.00     0.045 C 
HETATM   12  C12 UNL     1      12.062 -12.743  -5.984  1.00  0.00     0.016 C 
HETATM   13  C13 UNL     1      11.517 -14.050  -6.396  1.00  0.00     0.037 C 
HETATM   14  C18 UNL     1      10.003 -14.004  -6.207  1.00  0.00     0.031 C 
HETATM   15  C19 UNL     1       9.845 -13.551  -4.746  1.00  0.00     0.130 C 
BRANCH  13  16
HETATM   16  C14 UNL     1      11.858 -14.482  -7.773  1.00  0.00     0.015 A 
HETATM   17  C15 UNL     1      12.921 -15.182  -8.244  1.00  0.00     0.029 A 
HETATM   18  C16 UNL     1      12.791 -15.323  -9.593  1.00  0.00     0.058 A 
HETATM   19  C17 UNL     1      11.624 -14.700  -9.967  1.00  0.00     0.140 A 
HETATM   20  N4  UNL     1      11.082 -14.197  -8.824  1.00  0.00    -0.340 N 
ATOM     21  H4  UNL     1      10.207 -13.676  -8.777  1.00  0.00     0.167 HD
BRANCH  19  22
HETATM   22  O1  UNL     1      11.110 -14.604 -11.254  1.00  0.00    -0.346 OA
ATOM     23  H1  UNL     1      10.355 -14.095 -11.528  1.00  0.00     0.219 HD
ENDBRANCH  19  22
ENDBRANCH  13  16
ENDBRANCH   4   9
BRANCH   1  24
HETATM   24  N1  UNL     1       5.308  -9.710  -3.888  1.00  0.00    -0.197 N 
HETATM   25  C7  UNL     1       4.548  -9.478  -2.615  1.00  0.00     0.147 C 
HETATM   26  C6  UNL     1       3.135  -9.841  -3.102  1.00  0.00     0.026 C 
HETATM   27  C5  UNL     1       2.635  -8.594  -3.789  1.00  0.00    -0.001 C 
HETATM   28  C24 UNL     1       3.717  -8.019  -4.681  1.00  0.00     0.050 C 
HETATM   29  C23 UNL     1       4.903  -8.919  -4.962  1.00  0.00     0.082 C 
BRANCH  27  30
HETATM   30  C2  UNL     1       1.377  -8.883  -4.583  1.00  0.00    -0.047 C 
HETATM   31  C1  UNL     1       1.751  -9.592  -5.881  1.00  0.00     0.015 C 
HETATM   32  C3  UNL     1       0.425  -7.799  -4.767  1.00  0.00     0.015 C 
HETATM   33  C4  UNL     1       0.658  -9.999  -3.773  1.00  0.00     0.015 C 
ENDBRANCH  27  30
ENDBRANCH   1  24
BRANCH   6  34
HETATM   34  C22 UNL     1       6.342 -13.663  -1.497  1.00  0.00     0.433 C 
HETATM   35  F1  UNL     1       5.553 -14.615  -2.123  1.00  0.00    -0.165 F 
HETATM   36  F2  UNL     1       7.430 -14.230  -0.915  1.00  0.00    -0.165 F 
HETATM   37  F3  UNL     1       5.549 -12.969  -0.618  1.00  0.00    -0.165 F 
ENDBRANCH   6  34
TORSDOF 6
ENDMDL
MODEL 4
REMARK VINA RESULT: -9.416094430      4.685      6.142
REMARK  6 active torsions:
REMARK  status: ('A' for Active; 'I' for Inactive)
REMARK    1  A    between atoms: C2_2  and  C5_5 
REMARK    2  A    between atoms: N1_8  and  C8_9 
REMARK    3  A    between atoms: C9_12  and  N3_13 
REMARK    4  A    between atoms: C13_17  and  C14_18 
REMARK    5  A    between atoms: C17_21  and  O1_22 
REMARK    6  A    between atoms: C21_29  and  C22_30 
ROOT
HETATM    1  C8  UNL     1       5.442 -10.227  -3.452  1.00  0.00     0.686 A 
HETATM    2  N2  UNL     1       6.697 -10.602  -3.673  1.00  0.00    -0.176 N 
ATOM      3  H2  UNL     1       7.393  -9.885  -3.878  1.00  0.00     0.186 HD
HETATM    4  C9  UNL     1       7.084 -11.872  -3.637  1.00  0.00     0.124 A 
HETATM    5  C20 UNL     1       6.104 -12.861  -3.357  1.00  0.00     0.084 A 
HETATM    6  C21 UNL     1       4.799 -12.494  -3.128  1.00  0.00     0.136 A 
HETATM    7  N5  UNL     1       4.499 -11.215  -3.176  1.00  0.00    -0.186 N 
ATOM      8  H5  UNL     1       3.534 -10.934  -3.004  1.00  0.00     0.184 HD
ENDROOT
BRANCH   4   9
HETATM    9  N3  UNL     1       8.375 -12.396  -3.755  1.00  0.00    -0.347 N 
HETATM   10  C10 UNL     1       8.626 -13.749  -3.506  1.00  0.00     0.065 C 
HETATM   11  C11 UNL     1      10.074 -14.117  -3.349  1.00  0.00     0.045 C 
HETATM   12  C12 UNL     1      11.079 -13.340  -4.106  1.00  0.00     0.016 C 
HETATM   13  C13 UNL     1      11.543 -12.059  -3.542  1.00  0.00     0.037 C 
HETATM   14  C18 UNL     1      10.327 -11.338  -2.961  1.00  0.00     0.031 C 
HETATM   15  C19 UNL     1       9.332 -11.328  -4.133  1.00  0.00     0.130 C 
BRANCH  13  16
HETATM   16  C14 UNL     1      12.624 -12.155  -2.532  1.00  0.00     0.015 A 
HETATM   17  C15 UNL     1      13.256 -11.192  -1.815  1.00  0.00     0.029 A 
HETATM   18  C16 UNL     1      14.192 -11.779  -1.018  1.00  0.00     0.058 A 
HETATM   19  C17 UNL     1      14.141 -13.134  -1.244  1.00  0.00     0.140 A 
HETATM   20  N4  UNL     1      13.169 -13.324  -2.178  1.00  0.00    -0.340 N 
ATOM     21  H4  UNL     1      12.895 -14.232  -2.554  1.00  0.00     0.167 HD
BRANCH  19  22
HETATM   22  O1  UNL     1      14.928 -14.106  -0.640  1.00  0.00    -0.346 OA
ATOM     23  H1  UNL     1      15.724 -14.490  -0.990  1.00  0.00     0.219 HD
ENDBRANCH  19  22
ENDBRANCH  13  16
ENDBRANCH   4   9
BRANCH   1  24
HETATM   24  N1  UNL     1       4.900  -8.945  -3.391  1.00  0.00    -0.197 N 
HETATM   25  C7  UNL     1       5.900  -7.833  -3.511  1.00  0.00     0.147 C 
HETATM   26  C6  UNL     1       5.732  -7.199  -2.119  1.00  0.00     0.026 C 
HETATM   27  C5  UNL     1       4.521  -6.309  -2.249  1.00  0.00    -0.001 C 
HETATM   28  C24 UNL     1       3.416  -7.034  -2.989  1.00  0.00     0.050 C 
HETATM   29  C23 UNL     1       3.590  -8.530  -3.158  1.00  0.00     0.082 C 
BRANCH  27  30
HETATM   30  C2  UNL     1       4.045  -5.844  -0.887  1.00  0.00    -0.047 C 
HETATM   31  C1  UNL     1       2.527  -5.700  -0.905  1.00  0.00     0.015 C 
HETATM   32  C3  UNL     1       4.728  -4.713  -0.278  1.00  0.00     0.015 C 
HETATM   33  C4  UNL     1       4.266  -7.073   0.039  1.00  0.00     0.015 C 
ENDBRANCH  27  30
ENDBRANCH   1  24
BRANCH   6  34
HETATM   34  C22 UNL     1       3.734 -13.499  -2.823  1.00  0.00     0.433 C 
HETATM   35  F1  UNL     1       2.771 -13.323  -3.803  1.00  0.00    -0.165 F 
HETATM   36  F2  UNL     1       4.220 -14.767  -2.833  1.00  0.00    -0.165 F 
HETATM   37  F3  UNL     1       3.186 -13.131  -1.620  1.00  0.00    -0.165 F 
ENDBRANCH   6  34
TORSDOF 6
ENDMDL
MODEL 5
REMARK VINA RESULT: -9.300021078      4.951     10.535
REMARK  6 active torsions:
REMARK  status: ('A' for Active; 'I' for Inactive)
REMARK    1  A    between atoms: C2_2  and  C5_5 
REMARK    2  A    between atoms: N1_8  and  C8_9 
REMARK    3  A    between atoms: C9_12  and  N3_13 
REMARK    4  A    between atoms: C13_17  and  C14_18 
REMARK    5  A    between atoms: C17_21  and  O1_22 
REMARK    6  A    between atoms: C21_29  and  C22_30 
ROOT
HETATM    1  C8  UNL     1       4.495  -9.076  -2.817  1.00  0.00     0.686 A 
HETATM    2  N2  UNL     1       5.375  -8.268  -2.234  1.00  0.00    -0.176 N 
ATOM      3  H2  UNL     1       6.282  -8.648  -1.964  1.00  0.00     0.186 HD
HETATM    4  C9  UNL     1       5.122  -6.988  -1.989  1.00  0.00     0.124 A 
HETATM    5  C20 UNL     1       3.852  -6.475  -2.365  1.00  0.00     0.084 A 
HETATM    6  C21 UNL     1       2.927  -7.294  -2.966  1.00  0.00     0.136 A 
HETATM    7  N5  UNL     1       3.258  -8.548  -3.179  1.00  0.00    -0.186 N 
ATOM      8  H5  UNL     1       2.578  -9.162  -3.628  1.00  0.00     0.184 HD
ENDROOT
BRANCH   4   9
HETATM    9  N3  UNL     1       5.980  -6.011  -1.474  1.00  0.00    -0.347 N 
HETATM   10  C10 UNL     1       7.363  -6.215  -1.443  1.00  0.00     0.065 C 
HETATM   11  C11 UNL     1       8.136  -5.254  -0.585  1.00  0.00     0.045 C 
HETATM   12  C12 UNL     1       7.622  -3.875  -0.442  1.00  0.00     0.016 C 
HETATM   13  C13 UNL     1       6.569  -3.621   0.558  1.00  0.00     0.037 C 
HETATM   14  C18 UNL     1       5.578  -4.782   0.498  1.00  0.00     0.031 C 
HETATM   15  C19 UNL     1       5.201  -4.845  -0.991  1.00  0.00     0.130 C 
BRANCH  13  16
HETATM   16  C14 UNL     1       7.040  -3.409   1.947  1.00  0.00     0.015 A 
HETATM   17  C15 UNL     1       8.082  -3.956   2.623  1.00  0.00     0.029 A 
HETATM   18  C16 UNL     1       8.102  -3.449   3.888  1.00  0.00     0.058 A 
HETATM   19  C17 UNL     1       7.053  -2.569   4.000  1.00  0.00     0.140 A 
HETATM   20  N4  UNL     1       6.426  -2.572   2.791  1.00  0.00    -0.340 N 
ATOM     21  H4  UNL     1       5.604  -2.015   2.562  1.00  0.00     0.167 HD
BRANCH  19  22
HETATM   22  O1  UNL     1       6.704  -1.831   5.125  1.00  0.00    -0.346 OA
ATOM     23  H1  UNL     1       6.297  -2.161   5.917  1.00  0.00     0.219 HD
ENDBRANCH  19  22
ENDBRANCH  13  16
ENDBRANCH   4   9
BRANCH   1  24
HETATM   24  N1  UNL     1       4.634 -10.409  -3.196  1.00  0.00    -0.197 N 
HETATM   25  C7  UNL     1       4.052 -10.745  -4.538  1.00  0.00     0.147 C 
HETATM   26  C6  UNL     1       2.956 -11.728  -4.091  1.00  0.00     0.026 C 
HETATM   27  C5  UNL     1       3.671 -13.045  -3.917  1.00  0.00    -0.001 C 
HETATM   28  C24 UNL     1       4.976 -12.838  -3.176  1.00  0.00     0.050 C 
HETATM   29  C23 UNL     1       5.156 -11.496  -2.497  1.00  0.00     0.082 C 
BRANCH  27  30
HETATM   30  C2  UNL     1       2.791 -14.045  -3.195  1.00  0.00    -0.047 C 
HETATM   31  C1  UNL     1       1.599 -14.400  -4.079  1.00  0.00     0.015 C 
HETATM   32  C3  UNL     1       2.427 -13.759  -1.816  1.00  0.00     0.015 C 
HETATM   33  C4  UNL     1       3.624 -15.359  -3.192  1.00  0.00     0.015 C 
ENDBRANCH  27  30
ENDBRANCH   1  24
BRANCH   6  34
HETATM   34  C22 UNL     1       1.580  -6.797  -3.384  1.00  0.00     0.433 C 
HETATM   35  F1  UNL     1       1.637  -6.694  -4.765  1.00  0.00    -0.165 F 
HETATM   36  F2  UNL     1       0.588  -7.640  -2.994  1.00  0.00    -0.165 F 
HETATM   37  F3  UNL     1       1.457  -5.530  -2.870  1.00  0.00    -0.165 F 
ENDBRANCH   6  34
TORSDOF 6
ENDMDL
