MODEL 1
REMARK VINA RESULT: -9.223318660      0.000      0.000
REMARK  10 active torsions:
REMARK  status: ('A' for Active; 'I' for Inactive)
REMARK    1  A    between atoms: C5_6  and  C6_7 
REMARK    2  A    between atoms: C7_17  and  C8_18 
REMARK    3  A    between atoms: C8_18  and  N7_19 
REMARK    4  A    between atoms: N7_19  and  N8_20 
REMARK       I    between atoms: N8_20  and  C9_22 
REMARK       I    between atoms: C9_22  and  N9_24 
REMARK    5  A    between atoms: N9_24  and  N10_26 
REMARK    6  A    between atoms: N10_26  and  C10_28 
REMARK    7  A    between atoms: C10_28  and  C11_29 
REMARK    8  A    between atoms: C11_29  and  C12_30 
REMARK    9  A    between atoms: C12_30  and  O2_33 
REMARK   10  A    between atoms: N11_36  and  O3_37 
ROOT
HETATM    1  C1  UNL     1      50.732  -8.013  40.055  1.00  0.00     0.072 C 
HETATM    2  C2  UNL     1      51.520  -9.138  39.487  1.00  0.00     0.062 A 
HETATM    3  C3  UNL     1      50.880 -10.216  38.890  1.00  0.00     0.101 A 
HETATM    4  C4  UNL     1      49.429 -10.211  38.839  1.00  0.00     0.104 C 
HETATM    5  N1  UNL     1      48.281 -10.180  38.813  1.00  0.00    -0.191 NA
HETATM    6  C5  UNL     1      51.636 -11.233  38.382  1.00  0.00     0.123 A 
HETATM    7  N4  UNL     1      52.961 -11.131  38.490  1.00  0.00    -0.216 N 
HETATM    8  N5  UNL     1      53.901 -11.958  38.088  1.00  0.00    -0.233 N 
ATOM      9  H5  UNL     1      53.730 -12.844  37.612  1.00  0.00     0.209 HD
HETATM   10  N6  UNL     1      55.076 -11.491  38.380  1.00  0.00    -0.280 N 
ATOM     11  H6  UNL     1      55.961 -11.951  38.170  1.00  0.00     0.189 HD
HETATM   12  C7  UNL     1      54.935 -10.256  39.030  1.00  0.00     0.128 A 
HETATM   13  C15 UNL     1      53.593 -10.073  39.075  1.00  0.00     0.186 A 
HETATM   14  N11 UNL     1      52.865  -9.060  39.582  1.00  0.00    -0.207 N 
ENDROOT
BRANCH   6  15
HETATM   15  C6  UNL     1      51.054 -12.375  37.740  1.00  0.00     0.140 C 
HETATM   16  N2  UNL     1      50.205 -12.216  36.764  1.00  0.00    -0.386 N 
ATOM     17  H22 UNL     1      49.994 -11.254  36.498  1.00  0.00     0.157 HD
ATOM     18  H21 UNL     1      49.791 -13.028  36.307  1.00  0.00     0.157 HD
HETATM   19  N3  UNL     1      51.343 -13.693  38.105  1.00  0.00    -0.081 NA
ENDBRANCH   6  15
BRANCH  14  20
HETATM   20  O3  UNL     1      53.447  -7.975  40.181  1.00  0.00    -0.281 OA
ATOM     21  H3  UNL     1      54.035  -8.097  40.917  1.00  0.00     0.245 HD
ENDBRANCH  14  20
BRANCH  12  22
HETATM   22  C8  UNL     1      56.078  -9.492  39.464  1.00  0.00     0.244 C 
BRANCH  22  23
HETATM   23  N7  UNL     1      56.503  -9.069  40.466  1.00  0.00    -0.332 NA
BRANCH  23  24
HETATM   24  N8  UNL     1      56.972  -8.589  41.589  1.00  0.00    -0.184 N 
HETATM   25  C9  UNL     1      58.314  -8.184  41.748  1.00  0.00     0.363 C 
HETATM   26  O1  UNL     1      59.100  -8.282  40.781  1.00  0.00    -0.243 OA
HETATM   27  N9  UNL     1      58.767  -7.676  42.976  1.00  0.00    -0.254 N 
ATOM     28  H9  UNL     1      58.097  -7.609  43.742  1.00  0.00     0.191 HD
ATOM     29  H8  UNL     1      56.339  -8.503  42.385  1.00  0.00     0.207 HD
BRANCH  27  30
HETATM   30  N10 UNL     1      60.073  -7.258  43.214  1.00  0.00    -0.332 N 
ATOM     31  H10 UNL     1      60.397  -6.316  42.993  1.00  0.00     0.180 HD
BRANCH  30  32
HETATM   32  C10 UNL     1      60.928  -8.251  43.791  1.00  0.00     0.142 C 
BRANCH  32  33
HETATM   33  C11 UNL     1      61.978  -8.591  42.745  1.00  0.00     0.058 C 
BRANCH  33  34
HETATM   34  C12 UNL     1      62.069 -10.081  42.512  1.00  0.00     0.052 C 
HETATM   35  C13 UNL     1      61.794 -10.343  41.051  1.00  0.00     0.045 C 
HETATM   36  C14 UNL     1      60.949 -10.704  43.364  1.00  0.00     0.045 C 
BRANCH  34  37
HETATM   37  O2  UNL     1      63.252 -10.646  42.935  1.00  0.00    -0.391 OA
ATOM     38  H2  UNL     1      63.143 -11.350  43.563  1.00  0.00     0.210 HD
ENDBRANCH  34  37
ENDBRANCH  33  34
ENDBRANCH  32  33
ENDBRANCH  30  32
ENDBRANCH  27  30
ENDBRANCH  23  24
ENDBRANCH  22  23
ENDBRANCH  12  22
TORSDOF 10
ENDMDL
MODEL 2
REMARK VINA RESULT: -9.159287110      6.067     10.731
REMARK  10 active torsions:
REMARK  status: ('A' for Active; 'I' for Inactive)
REMARK    1  A    between atoms: C5_6  and  C6_7 
REMARK    2  A    between atoms: C7_17  and  C8_18 
REMARK    3  A    between atoms: C8_18  and  N7_19 
REMARK    4  A    between atoms: N7_19  and  N8_20 
REMARK       I    between atoms: N8_20  and  C9_22 
REMARK       I    between atoms: C9_22  and  N9_24 
REMARK    5  A    between atoms: N9_24  and  N10_26 
REMARK    6  A    between atoms: N10_26  and  C10_28 
REMARK    7  A    between atoms: C10_28  and  C11_29 
REMARK    8  A    between atoms: C11_29  and  C12_30 
REMARK    9  A    between atoms: C12_30  and  O2_33 
REMARK   10  A    between atoms: N11_36  and  O3_37 
ROOT
HETATM    1  C1  UNL     1      56.438  -9.197  43.467  1.00  0.00     0.072 C 
HETATM    2  C2  UNL     1      57.576  -9.660  44.305  1.00  0.00     0.062 A 
HETATM    3  C3  UNL     1      58.793  -8.992  44.271  1.00  0.00     0.101 A 
HETATM    4  C4  UNL     1      58.920  -7.839  43.398  1.00  0.00     0.104 C 
HETATM    5  N1  UNL     1      58.992  -6.931  42.698  1.00  0.00    -0.191 NA
HETATM    6  C5  UNL     1      59.816  -9.447  45.051  1.00  0.00     0.123 A 
HETATM    7  N4  UNL     1      59.585 -10.519  45.811  1.00  0.00    -0.216 N 
HETATM    8  N5  UNL     1      60.387 -11.147  46.642  1.00  0.00    -0.233 N 
ATOM      9  H5  UNL     1      61.355 -10.882  46.826  1.00  0.00     0.209 HD
HETATM   10  N6  UNL     1      59.778 -12.150  47.195  1.00  0.00    -0.280 N 
ATOM     11  H6  UNL     1      60.190 -12.788  47.875  1.00  0.00     0.189 HD
HETATM   12  C7  UNL     1      58.463 -12.218  46.711  1.00  0.00     0.128 A 
HETATM   13  C15 UNL     1      58.389 -11.176  45.847  1.00  0.00     0.186 A 
HETATM   14  N11 UNL     1      57.367 -10.743  45.084  1.00  0.00    -0.207 N 
ENDROOT
BRANCH   6  15
HETATM   15  C6  UNL     1      61.099  -8.809  45.084  1.00  0.00     0.140 C 
HETATM   16  N2  UNL     1      62.030  -9.166  44.244  1.00  0.00    -0.386 N 
ATOM     17  H22 UNL     1      61.786  -9.904  43.583  1.00  0.00     0.157 HD
ATOM     18  H21 UNL     1      62.943  -8.712  44.267  1.00  0.00     0.157 HD
HETATM   19  N3  UNL     1      61.433  -7.799  45.990  1.00  0.00    -0.081 NA
ENDBRANCH   6  15
BRANCH  14  20
HETATM   20  O3  UNL     1      56.148 -11.366  45.080  1.00  0.00    -0.281 OA
ATOM     21  H3  UNL     1      55.363 -10.874  45.290  1.00  0.00     0.245 HD
ENDBRANCH  14  20
BRANCH  12  22
HETATM   22  C8  UNL     1      57.540 -13.230  47.159  1.00  0.00     0.244 C 
BRANCH  22  23
HETATM   23  N7  UNL     1      56.450 -13.574  46.916  1.00  0.00    -0.332 NA
BRANCH  23  24
HETATM   24  N8  UNL     1      55.233 -13.965  46.640  1.00  0.00    -0.184 N 
HETATM   25  C9  UNL     1      54.086 -13.334  47.167  1.00  0.00     0.363 C 
HETATM   26  O1  UNL     1      54.226 -12.355  47.932  1.00  0.00    -0.243 OA
HETATM   27  N9  UNL     1      52.802 -13.795  46.839  1.00  0.00    -0.254 N 
ATOM     28  H9  UNL     1      52.727 -14.594  46.210  1.00  0.00     0.191 HD
ATOM     29  H8  UNL     1      55.107 -14.762  46.015  1.00  0.00     0.207 HD
BRANCH  27  30
HETATM   30  N10 UNL     1      51.624 -13.229  47.317  1.00  0.00    -0.332 N 
ATOM     31  H10 UNL     1      51.560 -12.251  47.600  1.00  0.00     0.180 HD
BRANCH  30  32
HETATM   32  C10 UNL     1      50.508 -14.125  47.383  1.00  0.00     0.142 C 
BRANCH  32  33
HETATM   33  C11 UNL     1      49.285 -13.338  46.940  1.00  0.00     0.058 C 
BRANCH  33  34
HETATM   34  C12 UNL     1      49.311 -13.060  45.454  1.00  0.00     0.052 C 
HETATM   35  C13 UNL     1      49.251 -11.564  45.259  1.00  0.00     0.045 C 
HETATM   36  C14 UNL     1      48.031 -13.702  44.890  1.00  0.00     0.045 C 
BRANCH  34  37
HETATM   37  O2  UNL     1      50.372 -13.637  44.792  1.00  0.00    -0.391 OA
ATOM     38  H2  UNL     1      50.808 -13.056  44.179  1.00  0.00     0.210 HD
ENDBRANCH  34  37
ENDBRANCH  33  34
ENDBRANCH  32  33
ENDBRANCH  30  32
ENDBRANCH  27  30
ENDBRANCH  23  24
ENDBRANCH  22  23
ENDBRANCH  12  22
TORSDOF 10
ENDMDL
MODEL 3
REMARK VINA RESULT: -8.999081950      1.006      1.417
REMARK  10 active torsions:
REMARK  status: ('A' for Active; 'I' for Inactive)
REMARK    1  A    between atoms: C5_6  and  C6_7 
REMARK    2  A    between atoms: C7_17  and  C8_18 
REMARK    3  A    between atoms: C8_18  and  N7_19 
REMARK    4  A    between atoms: N7_19  and  N8_20 
REMARK       I    between atoms: N8_20  and  C9_22 
REMARK       I    between atoms: C9_22  and  N9_24 
REMARK    5  A    between atoms: N9_24  and  N10_26 
REMARK    6  A    between atoms: N10_26  and  C10_28 
REMARK    7  A    between atoms: C10_28  and  C11_29 
REMARK    8  A    between atoms: C11_29  and  C12_30 
REMARK    9  A    between atoms: C12_30  and  O2_33 
REMARK   10  A    between atoms: N11_36  and  O3_37 
ROOT
HETATM    1  C1  UNL     1      50.669  -8.043  40.047  1.00  0.00     0.072 C 
HETATM    2  C2  UNL     1      51.488  -9.153  39.492  1.00  0.00     0.062 A 
HETATM    3  C3  UNL     1      50.879 -10.241  38.881  1.00  0.00     0.101 A 
HETATM    4  C4  UNL     1      49.430 -10.262  38.803  1.00  0.00     0.104 C 
HETATM    5  N1  UNL     1      48.282 -10.253  38.756  1.00  0.00    -0.191 NA
HETATM    6  C5  UNL     1      51.663 -11.242  38.385  1.00  0.00     0.123 A 
HETATM    7  N4  UNL     1      52.984 -11.116  38.518  1.00  0.00    -0.216 N 
HETATM    8  N5  UNL     1      53.947 -11.924  38.132  1.00  0.00    -0.233 N 
ATOM      9  H5  UNL     1      53.801 -12.812  37.651  1.00  0.00     0.209 HD
HETATM   10  N6  UNL     1      55.107 -11.436  38.447  1.00  0.00    -0.280 N 
ATOM     11  H6  UNL     1      56.005 -11.878  38.253  1.00  0.00     0.189 HD
HETATM   12  C7  UNL     1      54.931 -10.205  39.096  1.00  0.00     0.128 A 
HETATM   13  C15 UNL     1      53.586 -10.047  39.117  1.00  0.00     0.186 A 
HETATM   14  N11 UNL     1      52.830  -9.049  39.613  1.00  0.00    -0.207 N 
ENDROOT
BRANCH   6  15
HETATM   15  C6  UNL     1      51.115 -12.393  37.730  1.00  0.00     0.140 C 
HETATM   16  N2  UNL     1      50.269 -12.248  36.750  1.00  0.00    -0.386 N 
ATOM     17  H22 UNL     1      50.035 -11.289  36.490  1.00  0.00     0.157 HD
ATOM     18  H21 UNL     1      49.879 -13.067  36.283  1.00  0.00     0.157 HD
HETATM   19  N3  UNL     1      51.435 -13.706  38.086  1.00  0.00    -0.081 NA
ENDBRANCH   6  15
BRANCH  14  20
HETATM   20  O3  UNL     1      53.380  -7.955  40.225  1.00  0.00    -0.281 OA
ATOM     21  H3  UNL     1      54.246  -7.657  39.975  1.00  0.00     0.245 HD
ENDBRANCH  14  20
BRANCH  12  22
HETATM   22  C8  UNL     1      56.051  -9.421  39.553  1.00  0.00     0.244 C 
BRANCH  22  23
HETATM   23  N7  UNL     1      56.496  -9.063  40.573  1.00  0.00    -0.332 NA
BRANCH  23  24
HETATM   24  N8  UNL     1      57.001  -8.661  41.710  1.00  0.00    -0.184 N 
HETATM   25  C9  UNL     1      58.344  -8.249  41.849  1.00  0.00     0.363 C 
HETATM   26  O1  UNL     1      59.094  -8.265  40.849  1.00  0.00    -0.243 OA
HETATM   27  N9  UNL     1      58.837  -7.827  43.094  1.00  0.00    -0.254 N 
ATOM     28  H9  UNL     1      58.196  -7.826  43.887  1.00  0.00     0.191 HD
ATOM     29  H8  UNL     1      56.398  -8.643  42.533  1.00  0.00     0.207 HD
BRANCH  27  30
HETATM   30  N10 UNL     1      60.146  -7.410  43.313  1.00  0.00    -0.332 N 
ATOM     31  H10 UNL     1      60.427  -6.431  43.255  1.00  0.00     0.180 HD
BRANCH  30  32
HETATM   32  C10 UNL     1      61.069  -8.459  43.628  1.00  0.00     0.142 C 
BRANCH  32  33
HETATM   33  C11 UNL     1      60.482  -9.224  44.804  1.00  0.00     0.058 C 
BRANCH  33  34
HETATM   34  C12 UNL     1      60.276 -10.683  44.471  1.00  0.00     0.052 C 
HETATM   35  C13 UNL     1      60.526 -11.487  45.724  1.00  0.00     0.045 C 
HETATM   36  C14 UNL     1      61.349 -11.025  43.421  1.00  0.00     0.045 C 
BRANCH  34  37
HETATM   37  O2  UNL     1      59.055 -10.964  43.899  1.00  0.00    -0.391 OA
ATOM     38  H2  UNL     1      58.971 -11.855  43.580  1.00  0.00     0.210 HD
ENDBRANCH  34  37
ENDBRANCH  33  34
ENDBRANCH  32  33
ENDBRANCH  30  32
ENDBRANCH  27  30
ENDBRANCH  23  24
ENDBRANCH  22  23
ENDBRANCH  12  22
TORSDOF 10
ENDMDL
MODEL 4
REMARK VINA RESULT: -8.946276639      6.112     10.130
REMARK  10 active torsions:
REMARK  status: ('A' for Active; 'I' for Inactive)
REMARK    1  A    between atoms: C5_6  and  C6_7 
REMARK    2  A    between atoms: C7_17  and  C8_18 
REMARK    3  A    between atoms: C8_18  and  N7_19 
REMARK    4  A    between atoms: N7_19  and  N8_20 
REMARK       I    between atoms: N8_20  and  C9_22 
REMARK       I    between atoms: C9_22  and  N9_24 
REMARK    5  A    between atoms: N9_24  and  N10_26 
REMARK    6  A    between atoms: N10_26  and  C10_28 
REMARK    7  A    between atoms: C10_28  and  C11_29 
REMARK    8  A    between atoms: C11_29  and  C12_30 
REMARK    9  A    between atoms: C12_30  and  O2_33 
REMARK   10  A    between atoms: N11_36  and  O3_37 
ROOT
HETATM    1  C1  UNL     1      56.262  -9.124  43.427  1.00  0.00     0.072 C 
HETATM    2  C2  UNL     1      57.681  -9.330  43.822  1.00  0.00     0.062 A 
HETATM    3  C3  UNL     1      58.704  -8.693  43.132  1.00  0.00     0.101 A 
HETATM    4  C4  UNL     1      58.349  -7.827  42.022  1.00  0.00     0.104 C 
HETATM    5  N1  UNL     1      58.039  -7.148  41.148  1.00  0.00    -0.191 NA
HETATM    6  C5  UNL     1      59.994  -8.908  43.521  1.00  0.00     0.123 A 
HETATM    7  N4  UNL     1      60.200  -9.728  44.552  1.00  0.00    -0.216 N 
HETATM    8  N5  UNL     1      61.328 -10.097  45.118  1.00  0.00    -0.233 N 
ATOM      9  H5  UNL     1      62.254  -9.788  44.822  1.00  0.00     0.209 HD
HETATM   10  N6  UNL     1      61.101 -10.909  46.104  1.00  0.00    -0.280 N 
ATOM     11  H6  UNL     1      61.815 -11.332  46.696  1.00  0.00     0.189 HD
HETATM   12  C7  UNL     1      59.718 -11.115  46.225  1.00  0.00     0.128 A 
HETATM   13  C15 UNL     1      59.196 -10.355  45.232  1.00  0.00     0.186 A 
HETATM   14  N11 UNL     1      57.917 -10.155  44.864  1.00  0.00    -0.207 N 
ENDROOT
BRANCH   6  15
HETATM   15  C6  UNL     1      61.107  -8.281  42.871  1.00  0.00     0.140 C 
HETATM   16  N2  UNL     1      61.551  -8.746  41.737  1.00  0.00    -0.386 N 
ATOM     17  H22 UNL     1      61.064  -9.558  41.358  1.00  0.00     0.157 HD
ATOM     18  H21 UNL     1      62.342  -8.299  41.274  1.00  0.00     0.157 HD
HETATM   19  N3  UNL     1      61.774  -7.168  43.391  1.00  0.00    -0.081 NA
ENDBRANCH   6  15
BRANCH  14  20
HETATM   20  O3  UNL     1      56.872 -10.760  45.510  1.00  0.00    -0.281 OA
ATOM     21  H3  UNL     1      56.792 -10.690  46.453  1.00  0.00     0.245 HD
ENDBRANCH  14  20
BRANCH  12  22
HETATM   22  C8  UNL     1      59.165 -11.967  47.248  1.00  0.00     0.244 C 
BRANCH  22  23
HETATM   23  N7  UNL     1      58.451 -12.890  47.309  1.00  0.00    -0.332 NA
BRANCH  23  24
HETATM   24  N8  UNL     1      57.657 -13.927  47.385  1.00  0.00    -0.184 N 
HETATM   25  C9  UNL     1      56.259 -13.836  47.219  1.00  0.00     0.363 C 
HETATM   26  O1  UNL     1      55.744 -12.720  46.987  1.00  0.00    -0.243 OA
HETATM   27  N9  UNL     1      55.451 -14.980  47.311  1.00  0.00    -0.254 N 
ATOM     28  H9  UNL     1      55.907 -15.873  47.498  1.00  0.00     0.191 HD
ATOM     29  H8  UNL     1      58.067 -14.842  47.572  1.00  0.00     0.207 HD
BRANCH  27  30
HETATM   30  N10 UNL     1      54.068 -14.973  47.162  1.00  0.00    -0.332 N 
ATOM     31  H10 UNL     1      53.607 -15.281  46.306  1.00  0.00     0.180 HD
BRANCH  30  32
HETATM   32  C10 UNL     1      53.341 -14.499  48.301  1.00  0.00     0.142 C 
BRANCH  32  33
HETATM   33  C11 UNL     1      52.354 -13.460  47.793  1.00  0.00     0.058 C 
BRANCH  33  34
HETATM   34  C12 UNL     1      51.068 -14.098  47.321  1.00  0.00     0.052 C 
HETATM   35  C13 UNL     1      50.412 -13.157  46.340  1.00  0.00     0.045 C 
HETATM   36  C14 UNL     1      50.184 -14.228  48.575  1.00  0.00     0.045 C 
BRANCH  34  37
HETATM   37  O2  UNL     1      51.223 -15.368  46.810  1.00  0.00    -0.391 OA
ATOM     38  H2  UNL     1      50.722 -16.034  47.266  1.00  0.00     0.210 HD
ENDBRANCH  34  37
ENDBRANCH  33  34
ENDBRANCH  32  33
ENDBRANCH  30  32
ENDBRANCH  27  30
ENDBRANCH  23  24
ENDBRANCH  22  23
ENDBRANCH  12  22
TORSDOF 10
ENDMDL
MODEL 5
REMARK VINA RESULT: -8.863949677      6.873     11.156
REMARK  10 active torsions:
REMARK  status: ('A' for Active; 'I' for Inactive)
REMARK    1  A    between atoms: C5_6  and  C6_7 
REMARK    2  A    between atoms: C7_17  and  C8_18 
REMARK    3  A    between atoms: C8_18  and  N7_19 
REMARK    4  A    between atoms: N7_19  and  N8_20 
REMARK       I    between atoms: N8_20  and  C9_22 
REMARK       I    between atoms: C9_22  and  N9_24 
REMARK    5  A    between atoms: N9_24  and  N10_26 
REMARK    6  A    between atoms: N10_26  and  C10_28 
REMARK    7  A    between atoms: C10_28  and  C11_29 
REMARK    8  A    between atoms: C11_29  and  C12_30 
REMARK    9  A    between atoms: C12_30  and  O2_33 
REMARK   10  A    between atoms: N11_36  and  O3_37 
ROOT
HETATM    1  C1  UNL     1      56.404  -9.406  43.629  1.00  0.00     0.072 C 
HETATM    2  C2  UNL     1      57.581  -9.800  44.447  1.00  0.00     0.062 A 
HETATM    3  C3  UNL     1      58.780  -9.108  44.338  1.00  0.00     0.101 A 
HETATM    4  C4  UNL     1      58.848  -7.997  43.405  1.00  0.00     0.104 C 
HETATM    5  N1  UNL     1      58.874  -7.123  42.660  1.00  0.00    -0.191 NA
HETATM    6  C5  UNL     1      59.839  -9.500  45.103  1.00  0.00     0.123 A 
HETATM    7  N4  UNL     1      59.661 -10.538  45.921  1.00  0.00    -0.216 N 
HETATM    8  N5  UNL     1      60.507 -11.105  46.753  1.00  0.00    -0.233 N 
ATOM      9  H5  UNL     1      61.473 -10.810  46.889  1.00  0.00     0.209 HD
HETATM   10  N6  UNL     1      59.941 -12.093  47.376  1.00  0.00    -0.280 N 
ATOM     11  H6  UNL     1      60.392 -12.687  48.071  1.00  0.00     0.189 HD
HETATM   12  C7  UNL     1      58.612 -12.215  46.942  1.00  0.00     0.128 A 
HETATM   13  C15 UNL     1      58.484 -11.220  46.032  1.00  0.00     0.186 A 
HETATM   14  N11 UNL     1      57.426 -10.848  45.285  1.00  0.00    -0.207 N 
ENDROOT
BRANCH   6  15
HETATM   15  C6  UNL     1      61.107  -8.832  45.059  1.00  0.00     0.140 C 
HETATM   16  N2  UNL     1      61.980  -9.142  44.141  1.00  0.00    -0.386 N 
ATOM     17  H22 UNL     1      61.703  -9.867  43.478  1.00  0.00     0.157 HD
ATOM     18  H21 UNL     1      62.881  -8.667  44.109  1.00  0.00     0.157 HD
HETATM   19  N3  UNL     1      61.486  -7.840  45.967  1.00  0.00    -0.081 NA
ENDBRANCH   6  15
BRANCH  14  20
HETATM   20  O3  UNL     1      56.223 -11.498  45.355  1.00  0.00    -0.281 OA
ATOM     21  H3  UNL     1      55.615 -11.298  46.056  1.00  0.00     0.245 HD
ENDBRANCH  14  20
BRANCH  12  22
HETATM   22  C8  UNL     1      57.731 -13.225  47.472  1.00  0.00     0.244 C 
BRANCH  22  23
HETATM   23  N7  UNL     1      56.654 -13.627  47.263  1.00  0.00    -0.332 NA
BRANCH  23  24
HETATM   24  N8  UNL     1      55.452 -14.084  47.023  1.00  0.00    -0.184 N 
HETATM   25  C9  UNL     1      54.281 -13.362  47.337  1.00  0.00     0.363 C 
HETATM   26  O1  UNL     1      54.383 -12.234  47.867  1.00  0.00    -0.243 OA
HETATM   27  N9  UNL     1      53.014 -13.899  47.059  1.00  0.00    -0.254 N 
ATOM     28  H9  UNL     1      52.970 -14.820  46.625  1.00  0.00     0.191 HD
ATOM     29  H8  UNL     1      55.357 -15.002  46.589  1.00  0.00     0.207 HD
BRANCH  27  30
HETATM   30  N10 UNL     1      51.814 -13.253  47.340  1.00  0.00    -0.332 N 
ATOM     31  H10 UNL     1      51.566 -12.352  46.928  1.00  0.00     0.180 HD
BRANCH  30  32
HETATM   32  C10 UNL     1      50.954 -13.947  48.250  1.00  0.00     0.142 C 
BRANCH  32  33
HETATM   33  C11 UNL     1      49.606 -14.088  47.561  1.00  0.00     0.058 C 
BRANCH  33  34
HETATM   34  C12 UNL     1      48.904 -15.363  47.967  1.00  0.00     0.052 C 
HETATM   35  C13 UNL     1      47.448 -15.234  47.591  1.00  0.00     0.045 C 
HETATM   36  C14 UNL     1      49.032 -15.439  49.499  1.00  0.00     0.045 C 
BRANCH  34  37
HETATM   37  O2  UNL     1      49.480 -16.508  47.461  1.00  0.00    -0.391 OA
ATOM     38  H2  UNL     1      50.177 -16.862  48.001  1.00  0.00     0.210 HD
ENDBRANCH  34  37
ENDBRANCH  33  34
ENDBRANCH  32  33
ENDBRANCH  30  32
ENDBRANCH  27  30
ENDBRANCH  23  24
ENDBRANCH  22  23
ENDBRANCH  12  22
TORSDOF 10
ENDMDL
