MODEL 1
REMARK VINA RESULT: -10.072209199      0.000      0.000
REMARK  9 active torsions:
REMARK  status: ('A' for Active; 'I' for Inactive)
REMARK    1  A    between atoms: N1_1  and  C1_4 
REMARK    2  A    between atoms: C2_7  and  C3_8 
REMARK    3  A    between atoms: C3_8  and  C4_9 
REMARK    4  A    between atoms: C4_9  and  C5_10 
REMARK    5  A    between atoms: C5_10  and  S1_11 
REMARK    6  A    between atoms: C6_17  and  N4_18 
REMARK    7  A    between atoms: N4_18  and  N5_20 
REMARK    8  A    between atoms: N5_20  and  C7_22 
REMARK    9  A    between atoms: N7_26  and  C9_27 
ROOT
HETATM    1  C1  UNL     1      58.492 -15.353  47.319  1.00  0.00     0.691 A 
HETATM    2  N2  UNL     1      57.271 -15.090  46.814  1.00  0.00    -0.180 N 
ATOM      3  H2  UNL     1      56.646 -15.866  46.594  1.00  0.00     0.185 HD
HETATM    4  C2  UNL     1      56.854 -13.832  46.592  1.00  0.00     0.113 A 
HETATM    5  N3  UNL     1      57.685 -12.816  46.887  1.00  0.00    -0.178 N 
ATOM      6  H3  UNL     1      57.397 -11.849  46.731  1.00  0.00     0.185 HD
HETATM    7  C6  UNL     1      58.908 -13.095  47.392  1.00  0.00     0.712 A 
HETATM    8  N10 UNL     1      59.327 -14.353  47.614  1.00  0.00    -0.021 N 
ATOM      9  H10 UNL     1      60.254 -14.538  47.996  1.00  0.00     0.203 HD
ENDROOT
BRANCH   7  10
HETATM   10  N4  UNL     1      59.680 -12.126  47.664  1.00  0.00    -0.130 N 
ATOM     11  H4  UNL     1      59.588 -11.649  48.562  1.00  0.00     0.205 HD
BRANCH  10  12
HETATM   12  N5  UNL     1      60.649 -11.702  46.762  1.00  0.00    -0.274 N 
ATOM     13  H5  UNL     1      61.581 -12.112  46.824  1.00  0.00     0.189 HD
BRANCH  12  14
HETATM   14  C7  UNL     1      60.406 -10.720  45.753  1.00  0.00     0.111 C 
HETATM   15  N6  UNL     1      60.417 -11.163  44.558  1.00  0.00    -0.361 N 
HETATM   16  C8  UNL     1      60.216 -10.497  43.275  1.00  0.00     0.250 C 
ATOM     17  H6  UNL     1      60.598 -12.164  44.485  1.00  0.00     0.162 HD
HETATM   18  N7  UNL     1      61.152  -9.349  43.293  1.00  0.00    -0.335 N 
HETATM   19  C12 UNL     1      61.089  -8.288  44.209  1.00  0.00     0.188 C 
HETATM   20  N8  UNL     1      61.526  -7.039  43.705  1.00  0.00    -0.064 NA
HETATM   21  N9  UNL     1      60.683  -8.301  45.432  1.00  0.00    -0.357 N 
HETATM   22  C13 UNL     1      60.176  -9.355  46.244  1.00  0.00     0.199 C 
ATOM     23  H9  UNL     1      60.734  -7.397  45.901  1.00  0.00     0.162 HD
BRANCH  18  24
HETATM   24  C9  UNL     1      62.159  -9.405  42.305  1.00  0.00     0.088 A 
HETATM   25  C10 UNL     1      62.105  -9.179  40.876  1.00  0.00     0.027 A 
HETATM   26  C11 UNL     1      62.389 -10.607  41.441  1.00  0.00     0.027 A 
ENDBRANCH  18  24
ENDBRANCH  12  14
ENDBRANCH  10  12
ENDBRANCH   7  10
BRANCH   4  27
HETATM   27  C3  UNL     1      55.479 -13.592  46.025  1.00  0.00     0.079 C 
BRANCH  27  28
HETATM   28  C4  UNL     1      54.691 -14.838  46.328  1.00  0.00     0.025 C 
BRANCH  28  29
HETATM   29  C5  UNL     1      53.321 -14.588  46.856  1.00  0.00     0.165 C 
BRANCH  29  30
HETATM   30  S1  UNL     1      53.250 -13.973  48.495  1.00  0.00     0.101 S 
HETATM   31  O1  UNL     1      54.383 -14.434  49.344  1.00  0.00    -0.595 OA
HETATM   32  O2  UNL     1      51.907 -14.251  49.147  1.00  0.00    -0.595 OA
HETATM   33  O3  UNL     1      53.351 -12.277  48.405  1.00  0.00    -0.595 OA
ENDBRANCH  29  30
ENDBRANCH  28  29
ENDBRANCH  27  28
ENDBRANCH   4  27
BRANCH   1  34
HETATM   34  N1  UNL     1      58.889 -16.570  47.530  1.00  0.00    -0.234 N 
ATOM     35  H12 UNL     1      59.402 -17.048  46.789  1.00  0.00     0.174 HD
ATOM     36  H11 UNL     1      58.698 -17.046  48.412  1.00  0.00     0.174 HD
ENDBRANCH   1  34
TORSDOF 9
ENDMDL
MODEL 2
REMARK VINA RESULT: -9.375978860      3.263      7.692
REMARK  9 active torsions:
REMARK  status: ('A' for Active; 'I' for Inactive)
REMARK    1  A    between atoms: N1_1  and  C1_4 
REMARK    2  A    between atoms: C2_7  and  C3_8 
REMARK    3  A    between atoms: C3_8  and  C4_9 
REMARK    4  A    between atoms: C4_9  and  C5_10 
REMARK    5  A    between atoms: C5_10  and  S1_11 
REMARK    6  A    between atoms: C6_17  and  N4_18 
REMARK    7  A    between atoms: N4_18  and  N5_20 
REMARK    8  A    between atoms: N5_20  and  C7_22 
REMARK    9  A    between atoms: N7_26  and  C9_27 
ROOT
HETATM    1  C1  UNL     1      61.165  -8.719  45.176  1.00  0.00     0.691 A 
HETATM    2  N2  UNL     1      60.847  -8.296  43.936  1.00  0.00    -0.180 N 
ATOM      3  H2  UNL     1      61.112  -7.353  43.650  1.00  0.00     0.185 HD
HETATM    4  C2  UNL     1      60.192  -9.083  43.067  1.00  0.00     0.113 A 
HETATM    5  N3  UNL     1      59.849 -10.325  43.454  1.00  0.00    -0.178 N 
ATOM      6  H3  UNL     1      59.352 -10.948  42.816  1.00  0.00     0.185 HD
HETATM    7  C6  UNL     1      60.173 -10.736  44.701  1.00  0.00     0.712 A 
HETATM    8  N10 UNL     1      60.829  -9.950  45.572  1.00  0.00    -0.021 N 
ATOM      9  H10 UNL     1      61.062 -10.283  46.507  1.00  0.00     0.203 HD
ENDROOT
BRANCH   7  10
HETATM   10  N4  UNL     1      59.842 -11.910  45.051  1.00  0.00    -0.130 N 
ATOM     11  H4  UNL     1      60.569 -12.590  45.273  1.00  0.00     0.205 HD
BRANCH  10  12
HETATM   12  N5  UNL     1      58.507 -12.285  45.138  1.00  0.00    -0.274 N 
ATOM     13  H5  UNL     1      57.819 -11.760  44.598  1.00  0.00     0.189 HD
BRANCH  12  14
HETATM   14  C7  UNL     1      58.048 -13.370  45.948  1.00  0.00     0.111 C 
HETATM   15  N6  UNL     1      56.990 -13.944  45.529  1.00  0.00    -0.361 N 
HETATM   16  C8  UNL     1      56.220 -15.066  46.059  1.00  0.00     0.250 C 
ATOM     17  H6  UNL     1      56.613 -13.549  44.668  1.00  0.00     0.162 HD
HETATM   18  N7  UNL     1      55.959 -14.711  47.473  1.00  0.00    -0.335 N 
HETATM   19  C12 UNL     1      56.958 -14.531  48.443  1.00  0.00     0.188 C 
HETATM   20  N8  UNL     1      56.580 -14.891  49.760  1.00  0.00    -0.064 NA
HETATM   21  N9  UNL     1      58.160 -14.094  48.292  1.00  0.00    -0.357 N 
HETATM   22  C13 UNL     1      58.865 -13.661  47.134  1.00  0.00     0.199 C 
ATOM     23  H9  UNL     1      58.702 -14.050  49.155  1.00  0.00     0.162 HD
BRANCH  18  24
HETATM   24  C9  UNL     1      54.593 -14.542  47.787  1.00  0.00     0.088 A 
HETATM   25  C10 UNL     1      53.416 -14.536  46.945  1.00  0.00     0.027 A 
HETATM   26  C11 UNL     1      53.884 -13.229  47.660  1.00  0.00     0.027 A 
ENDBRANCH  18  24
ENDBRANCH  12  14
ENDBRANCH  10  12
ENDBRANCH   7  10
BRANCH   4  27
HETATM   27  C3  UNL     1      59.860  -8.561  41.693  1.00  0.00     0.079 C 
BRANCH  27  28
HETATM   28  C4  UNL     1      58.631  -7.711  41.867  1.00  0.00     0.025 C 
BRANCH  28  29
HETATM   29  C5  UNL     1      57.357  -8.478  41.956  1.00  0.00     0.165 C 
BRANCH  29  30
HETATM   30  S1  UNL     1      56.725  -8.692  43.576  1.00  0.00     0.101 S 
HETATM   31  O1  UNL     1      56.695 -10.116  44.011  1.00  0.00    -0.595 OA
HETATM   32  O2  UNL     1      55.374  -8.020  43.750  1.00  0.00    -0.595 OA
HETATM   33  O3  UNL     1      57.765  -7.866  44.639  1.00  0.00    -0.595 OA
ENDBRANCH  29  30
ENDBRANCH  28  29
ENDBRANCH  27  28
ENDBRANCH   4  27
BRANCH   1  34
HETATM   34  N1  UNL     1      61.798  -7.954  46.011  1.00  0.00    -0.234 N 
ATOM     35  H12 UNL     1      61.357  -7.745  46.906  1.00  0.00     0.174 HD
ATOM     36  H11 UNL     1      62.713  -7.566  45.786  1.00  0.00     0.174 HD
ENDBRANCH   1  34
TORSDOF 9
ENDMDL
MODEL 3
REMARK VINA RESULT: -9.308271014      1.425      1.910
REMARK  9 active torsions:
REMARK  status: ('A' for Active; 'I' for Inactive)
REMARK    1  A    between atoms: N1_1  and  C1_4 
REMARK    2  A    between atoms: C2_7  and  C3_8 
REMARK    3  A    between atoms: C3_8  and  C4_9 
REMARK    4  A    between atoms: C4_9  and  C5_10 
REMARK    5  A    between atoms: C5_10  and  S1_11 
REMARK    6  A    between atoms: C6_17  and  N4_18 
REMARK    7  A    between atoms: N4_18  and  N5_20 
REMARK    8  A    between atoms: N5_20  and  C7_22 
REMARK    9  A    between atoms: N7_26  and  C9_27 
ROOT
HETATM    1  C1  UNL     1      58.226 -15.586  47.442  1.00  0.00     0.691 A 
HETATM    2  N2  UNL     1      56.985 -15.240  47.046  1.00  0.00    -0.180 N 
ATOM      3  H2  UNL     1      56.214 -15.888  47.208  1.00  0.00     0.185 HD
HETATM    4  C2  UNL     1      56.738 -14.064  46.444  1.00  0.00     0.113 A 
HETATM    5  N3  UNL     1      57.762 -13.217  46.237  1.00  0.00    -0.178 N 
ATOM      6  H3  UNL     1      57.605 -12.316  45.785  1.00  0.00     0.185 HD
HETATM    7  C6  UNL     1      59.002 -13.578  46.639  1.00  0.00     0.712 A 
HETATM    8  N10 UNL     1      59.252 -14.754  47.241  1.00  0.00    -0.021 N 
ATOM      9  H10 UNL     1      60.196 -15.003  47.534  1.00  0.00     0.203 HD
ENDROOT
BRANCH   7  10
HETATM   10  N4  UNL     1      59.957 -12.769  46.436  1.00  0.00    -0.130 N 
ATOM     11  H4  UNL     1      60.665 -12.638  47.160  1.00  0.00     0.205 HD
BRANCH  10  12
HETATM   12  N5  UNL     1      60.058 -12.057  45.247  1.00  0.00    -0.274 N 
ATOM     13  H5  UNL     1      60.166 -12.579  44.377  1.00  0.00     0.189 HD
BRANCH  12  14
HETATM   14  C7  UNL     1      60.018 -10.630  45.180  1.00  0.00     0.111 C 
HETATM   15  N6  UNL     1      58.894 -10.139  44.830  1.00  0.00    -0.361 N 
HETATM   16  C8  UNL     1      58.454  -8.760  44.647  1.00  0.00     0.250 C 
ATOM     17  H6  UNL     1      58.173 -10.836  44.645  1.00  0.00     0.162 HD
HETATM   18  N7  UNL     1      59.461  -8.156  43.744  1.00  0.00    -0.335 N 
HETATM   19  C12 UNL     1      60.821  -8.011  44.058  1.00  0.00     0.188 C 
HETATM   20  N8  UNL     1      61.448  -6.878  43.482  1.00  0.00    -0.064 NA
HETATM   21  N9  UNL     1      61.564  -8.760  44.799  1.00  0.00    -0.357 N 
HETATM   22  C13 UNL     1      61.271  -9.947  45.528  1.00  0.00     0.199 C 
ATOM     23  H9  UNL     1      62.532  -8.447  44.875  1.00  0.00     0.162 HD
BRANCH  18  24
HETATM   24  C9  UNL     1      58.948  -7.740  42.497  1.00  0.00     0.088 A 
HETATM   25  C10 UNL     1      57.754  -8.134  41.779  1.00  0.00     0.027 A 
HETATM   26  C11 UNL     1      59.167  -8.507  41.228  1.00  0.00     0.027 A 
ENDBRANCH  18  24
ENDBRANCH  12  14
ENDBRANCH  10  12
ENDBRANCH   7  10
BRANCH   4  27
HETATM   27  C3  UNL     1      55.331 -13.726  46.020  1.00  0.00     0.079 C 
BRANCH  27  28
HETATM   28  C4  UNL     1      54.477 -14.870  46.495  1.00  0.00     0.025 C 
BRANCH  28  29
HETATM   29  C5  UNL     1      53.092 -14.486  46.885  1.00  0.00     0.165 C 
BRANCH  29  30
HETATM   30  S1  UNL     1      52.954 -13.624  48.404  1.00  0.00     0.101 S 
HETATM   31  O1  UNL     1      51.589 -13.690  48.995  1.00  0.00    -0.595 OA
HETATM   32  O2  UNL     1      53.451 -12.193  48.291  1.00  0.00    -0.595 OA
HETATM   33  O3  UNL     1      54.013 -14.369  49.507  1.00  0.00    -0.595 OA
ENDBRANCH  29  30
ENDBRANCH  28  29
ENDBRANCH  27  28
ENDBRANCH   4  27
BRANCH   1  34
HETATM   34  N1  UNL     1      58.459 -16.723  48.022  1.00  0.00    -0.234 N 
ATOM     35  H12 UNL     1      57.756 -17.458  47.947  1.00  0.00     0.174 HD
ATOM     36  H11 UNL     1      59.320 -16.887  48.542  1.00  0.00     0.174 HD
ENDBRANCH   1  34
TORSDOF 9
ENDMDL
MODEL 4
REMARK VINA RESULT: -9.198670347      1.351      1.747
REMARK  9 active torsions:
REMARK  status: ('A' for Active; 'I' for Inactive)
REMARK    1  A    between atoms: N1_1  and  C1_4 
REMARK    2  A    between atoms: C2_7  and  C3_8 
REMARK    3  A    between atoms: C3_8  and  C4_9 
REMARK    4  A    between atoms: C4_9  and  C5_10 
REMARK    5  A    between atoms: C5_10  and  S1_11 
REMARK    6  A    between atoms: C6_17  and  N4_18 
REMARK    7  A    between atoms: N4_18  and  N5_20 
REMARK    8  A    between atoms: N5_20  and  C7_22 
REMARK    9  A    between atoms: N7_26  and  C9_27 
ROOT
HETATM    1  C1  UNL     1      57.453 -14.440  45.789  1.00  0.00     0.691 A 
HETATM    2  N2  UNL     1      56.874 -15.072  46.829  1.00  0.00    -0.180 N 
ATOM      3  H2  UNL     1      56.174 -15.791  46.647  1.00  0.00     0.185 HD
HETATM    4  C2  UNL     1      57.196 -14.780  48.101  1.00  0.00     0.113 A 
HETATM    5  N3  UNL     1      58.123 -13.832  48.331  1.00  0.00    -0.178 N 
ATOM      6  H3  UNL     1      58.389 -13.589  49.285  1.00  0.00     0.185 HD
HETATM    7  C6  UNL     1      58.694 -13.206  47.277  1.00  0.00     0.712 A 
HETATM    8  N10 UNL     1      58.373 -13.496  46.004  1.00  0.00    -0.021 N 
ATOM      9  H10 UNL     1      58.818 -13.009  45.226  1.00  0.00     0.203 HD
ENDROOT
BRANCH   7  10
HETATM   10  N4  UNL     1      59.565 -12.314  47.510  1.00  0.00    -0.130 N 
ATOM     11  H4  UNL     1      59.578 -11.851  48.419  1.00  0.00     0.205 HD
BRANCH  10  12
HETATM   12  N5  UNL     1      60.503 -11.955  46.549  1.00  0.00    -0.274 N 
ATOM     13  H5  UNL     1      61.373 -12.486  46.499  1.00  0.00     0.189 HD
BRANCH  12  14
HETATM   14  C7  UNL     1      60.311 -10.880  45.627  1.00  0.00     0.111 C 
HETATM   15  N6  UNL     1      60.303 -11.219  44.398  1.00  0.00    -0.361 N 
HETATM   16  C8  UNL     1      60.138 -10.436  43.177  1.00  0.00     0.250 C 
ATOM     17  H6  UNL     1      60.435 -12.218  44.240  1.00  0.00     0.162 HD
HETATM   18  N7  UNL     1      61.130  -9.342  43.291  1.00  0.00    -0.335 N 
HETATM   19  C12 UNL     1      61.117  -8.362  44.295  1.00  0.00     0.188 C 
HETATM   20  N8  UNL     1      61.617  -7.097  43.899  1.00  0.00    -0.064 NA
HETATM   21  N9  UNL     1      60.708  -8.459  45.514  1.00  0.00    -0.357 N 
HETATM   22  C13 UNL     1      60.148  -9.551  46.233  1.00  0.00     0.199 C 
ATOM     23  H9  UNL     1      60.803  -7.601  46.058  1.00  0.00     0.162 HD
BRANCH  18  24
HETATM   24  C9  UNL     1      62.135  -9.363  42.300  1.00  0.00     0.088 A 
HETATM   25  C10 UNL     1      62.072  -9.118  40.875  1.00  0.00     0.027 A 
HETATM   26  C11 UNL     1      62.386 -10.548  41.418  1.00  0.00     0.027 A 
ENDBRANCH  18  24
ENDBRANCH  12  14
ENDBRANCH  10  12
ENDBRANCH   7  10
BRANCH   4  27
HETATM   27  C3  UNL     1      56.519 -15.516  49.228  1.00  0.00     0.079 C 
BRANCH  27  28
HETATM   28  C4  UNL     1      55.112 -15.772  48.759  1.00  0.00     0.025 C 
BRANCH  28  29
HETATM   29  C5  UNL     1      54.158 -14.661  49.034  1.00  0.00     0.165 C 
BRANCH  29  30
HETATM   30  S1  UNL     1      53.682 -13.720  47.635  1.00  0.00     0.101 S 
HETATM   31  O1  UNL     1      52.358 -13.059  47.796  1.00  0.00    -0.595 OA
HETATM   32  O2  UNL     1      53.756 -14.533  46.354  1.00  0.00    -0.595 OA
HETATM   33  O3  UNL     1      54.837 -12.487  47.438  1.00  0.00    -0.595 OA
ENDBRANCH  29  30
ENDBRANCH  28  29
ENDBRANCH  27  28
ENDBRANCH   4  27
BRANCH   1  34
HETATM   34  N1  UNL     1      57.138 -14.726  44.564  1.00  0.00    -0.234 N 
ATOM     35  H12 UNL     1      56.980 -15.704  44.319  1.00  0.00     0.174 HD
ATOM     36  H11 UNL     1      57.048 -13.999  43.855  1.00  0.00     0.174 HD
ENDBRANCH   1  34
TORSDOF 9
ENDMDL
MODEL 5
REMARK VINA RESULT: -9.131596503      3.472      7.270
REMARK  9 active torsions:
REMARK  status: ('A' for Active; 'I' for Inactive)
REMARK    1  A    between atoms: N1_1  and  C1_4 
REMARK    2  A    between atoms: C2_7  and  C3_8 
REMARK    3  A    between atoms: C3_8  and  C4_9 
REMARK    4  A    between atoms: C4_9  and  C5_10 
REMARK    5  A    between atoms: C5_10  and  S1_11 
REMARK    6  A    between atoms: C6_17  and  N4_18 
REMARK    7  A    between atoms: N4_18  and  N5_20 
REMARK    8  A    between atoms: N5_20  and  C7_22 
REMARK    9  A    between atoms: N7_26  and  C9_27 
ROOT
HETATM    1  C1  UNL     1      61.330  -9.016  42.060  1.00  0.00     0.691 A 
HETATM    2  N2  UNL     1      60.327  -8.804  41.184  1.00  0.00    -0.180 N 
ATOM      3  H2  UNL     1      60.495  -8.959  40.190  1.00  0.00     0.185 HD
HETATM    4  C2  UNL     1      59.113  -8.396  41.587  1.00  0.00     0.113 A 
HETATM    5  N3  UNL     1      58.901  -8.196  42.901  1.00  0.00    -0.178 N 
ATOM      6  H3  UNL     1      57.989  -7.887  43.237  1.00  0.00     0.185 HD
HETATM    7  C6  UNL     1      59.917  -8.412  43.767  1.00  0.00     0.712 A 
HETATM    8  N10 UNL     1      61.133  -8.820  43.366  1.00  0.00    -0.021 N 
ATOM      9  H10 UNL     1      61.883  -8.976  44.039  1.00  0.00     0.203 HD
ENDROOT
BRANCH   7  10
HETATM   10  N4  UNL     1      59.703  -8.219  45.002  1.00  0.00    -0.130 N 
ATOM     11  H4  UNL     1      60.225  -7.494  45.494  1.00  0.00     0.205 HD
BRANCH  10  12
HETATM   12  N5  UNL     1      58.768  -8.977  45.698  1.00  0.00    -0.274 N 
ATOM     13  H5  UNL     1      57.991  -8.494  46.148  1.00  0.00     0.189 HD
BRANCH  12  14
HETATM   14  C7  UNL     1      58.842 -10.399  45.815  1.00  0.00     0.111 C 
HETATM   15  N6  UNL     1      57.910 -11.037  45.222  1.00  0.00    -0.361 N 
HETATM   16  C8  UNL     1      57.635 -12.466  45.106  1.00  0.00     0.250 C 
ATOM     17  H6  UNL     1      57.236 -10.441  44.742  1.00  0.00     0.162 HD
HETATM   18  N7  UNL     1      57.651 -12.970  46.499  1.00  0.00    -0.335 N 
HETATM   19  C12 UNL     1      58.774 -12.935  47.341  1.00  0.00     0.188 C 
HETATM   20  N8  UNL     1      58.853 -14.000  48.272  1.00  0.00    -0.064 NA
HETATM   21  N9  UNL     1      59.733 -12.075  47.373  1.00  0.00    -0.357 N 
HETATM   22  C13 UNL     1      59.978 -10.910  46.593  1.00  0.00     0.199 C 
ATOM     23  H9  UNL     1      60.442 -12.263  48.082  1.00  0.00     0.162 HD
BRANCH  18  24
HETATM   24  C9  UNL     1      56.416 -13.487  46.945  1.00  0.00     0.088 A 
HETATM   25  C10 UNL     1      55.661 -14.647  46.520  1.00  0.00     0.027 A 
HETATM   26  C11 UNL     1      55.117 -13.208  46.253  1.00  0.00     0.027 A 
ENDBRANCH  18  24
ENDBRANCH  12  14
ENDBRANCH  10  12
ENDBRANCH   7  10
BRANCH   4  27
HETATM   27  C3  UNL     1      58.025  -8.173  40.567  1.00  0.00     0.079 C 
BRANCH  27  28
HETATM   28  C4  UNL     1      56.989  -7.327  41.255  1.00  0.00     0.025 C 
BRANCH  28  29
HETATM   29  C5  UNL     1      55.606  -7.878  41.198  1.00  0.00     0.165 C 
BRANCH  29  30
HETATM   30  S1  UNL     1      54.941  -8.393  42.735  1.00  0.00     0.101 S 
HETATM   31  O1  UNL     1      54.049  -9.579  42.620  1.00  0.00    -0.595 OA
HETATM   32  O2  UNL     1      54.268  -7.249  43.473  1.00  0.00    -0.595 OA
HETATM   33  O3  UNL     1      56.249  -8.844  43.726  1.00  0.00    -0.595 OA
ENDBRANCH  29  30
ENDBRANCH  28  29
ENDBRANCH  27  28
ENDBRANCH   4  27
BRANCH   1  34
HETATM   34  N1  UNL     1      62.501  -9.410  41.665  1.00  0.00    -0.234 N 
ATOM     35  H12 UNL     1      63.135  -8.720  41.262  1.00  0.00     0.174 HD
ATOM     36  H11 UNL     1      62.790 -10.385  41.749  1.00  0.00     0.174 HD
ENDBRANCH   1  34
TORSDOF 9
ENDMDL
