MODEL 1
REMARK VINA RESULT: -10.088359526      0.000      0.000
REMARK  8 active torsions:
REMARK  status: ('A' for Active; 'I' for Inactive)
REMARK    1  A    between atoms: N1_1  and  N2_4 
REMARK    2  A    between atoms: N2_4  and  C1_6 
REMARK    3  A    between atoms: C3_10  and  C4_11 
REMARK       I    between atoms: C4_11  and  N4_13 
REMARK    4  A    between atoms: N4_13  and  C5_15 
REMARK    5  A    between atoms: C5_15  and  C6_16 
REMARK    6  A    between atoms: C6_16  and  N5_17 
REMARK       I    between atoms: N5_17  and  C7_19 
REMARK    7  A    between atoms: C7_19  and  C8_21 
REMARK    8  A    between atoms: C12_25  and  N6_26 
ROOT
HETATM    1  C5  UNL     1      57.910  -8.665  44.863  1.00  0.00     0.142 C 
ENDROOT
BRANCH   1   2
HETATM    2  N4  UNL     1      57.685  -8.892  43.480  1.00  0.00    -0.354 N 
HETATM    3  C4  UNL     1      56.481  -8.582  42.802  1.00  0.00     0.271 C 
HETATM    4  O1  UNL     1      55.530  -8.065  43.466  1.00  0.00    -0.266 OA
ATOM      5  H4  UNL     1      58.442  -9.307  42.937  1.00  0.00     0.162 HD
BRANCH   3   6
HETATM    6  C3  UNL     1      56.276  -8.825  41.390  1.00  0.00     0.142 A 
HETATM    7  N3  UNL     1      55.119  -9.328  40.943  1.00  0.00    -0.355 N 
HETATM    8  C2  UNL     1      54.907  -9.569  39.620  1.00  0.00     0.138 A 
ATOM      9  H3  UNL     1      54.377  -9.538  41.611  1.00  0.00     0.165 HD
HETATM   10  C1  UNL     1      55.898  -9.294  38.705  1.00  0.00     0.136 A 
HETATM   11  N11 UNL     1      57.057  -8.789  39.147  1.00  0.00    -0.327 N 
HETATM   12  C16 UNL     1      57.257  -8.553  40.468  1.00  0.00     0.150 A 
ATOM     13  H11 UNL     1      57.800  -8.579  38.481  1.00  0.00     0.168 HD
HETATM   14  N10 UNL     1      58.520  -8.017  40.837  1.00  0.00    -0.080 NA
BRANCH  10  15
HETATM   15  N2  UNL     1      55.747  -9.503  37.441  1.00  0.00    -0.291 N 
ATOM     16  H2  UNL     1      56.543  -9.407  36.812  1.00  0.00     0.188 HD
BRANCH  15  17
HETATM   17  N1  UNL     1      54.506  -9.857  36.936  1.00  0.00    -0.344 N 
ATOM     18  H12 UNL     1      53.698  -9.278  37.162  1.00  0.00     0.176 HD
ATOM     19  H11 UNL     1      54.409 -10.685  36.347  1.00  0.00     0.176 HD
ENDBRANCH  15  17
ENDBRANCH  10  15
ENDBRANCH   3   6
ENDBRANCH   1   2
BRANCH   1  20
HETATM   20  C6  UNL     1      59.147  -9.333  45.407  1.00  0.00     0.142 C 
BRANCH  20  21
HETATM   21  N5  UNL     1      58.803 -10.535  46.155  1.00  0.00    -0.354 N 
HETATM   22  C7  UNL     1      58.608 -11.781  45.538  1.00  0.00     0.268 C 
HETATM   23  O2  UNL     1      58.746 -11.839  44.286  1.00  0.00    -0.266 OA
ATOM     24  H5  UNL     1      58.699 -10.469  47.168  1.00  0.00     0.162 HD
BRANCH  22  25
HETATM   25  C8  UNL     1      58.255 -12.998  46.302  1.00  0.00     0.102 A 
HETATM   26  C9  UNL     1      59.239 -13.861  46.721  1.00  0.00     0.035 A 
HETATM   27  C10 UNL     1      58.859 -14.983  47.426  1.00  0.00     0.006 A 
HETATM   28  C11 UNL     1      57.518 -15.194  47.682  1.00  0.00     0.049 A 
HETATM   29  C12 UNL     1      56.527 -14.336  47.266  1.00  0.00     0.110 A 
HETATM   30  N9  UNL     1      56.966 -13.253  46.578  1.00  0.00    -0.338 N 
ATOM     31  H9  UNL     1      56.269 -12.586  46.248  1.00  0.00     0.167 HD
BRANCH  29  32
HETATM   32  N6  UNL     1      55.144 -14.528  47.499  1.00  0.00    -0.306 N 
HETATM   33  C13 UNL     1      54.179 -14.705  46.403  1.00  0.00     0.153 C 
HETATM   34  C14 UNL     1      52.873 -14.340  47.070  1.00  0.00     0.142 C 
HETATM   35  N7  UNL     1      53.150 -14.497  48.471  1.00  0.00    -0.363 N 
HETATM   36  C15 UNL     1      54.434 -14.602  48.697  1.00  0.00     0.192 C 
ATOM     37  H7  UNL     1      52.435 -14.522  49.199  1.00  0.00     0.162 HD
HETATM   38  N8  UNL     1      54.946 -14.776  50.001  1.00  0.00    -0.063 NA
ENDBRANCH  29  32
ENDBRANCH  22  25
ENDBRANCH  20  21
ENDBRANCH   1  20
TORSDOF 8
ENDMDL
MODEL 2
REMARK VINA RESULT: -9.888122517      2.648      8.038
REMARK  8 active torsions:
REMARK  status: ('A' for Active; 'I' for Inactive)
REMARK    1  A    between atoms: N1_1  and  N2_4 
REMARK    2  A    between atoms: N2_4  and  C1_6 
REMARK    3  A    between atoms: C3_10  and  C4_11 
REMARK       I    between atoms: C4_11  and  N4_13 
REMARK    4  A    between atoms: N4_13  and  C5_15 
REMARK    5  A    between atoms: C5_15  and  C6_16 
REMARK    6  A    between atoms: C6_16  and  N5_17 
REMARK       I    between atoms: N5_17  and  C7_19 
REMARK    7  A    between atoms: C7_19  and  C8_21 
REMARK    8  A    between atoms: C12_25  and  N6_26 
ROOT
HETATM    1  C5  UNL     1      57.455 -15.011  48.406  1.00  0.00     0.142 C 
ENDROOT
BRANCH   1   2
HETATM    2  N4  UNL     1      56.157 -14.814  47.865  1.00  0.00    -0.354 N 
HETATM    3  C4  UNL     1      54.975 -14.706  48.636  1.00  0.00     0.271 C 
HETATM    4  O1  UNL     1      55.069 -14.789  49.900  1.00  0.00    -0.266 OA
ATOM      5  H4  UNL     1      56.070 -14.746  46.851  1.00  0.00     0.162 HD
BRANCH   3   6
HETATM    6  C3  UNL     1      53.662 -14.506  48.060  1.00  0.00     0.142 A 
HETATM    7  N3  UNL     1      52.640 -14.087  48.816  1.00  0.00    -0.355 N 
HETATM    8  C2  UNL     1      51.396 -13.899  48.295  1.00  0.00     0.138 A 
ATOM      9  H3  UNL     1      52.797 -13.904  49.807  1.00  0.00     0.165 HD
HETATM   10  C1  UNL     1      51.166 -14.141  46.960  1.00  0.00     0.136 A 
HETATM   11  N11 UNL     1      52.186 -14.561  46.200  1.00  0.00    -0.327 N 
HETATM   12  C16 UNL     1      53.422 -14.746  46.730  1.00  0.00     0.150 A 
ATOM     13  H11 UNL     1      52.032 -14.745  45.209  1.00  0.00     0.168 HD
HETATM   14  N10 UNL     1      54.437 -15.193  45.842  1.00  0.00    -0.080 NA
BRANCH  10  15
HETATM   15  N2  UNL     1      50.007 -13.978  46.419  1.00  0.00    -0.291 N 
ATOM     16  H2  UNL     1      49.177 -14.359  46.871  1.00  0.00     0.188 HD
BRANCH  15  17
HETATM   17  N1  UNL     1      49.886 -13.285  45.225  1.00  0.00    -0.344 N 
ATOM     18  H12 UNL     1      50.540 -12.528  45.026  1.00  0.00     0.176 HD
ATOM     19  H11 UNL     1      49.154 -13.532  44.559  1.00  0.00     0.176 HD
ENDBRANCH  15  17
ENDBRANCH  10  15
ENDBRANCH   3   6
ENDBRANCH   1   2
BRANCH   1  20
HETATM   20  C6  UNL     1      58.530 -15.225  47.372  1.00  0.00     0.142 C 
BRANCH  20  21
HETATM   21  N5  UNL     1      59.155 -13.961  47.001  1.00  0.00    -0.354 N 
HETATM   22  C7  UNL     1      58.689 -13.170  45.940  1.00  0.00     0.268 C 
HETATM   23  O2  UNL     1      57.686 -13.587  45.299  1.00  0.00    -0.266 OA
ATOM     24  H5  UNL     1      59.963 -13.639  47.534  1.00  0.00     0.162 HD
BRANCH  22  25
HETATM   25  C8  UNL     1      59.328 -11.889  45.565  1.00  0.00     0.102 A 
HETATM   26  C9  UNL     1      60.493 -11.493  46.176  1.00  0.00     0.035 A 
HETATM   27  C10 UNL     1      61.048 -10.290  45.795  1.00  0.00     0.006 A 
HETATM   28  C11 UNL     1      60.418  -9.537  44.822  1.00  0.00     0.049 A 
HETATM   29  C12 UNL     1      59.252  -9.926  44.205  1.00  0.00     0.110 A 
HETATM   30  N9  UNL     1      58.758 -11.117  44.625  1.00  0.00    -0.338 N 
ATOM     31  H9  UNL     1      57.894 -11.450  44.198  1.00  0.00     0.167 HD
BRANCH  29  32
HETATM   32  N6  UNL     1      58.574  -9.174  43.217  1.00  0.00    -0.306 N 
HETATM   33  C13 UNL     1      59.264  -8.615  42.044  1.00  0.00     0.153 C 
HETATM   34  C14 UNL     1      58.318  -7.517  41.615  1.00  0.00     0.142 C 
HETATM   35  N7  UNL     1      57.067  -7.890  42.216  1.00  0.00    -0.363 N 
HETATM   36  C15 UNL     1      57.227  -8.826  43.116  1.00  0.00     0.192 C 
ATOM     37  H7  UNL     1      56.167  -7.477  41.971  1.00  0.00     0.162 HD
HETATM   38  N8  UNL     1      56.135  -9.361  43.832  1.00  0.00    -0.063 NA
ENDBRANCH  29  32
ENDBRANCH  22  25
ENDBRANCH  20  21
ENDBRANCH   1  20
TORSDOF 8
ENDMDL
MODEL 3
REMARK VINA RESULT: -9.859313638      1.228      1.623
REMARK  8 active torsions:
REMARK  status: ('A' for Active; 'I' for Inactive)
REMARK    1  A    between atoms: N1_1  and  N2_4 
REMARK    2  A    between atoms: N2_4  and  C1_6 
REMARK    3  A    between atoms: C3_10  and  C4_11 
REMARK       I    between atoms: C4_11  and  N4_13 
REMARK    4  A    between atoms: N4_13  and  C5_15 
REMARK    5  A    between atoms: C5_15  and  C6_16 
REMARK    6  A    between atoms: C6_16  and  N5_17 
REMARK       I    between atoms: N5_17  and  C7_19 
REMARK    7  A    between atoms: C7_19  and  C8_21 
REMARK    8  A    between atoms: C12_25  and  N6_26 
ROOT
HETATM    1  C5  UNL     1      60.092  -8.804  44.315  1.00  0.00     0.142 C 
ENDROOT
BRANCH   1   2
HETATM    2  N4  UNL     1      59.133  -9.122  43.318  1.00  0.00    -0.354 N 
HETATM    3  C4  UNL     1      58.461  -8.168  42.517  1.00  0.00     0.271 C 
HETATM    4  O1  UNL     1      58.726  -6.938  42.694  1.00  0.00    -0.266 OA
ATOM      5  H4  UNL     1      58.912 -10.107  43.168  1.00  0.00     0.162 HD
BRANCH   3   6
HETATM    6  C3  UNL     1      57.485  -8.518  41.508  1.00  0.00     0.142 A 
HETATM    7  N3  UNL     1      57.838  -8.622  40.221  1.00  0.00    -0.355 N 
HETATM    8  C2  UNL     1      56.934  -8.944  39.255  1.00  0.00     0.138 A 
ATOM      9  H3  UNL     1      58.809  -8.455  39.957  1.00  0.00     0.165 HD
HETATM   10  C1  UNL     1      55.620  -9.172  39.593  1.00  0.00     0.136 A 
HETATM   11  N11 UNL     1      55.261  -9.069  40.880  1.00  0.00    -0.327 N 
HETATM   12  C16 UNL     1      56.170  -8.747  41.834  1.00  0.00     0.150 A 
ATOM     13  H11 UNL     1      54.291  -9.236  41.145  1.00  0.00     0.168 HD
HETATM   14  N10 UNL     1      55.692  -8.663  43.169  1.00  0.00    -0.080 NA
BRANCH  10  15
HETATM   15  N2  UNL     1      54.725  -9.481  38.716  1.00  0.00    -0.291 N 
ATOM     16  H2  UNL     1      53.769  -9.674  39.012  1.00  0.00     0.188 HD
BRANCH  15  17
HETATM   17  N1  UNL     1      55.060  -9.552  37.374  1.00  0.00    -0.344 N 
ATOM     18  H12 UNL     1      54.380  -9.241  36.680  1.00  0.00     0.176 HD
ATOM     19  H11 UNL     1      55.972  -9.909  37.089  1.00  0.00     0.176 HD
ENDBRANCH  15  17
ENDBRANCH  10  15
ENDBRANCH   3   6
ENDBRANCH   1   2
BRANCH   1  20
HETATM   20  C6  UNL     1      59.566  -8.874  45.725  1.00  0.00     0.142 C 
BRANCH  20  21
HETATM   21  N5  UNL     1      59.397 -10.259  46.148  1.00  0.00    -0.354 N 
HETATM   22  C7  UNL     1      58.170 -10.935  46.051  1.00  0.00     0.268 C 
HETATM   23  O2  UNL     1      57.192 -10.301  45.571  1.00  0.00    -0.266 OA
ATOM     24  H5  UNL     1      60.201 -10.756  46.531  1.00  0.00     0.162 HD
BRANCH  22  25
HETATM   25  C8  UNL     1      58.002 -12.339  46.486  1.00  0.00     0.102 A 
HETATM   26  C9  UNL     1      59.093 -13.167  46.587  1.00  0.00     0.035 A 
HETATM   27  C10 UNL     1      58.885 -14.468  46.992  1.00  0.00     0.006 A 
HETATM   28  C11 UNL     1      57.598 -14.885  47.279  1.00  0.00     0.049 A 
HETATM   29  C12 UNL     1      56.500 -14.062  47.180  1.00  0.00     0.110 A 
HETATM   30  N9  UNL     1      56.773 -12.798  46.776  1.00  0.00    -0.338 N 
ATOM     31  H9  UNL     1      55.991 -12.148  46.688  1.00  0.00     0.167 HD
BRANCH  29  32
HETATM   32  N6  UNL     1      55.169 -14.459  47.453  1.00  0.00    -0.306 N 
HETATM   33  C13 UNL     1      54.209 -14.778  46.384  1.00  0.00     0.153 C 
HETATM   34  C14 UNL     1      52.884 -14.613  47.092  1.00  0.00     0.142 C 
HETATM   35  N7  UNL     1      53.223 -14.727  48.484  1.00  0.00    -0.363 N 
HETATM   36  C15 UNL     1      54.515 -14.639  48.671  1.00  0.00     0.192 C 
ATOM     37  H7  UNL     1      52.542 -14.859  49.231  1.00  0.00     0.162 HD
HETATM   38  N8  UNL     1      55.085 -14.735  49.958  1.00  0.00    -0.063 NA
ENDBRANCH  29  32
ENDBRANCH  22  25
ENDBRANCH  20  21
ENDBRANCH   1  20
TORSDOF 8
ENDMDL
MODEL 4
REMARK VINA RESULT: -9.781998076      3.882      8.538
REMARK  8 active torsions:
REMARK  status: ('A' for Active; 'I' for Inactive)
REMARK    1  A    between atoms: N1_1  and  N2_4 
REMARK    2  A    between atoms: N2_4  and  C1_6 
REMARK    3  A    between atoms: C3_10  and  C4_11 
REMARK       I    between atoms: C4_11  and  N4_13 
REMARK    4  A    between atoms: N4_13  and  C5_15 
REMARK    5  A    between atoms: C5_15  and  C6_16 
REMARK    6  A    between atoms: C6_16  and  N5_17 
REMARK       I    between atoms: N5_17  and  C7_19 
REMARK    7  A    between atoms: C7_19  and  C8_21 
REMARK    8  A    between atoms: C12_25  and  N6_26 
ROOT
HETATM    1  C5  UNL     1      57.657 -14.914  48.158  1.00  0.00     0.142 C 
ENDROOT
BRANCH   1   2
HETATM    2  N4  UNL     1      56.339 -14.706  47.672  1.00  0.00    -0.354 N 
HETATM    3  C4  UNL     1      55.172 -14.760  48.471  1.00  0.00     0.271 C 
HETATM    4  O1  UNL     1      55.299 -15.012  49.709  1.00  0.00    -0.266 OA
ATOM      5  H4  UNL     1      56.226 -14.503  46.679  1.00  0.00     0.162 HD
BRANCH   3   6
HETATM    6  C3  UNL     1      53.838 -14.546  47.951  1.00  0.00     0.142 A 
HETATM    7  N3  UNL     1      52.858 -14.100  48.745  1.00  0.00    -0.355 N 
HETATM    8  C2  UNL     1      51.595 -13.897  48.277  1.00  0.00     0.138 A 
ATOM      9  H3  UNL     1      53.061 -13.907  49.726  1.00  0.00     0.165 HD
HETATM   10  C1  UNL     1      51.303 -14.152  46.956  1.00  0.00     0.136 A 
HETATM   11  N11 UNL     1      52.281 -14.598  46.158  1.00  0.00    -0.327 N 
HETATM   12  C16 UNL     1      53.536 -14.797  46.635  1.00  0.00     0.150 A 
ATOM     13  H11 UNL     1      52.080 -14.792  45.177  1.00  0.00     0.168 HD
HETATM   14  N10 UNL     1      54.503 -15.273  45.709  1.00  0.00    -0.080 NA
BRANCH  10  15
HETATM   15  N2  UNL     1      50.124 -13.975  46.464  1.00  0.00    -0.291 N 
ATOM     16  H2  UNL     1      49.307 -14.321  46.967  1.00  0.00     0.188 HD
BRANCH  15  17
HETATM   17  N1  UNL     1      49.964 -13.317  45.256  1.00  0.00    -0.344 N 
ATOM     18  H12 UNL     1      50.237 -13.792  44.396  1.00  0.00     0.176 HD
ATOM     19  H11 UNL     1      49.578 -12.372  45.232  1.00  0.00     0.176 HD
ENDBRANCH  15  17
ENDBRANCH  10  15
ENDBRANCH   3   6
ENDBRANCH   1   2
BRANCH   1  20
HETATM   20  C6  UNL     1      58.722 -14.886  47.092  1.00  0.00     0.142 C 
BRANCH  20  21
HETATM   21  N5  UNL     1      59.147 -13.519  46.817  1.00  0.00    -0.354 N 
HETATM   22  C7  UNL     1      58.667 -12.783  45.722  1.00  0.00     0.268 C 
HETATM   23  O2  UNL     1      57.833 -13.346  44.962  1.00  0.00    -0.266 OA
ATOM     24  H5  UNL     1      59.820 -13.080  47.445  1.00  0.00     0.162 HD
BRANCH  22  25
HETATM   25  C8  UNL     1      59.105 -11.397  45.445  1.00  0.00     0.102 A 
HETATM   26  C9  UNL     1      58.728 -10.373  46.279  1.00  0.00     0.035 A 
HETATM   27  C10 UNL     1      59.157  -9.099  45.976  1.00  0.00     0.006 A 
HETATM   28  C11 UNL     1      59.944  -8.902  44.857  1.00  0.00     0.049 A 
HETATM   29  C12 UNL     1      60.326  -9.922  44.016  1.00  0.00     0.110 A 
HETATM   30  N9  UNL     1      59.870 -11.149  44.369  1.00  0.00    -0.338 N 
ATOM     31  H9  UNL     1      60.127 -11.939  43.777  1.00  0.00     0.167 HD
BRANCH  29  32
HETATM   32  N6  UNL     1      61.118  -9.755  42.855  1.00  0.00    -0.306 N 
HETATM   33  C13 UNL     1      61.342  -8.438  42.240  1.00  0.00     0.153 C 
HETATM   34  C14 UNL     1      61.746  -8.812  40.832  1.00  0.00     0.142 C 
HETATM   35  N7  UNL     1      62.177 -10.178  40.952  1.00  0.00    -0.363 N 
HETATM   36  C15 UNL     1      61.816 -10.695  42.098  1.00  0.00     0.192 C 
ATOM     37  H7  UNL     1      62.698 -10.681  40.233  1.00  0.00     0.162 HD
HETATM   38  N8  UNL     1      62.139 -12.024  42.446  1.00  0.00    -0.063 NA
ENDBRANCH  29  32
ENDBRANCH  22  25
ENDBRANCH  20  21
ENDBRANCH   1  20
TORSDOF 8
ENDMDL
MODEL 5
REMARK VINA RESULT: -9.770444374      2.957      8.396
REMARK  8 active torsions:
REMARK  status: ('A' for Active; 'I' for Inactive)
REMARK    1  A    between atoms: N1_1  and  N2_4 
REMARK    2  A    between atoms: N2_4  and  C1_6 
REMARK    3  A    between atoms: C3_10  and  C4_11 
REMARK       I    between atoms: C4_11  and  N4_13 
REMARK    4  A    between atoms: N4_13  and  C5_15 
REMARK    5  A    between atoms: C5_15  and  C6_16 
REMARK    6  A    between atoms: C6_16  and  N5_17 
REMARK       I    between atoms: N5_17  and  C7_19 
REMARK    7  A    between atoms: C7_19  and  C8_21 
REMARK    8  A    between atoms: C12_25  and  N6_26 
ROOT
HETATM    1  C5  UNL     1      58.995  -7.752  42.924  1.00  0.00     0.142 C 
ENDROOT
BRANCH   1   2
HETATM    2  N4  UNL     1      59.115  -8.915  43.730  1.00  0.00    -0.354 N 
HETATM    3  C4  UNL     1      58.655  -9.016  45.065  1.00  0.00     0.271 C 
HETATM    4  O1  UNL     1      58.095  -8.004  45.589  1.00  0.00    -0.266 OA
ATOM      5  H4  UNL     1      59.564  -9.733  43.319  1.00  0.00     0.162 HD
BRANCH   3   6
HETATM    6  C3  UNL     1      58.790 -10.214  45.867  1.00  0.00     0.142 A 
HETATM    7  N3  UNL     1      57.712 -10.826  46.370  1.00  0.00    -0.355 N 
HETATM    8  C2  UNL     1      57.818 -11.949  47.132  1.00  0.00     0.138 A 
ATOM      9  H3  UNL     1      56.786 -10.440  46.179  1.00  0.00     0.165 HD
HETATM   10  C1  UNL     1      59.057 -12.483  47.401  1.00  0.00     0.136 A 
HETATM   11  N11 UNL     1      60.140 -11.874  46.899  1.00  0.00    -0.327 N 
HETATM   12  C16 UNL     1      60.023 -10.754  46.141  1.00  0.00     0.150 A 
ATOM     13  H11 UNL     1      61.066 -12.257  47.089  1.00  0.00     0.168 HD
HETATM   14  N10 UNL     1      61.229 -10.182  45.656  1.00  0.00    -0.080 NA
BRANCH  10  15
HETATM   15  N2  UNL     1      59.211 -13.545  48.115  1.00  0.00    -0.291 N 
ATOM     16  H2  UNL     1      59.221 -13.476  49.133  1.00  0.00     0.188 HD
BRANCH  15  17
HETATM   17  N1  UNL     1      59.363 -14.780  47.506  1.00  0.00    -0.344 N 
ATOM     18  H12 UNL     1      58.911 -14.945  46.607  1.00  0.00     0.176 HD
ATOM     19  H11 UNL     1      59.918 -15.510  47.954  1.00  0.00     0.176 HD
ENDBRANCH  15  17
ENDBRANCH  10  15
ENDBRANCH   3   6
ENDBRANCH   1   2
BRANCH   1  20
HETATM   20  C6  UNL     1      59.339  -7.966  41.473  1.00  0.00     0.142 C 
BRANCH  20  21
HETATM   21  N5  UNL     1      58.345  -8.810  40.822  1.00  0.00    -0.354 N 
HETATM   22  C7  UNL     1      57.386  -8.300  39.931  1.00  0.00     0.268 C 
HETATM   23  O2  UNL     1      57.408  -7.061  39.698  1.00  0.00    -0.266 OA
ATOM     24  H5  UNL     1      58.345  -9.810  41.020  1.00  0.00     0.162 HD
BRANCH  22  25
HETATM   25  C8  UNL     1      56.376  -9.160  39.275  1.00  0.00     0.102 A 
HETATM   26  C9  UNL     1      56.767 -10.121  38.374  1.00  0.00     0.035 A 
HETATM   27  C10 UNL     1      55.788 -10.893  37.786  1.00  0.00     0.006 A 
HETATM   28  C11 UNL     1      54.466 -10.675  38.125  1.00  0.00     0.049 A 
HETATM   29  C12 UNL     1      54.067  -9.716  39.026  1.00  0.00     0.110 A 
HETATM   30  N9  UNL     1      55.076  -8.990  39.566  1.00  0.00    -0.338 N 
ATOM     31  H9  UNL     1      54.832  -8.266  40.241  1.00  0.00     0.167 HD
BRANCH  29  32
HETATM   32  N6  UNL     1      52.722  -9.457  39.384  1.00  0.00    -0.306 N 
HETATM   33  C13 UNL     1      51.587  -9.968  38.600  1.00  0.00     0.153 C 
HETATM   34  C14 UNL     1      50.471  -9.039  39.018  1.00  0.00     0.142 C 
HETATM   35  N7  UNL     1      50.928  -8.496  40.268  1.00  0.00    -0.363 N 
HETATM   36  C15 UNL     1      52.199  -8.741  40.460  1.00  0.00     0.192 C 
ATOM     37  H7  UNL     1      50.336  -7.984  40.922  1.00  0.00     0.162 HD
HETATM   38  N8  UNL     1      52.867  -8.313  41.627  1.00  0.00    -0.063 NA
ENDBRANCH  29  32
ENDBRANCH  22  25
ENDBRANCH  20  21
ENDBRANCH   1  20
TORSDOF 8
ENDMDL
