MODEL 1
REMARK VINA RESULT: -8.738980659      0.000      0.000
REMARK  8 active torsions:
REMARK  status: ('A' for Active; 'I' for Inactive)
REMARK       I    between atoms: C2_2  and  N1_4 
REMARK    1  A    between atoms: N1_4  and  N2_6 
REMARK       I    between atoms: N2_6  and  C3_8 
REMARK    2  A    between atoms: C3_8  and  C4_10 
REMARK       I    between atoms: C4_10  and  N3_12 
REMARK    3  A    between atoms: N3_12  and  N4_14 
REMARK    4  A    between atoms: C5_16  and  C6_17 
REMARK    5  A    between atoms: C5_16  and  C9_29 
REMARK    6  A    between atoms: C6_17  and  S1_18 
REMARK    7  A    between atoms: S1_18  and  C7_19 
REMARK       I    between atoms: C9_29  and  N8_31 
REMARK    8  A    between atoms: N8_31  and  N9_33 
ROOT
HETATM    1  N4  UNL     1      57.258 -10.825  45.319  1.00  0.00    -0.296 N 
ATOM      2  H4  UNL     1      56.491 -10.669  44.666  1.00  0.00     0.187 HD
HETATM    3  C5  UNL     1      58.244  -9.976  45.358  1.00  0.00     0.104 C 
ENDROOT
BRANCH   3   4
HETATM    4  C6  UNL     1      59.387 -10.147  46.284  1.00  0.00     0.146 C 
BRANCH   4   5
HETATM    5  S1  UNL     1      60.751 -11.057  45.467  1.00  0.00    -0.086 SA
BRANCH   5   6
HETATM    6  C7  UNL     1      61.391 -10.013  44.165  1.00  0.00     0.168 A 
HETATM    7  N5  UNL     1      61.445 -10.240  42.839  1.00  0.00    -0.300 N 
HETATM    8  C8  UNL     1      62.006  -9.183  42.211  1.00  0.00     0.242 A 
ATOM      9  H5  UNL     1      61.110 -11.085  42.376  1.00  0.00     0.171 HD
HETATM   10  N6  UNL     1      62.241  -8.999  40.957  1.00  0.00    -0.364 N 
HETATM   11  O4  UNL     1      62.290  -8.323  43.166  1.00  0.00    -0.199 OA
ATOM     12  H62 UNL     1      62.021  -9.666  40.216  1.00  0.00     0.159 HD
ATOM     13  H61 UNL     1      62.666  -8.202  40.482  1.00  0.00     0.159 HD
HETATM   14  N7  UNL     1      61.944  -8.777  44.315  1.00  0.00    -0.235 N 
ATOM     15  H7  UNL     1      62.064  -8.288  45.201  1.00  0.00     0.197 HD
ENDBRANCH   5   6
ENDBRANCH   4   5
ENDBRANCH   3   4
BRANCH   3  16
HETATM   16  C9  UNL     1      58.196  -8.841  44.460  1.00  0.00     0.284 C 
HETATM   17  O5  UNL     1      58.128  -7.684  44.935  1.00  0.00    -0.265 OA
HETATM   18  N8  UNL     1      58.221  -8.991  43.049  1.00  0.00    -0.265 N 
ATOM     19  H8  UNL     1      58.276  -9.928  42.650  1.00  0.00     0.190 HD
BRANCH  18  20
HETATM   20  N9  UNL     1      58.174  -7.896  42.195  1.00  0.00    -0.307 N 
HETATM   21  C10 UNL     1      57.114  -7.761  41.451  1.00  0.00    -0.004 C 
HETATM   22  C11 UNL     1      57.063  -6.591  40.538  1.00  0.00     0.064 C 
HETATM   23  C12 UNL     1      55.989  -8.716  41.494  1.00  0.00     0.064 C 
ATOM     24  H9  UNL     1      58.940  -7.224  42.152  1.00  0.00     0.186 HD
ENDBRANCH  18  20
ENDBRANCH   3  16
BRANCH   1  25
HETATM   25  N3  UNL     1      57.228 -11.952  46.160  1.00  0.00    -0.261 N 
HETATM   26  C4  UNL     1      57.549 -13.223  45.629  1.00  0.00     0.329 C 
HETATM   27  O3  UNL     1      57.855 -13.328  44.416  1.00  0.00    -0.261 OA
ATOM     28  H3  UNL     1      56.978 -11.854  47.144  1.00  0.00     0.190 HD
BRANCH  26  29
HETATM   29  C3  UNL     1      57.523 -14.388  46.484  1.00  0.00     0.329 C 
HETATM   30  N2  UNL     1      56.853 -14.326  47.734  1.00  0.00    -0.259 N 
ATOM     31  H2  UNL     1      56.395 -13.459  48.013  1.00  0.00     0.190 HD
HETATM   32  O2  UNL     1      58.096 -15.439  46.109  1.00  0.00    -0.261 OA
BRANCH  30  33
HETATM   33  N1  UNL     1      56.808 -15.429  48.584  1.00  0.00    -0.267 N 
HETATM   34  C2  UNL     1      55.610 -16.174  48.677  1.00  0.00     0.232 C 
HETATM   35  C1  UNL     1      55.443 -17.360  49.541  1.00  0.00     0.119 C 
HETATM   36  O1  UNL     1      54.620 -15.824  47.992  1.00  0.00    -0.272 OA
ATOM     37  H1  UNL     1      57.626 -15.695  49.132  1.00  0.00     0.190 HD
ENDBRANCH  30  33
ENDBRANCH  26  29
ENDBRANCH   1  25
TORSDOF 8
ENDMDL
MODEL 2
REMARK VINA RESULT: -8.711529875      3.408      6.435
REMARK  8 active torsions:
REMARK  status: ('A' for Active; 'I' for Inactive)
REMARK       I    between atoms: C2_2  and  N1_4 
REMARK    1  A    between atoms: N1_4  and  N2_6 
REMARK       I    between atoms: N2_6  and  C3_8 
REMARK    2  A    between atoms: C3_8  and  C4_10 
REMARK       I    between atoms: C4_10  and  N3_12 
REMARK    3  A    between atoms: N3_12  and  N4_14 
REMARK    4  A    between atoms: C5_16  and  C6_17 
REMARK    5  A    between atoms: C5_16  and  C9_29 
REMARK    6  A    between atoms: C6_17  and  S1_18 
REMARK    7  A    between atoms: S1_18  and  C7_19 
REMARK       I    between atoms: C9_29  and  N8_31 
REMARK    8  A    between atoms: N8_31  and  N9_33 
ROOT
HETATM    1  N4  UNL     1      56.088 -12.441  45.757  1.00  0.00    -0.296 N 
ATOM      2  H4  UNL     1      56.061 -11.483  46.106  1.00  0.00     0.187 HD
HETATM    3  C5  UNL     1      57.206 -12.918  45.292  1.00  0.00     0.104 C 
ENDROOT
BRANCH   3   4
HETATM    4  C6  UNL     1      57.309 -14.301  44.770  1.00  0.00     0.146 C 
BRANCH   4   5
HETATM    5  S1  UNL     1      58.128 -15.394  45.990  1.00  0.00    -0.086 SA
BRANCH   5   6
HETATM    6  C7  UNL     1      57.358 -15.102  47.576  1.00  0.00     0.168 A 
HETATM    7  N5  UNL     1      56.124 -15.433  47.999  1.00  0.00    -0.300 N 
HETATM    8  C8  UNL     1      55.946 -15.026  49.275  1.00  0.00     0.242 A 
ATOM      9  H5  UNL     1      55.424 -15.920  47.438  1.00  0.00     0.171 HD
HETATM   10  N6  UNL     1      54.917 -15.146  50.043  1.00  0.00    -0.364 N 
HETATM   11  O4  UNL     1      57.078 -14.449  49.615  1.00  0.00    -0.199 OA
ATOM     12  H62 UNL     1      54.039 -15.594  49.780  1.00  0.00     0.159 HD
ATOM     13  H61 UNL     1      54.783 -14.839  51.007  1.00  0.00     0.159 HD
HETATM   14  N7  UNL     1      57.921 -14.477  48.648  1.00  0.00    -0.235 N 
ATOM     15  H7  UNL     1      58.864 -14.091  48.677  1.00  0.00     0.197 HD
ENDBRANCH   5   6
ENDBRANCH   4   5
ENDBRANCH   3   4
BRANCH   3  16
HETATM   16  C9  UNL     1      58.366 -12.052  45.296  1.00  0.00     0.284 C 
HETATM   17  O5  UNL     1      59.230 -12.176  44.398  1.00  0.00    -0.265 OA
HETATM   18  N8  UNL     1      58.565 -11.058  46.290  1.00  0.00    -0.265 N 
ATOM     19  H8  UNL     1      57.869 -10.947  47.027  1.00  0.00     0.190 HD
BRANCH  18  20
HETATM   20  N9  UNL     1      59.682 -10.232  46.288  1.00  0.00    -0.307 N 
HETATM   21  C10 UNL     1      59.561  -9.062  45.729  1.00  0.00    -0.004 C 
HETATM   22  C11 UNL     1      60.754  -8.179  45.727  1.00  0.00     0.064 C 
HETATM   23  C12 UNL     1      58.299  -8.604  45.117  1.00  0.00     0.064 C 
ATOM     24  H9  UNL     1      60.562 -10.530  46.707  1.00  0.00     0.186 HD
ENDBRANCH  18  20
ENDBRANCH   3  16
BRANCH   1  25
HETATM   25  N3  UNL     1      54.916 -13.219  45.790  1.00  0.00    -0.261 N 
HETATM   26  C4  UNL     1      54.101 -13.197  46.945  1.00  0.00     0.329 C 
HETATM   27  O3  UNL     1      54.433 -12.486  47.924  1.00  0.00    -0.261 OA
ATOM     28  H3  UNL     1      54.657 -13.793  44.987  1.00  0.00     0.190 HD
BRANCH  26  29
HETATM   29  C3  UNL     1      52.894 -13.991  46.989  1.00  0.00     0.329 C 
HETATM   30  N2  UNL     1      51.660 -13.414  46.591  1.00  0.00    -0.259 N 
ATOM     31  H2  UNL     1      51.640 -12.443  46.276  1.00  0.00     0.190 HD
HETATM   32  O2  UNL     1      52.955 -15.181  47.381  1.00  0.00    -0.261 OA
BRANCH  30  33
HETATM   33  N1  UNL     1      50.476 -14.148  46.621  1.00  0.00    -0.267 N 
HETATM   34  C2  UNL     1      49.751 -14.228  47.832  1.00  0.00     0.232 C 
HETATM   35  C1  UNL     1      48.485 -14.974  47.986  1.00  0.00     0.119 C 
HETATM   36  O1  UNL     1      50.191 -13.637  48.846  1.00  0.00    -0.272 OA
ATOM     37  H1  UNL     1      50.137 -14.620  45.783  1.00  0.00     0.190 HD
ENDBRANCH  30  33
ENDBRANCH  26  29
ENDBRANCH   1  25
TORSDOF 8
ENDMDL
MODEL 3
REMARK VINA RESULT: -8.576107776      3.202      7.679
REMARK  8 active torsions:
REMARK  status: ('A' for Active; 'I' for Inactive)
REMARK       I    between atoms: C2_2  and  N1_4 
REMARK    1  A    between atoms: N1_4  and  N2_6 
REMARK       I    between atoms: N2_6  and  C3_8 
REMARK    2  A    between atoms: C3_8  and  C4_10 
REMARK       I    between atoms: C4_10  and  N3_12 
REMARK    3  A    between atoms: N3_12  and  N4_14 
REMARK    4  A    between atoms: C5_16  and  C6_17 
REMARK    5  A    between atoms: C5_16  and  C9_29 
REMARK    6  A    between atoms: C6_17  and  S1_18 
REMARK    7  A    between atoms: S1_18  and  C7_19 
REMARK       I    between atoms: C9_29  and  N8_31 
REMARK    8  A    between atoms: N8_31  and  N9_33 
ROOT
HETATM    1  N4  UNL     1      55.162 -13.030  46.393  1.00  0.00    -0.296 N 
ATOM      2  H4  UNL     1      54.381 -12.450  46.697  1.00  0.00     0.187 HD
HETATM    3  C5  UNL     1      55.270 -14.243  46.851  1.00  0.00     0.104 C 
ENDROOT
BRANCH   3   4
HETATM    4  C6  UNL     1      56.382 -15.135  46.448  1.00  0.00     0.146 C 
BRANCH   4   5
HETATM    5  S1  UNL     1      57.665 -15.200  47.753  1.00  0.00    -0.086 SA
BRANCH   5   6
HETATM    6  C7  UNL     1      58.757 -13.808  47.505  1.00  0.00     0.168 A 
HETATM    7  N5  UNL     1      59.655 -13.592  46.526  1.00  0.00    -0.300 N 
HETATM    8  C8  UNL     1      60.271 -12.404  46.715  1.00  0.00     0.242 A 
ATOM      9  H5  UNL     1      59.844 -14.232  45.754  1.00  0.00     0.171 HD
HETATM   10  N6  UNL     1      61.187 -11.829  46.012  1.00  0.00    -0.364 N 
HETATM   11  O4  UNL     1      59.739 -11.909  47.812  1.00  0.00    -0.199 OA
ATOM     12  H62 UNL     1      61.599 -12.213  45.162  1.00  0.00     0.159 HD
ATOM     13  H61 UNL     1      61.652 -10.932  46.155  1.00  0.00     0.159 HD
HETATM   14  N7  UNL     1      58.855 -12.702  48.295  1.00  0.00    -0.235 N 
ATOM     15  H7  UNL     1      58.309 -12.532  49.140  1.00  0.00     0.197 HD
ENDBRANCH   5   6
ENDBRANCH   4   5
ENDBRANCH   3   4
BRANCH   3  16
HETATM   16  C9  UNL     1      54.262 -14.709  47.780  1.00  0.00     0.284 C 
HETATM   17  O5  UNL     1      54.352 -15.863  48.258  1.00  0.00    -0.265 OA
HETATM   18  N8  UNL     1      53.163 -13.901  48.172  1.00  0.00    -0.265 N 
ATOM     19  H8  UNL     1      53.078 -12.959  47.789  1.00  0.00     0.190 HD
BRANCH  18  20
HETATM   20  N9  UNL     1      52.199 -14.356  49.063  1.00  0.00    -0.307 N 
HETATM   21  C10 UNL     1      50.956 -14.311  48.677  1.00  0.00    -0.004 C 
HETATM   22  C11 UNL     1      49.927 -14.797  49.629  1.00  0.00     0.064 C 
HETATM   23  C12 UNL     1      50.557 -13.804  47.350  1.00  0.00     0.064 C 
ATOM     24  H9  UNL     1      52.455 -14.711  49.984  1.00  0.00     0.186 HD
ENDBRANCH  18  20
ENDBRANCH   3  16
BRANCH   1  25
HETATM   25  N3  UNL     1      56.099 -12.504  45.485  1.00  0.00    -0.261 N 
HETATM   26  C4  UNL     1      56.905 -11.410  45.877  1.00  0.00     0.329 C 
HETATM   27  O3  UNL     1      56.774 -10.925  47.028  1.00  0.00    -0.261 OA
ATOM     28  H3  UNL     1      56.195 -12.907  44.553  1.00  0.00     0.190 HD
BRANCH  26  29
HETATM   29  C3  UNL     1      57.873 -10.861  44.954  1.00  0.00     0.329 C 
HETATM   30  N2  UNL     1      58.059  -9.455  44.887  1.00  0.00    -0.259 N 
ATOM     31  H2  UNL     1      57.507  -8.848  45.494  1.00  0.00     0.190 HD
HETATM   32  O2  UNL     1      58.534 -11.637  44.223  1.00  0.00    -0.261 OA
BRANCH  30  33
HETATM   33  N1  UNL     1      58.981  -8.890  44.009  1.00  0.00    -0.267 N 
HETATM   34  C2  UNL     1      60.273  -8.572  44.485  1.00  0.00     0.232 C 
HETATM   35  C1  UNL     1      61.333  -7.971  43.649  1.00  0.00     0.119 C 
HETATM   36  O1  UNL     1      60.556  -8.806  45.683  1.00  0.00    -0.272 OA
ATOM     37  H1  UNL     1      58.728  -8.708  43.037  1.00  0.00     0.190 HD
ENDBRANCH  30  33
ENDBRANCH  26  29
ENDBRANCH   1  25
TORSDOF 8
ENDMDL
MODEL 4
REMARK VINA RESULT: -8.524325999      2.901      6.033
REMARK  8 active torsions:
REMARK  status: ('A' for Active; 'I' for Inactive)
REMARK       I    between atoms: C2_2  and  N1_4 
REMARK    1  A    between atoms: N1_4  and  N2_6 
REMARK       I    between atoms: N2_6  and  C3_8 
REMARK    2  A    between atoms: C3_8  and  C4_10 
REMARK       I    between atoms: C4_10  and  N3_12 
REMARK    3  A    between atoms: N3_12  and  N4_14 
REMARK    4  A    between atoms: C5_16  and  C6_17 
REMARK    5  A    between atoms: C5_16  and  C9_29 
REMARK    6  A    between atoms: C6_17  and  S1_18 
REMARK    7  A    between atoms: S1_18  and  C7_19 
REMARK       I    between atoms: C9_29  and  N8_31 
REMARK    8  A    between atoms: N8_31  and  N9_33 
ROOT
HETATM    1  N4  UNL     1      56.856 -12.046  45.429  1.00  0.00    -0.296 N 
ATOM      2  H4  UNL     1      56.659 -11.772  44.467  1.00  0.00     0.187 HD
HETATM    3  C5  UNL     1      58.061 -11.898  45.899  1.00  0.00     0.104 C 
ENDROOT
BRANCH   3   4
HETATM    4  C6  UNL     1      58.411 -12.278  47.287  1.00  0.00     0.146 C 
BRANCH   4   5
HETATM    5  S1  UNL     1      58.873 -14.047  47.377  1.00  0.00    -0.086 SA
BRANCH   5   6
HETATM    6  C7  UNL     1      57.628 -14.880  48.351  1.00  0.00     0.168 A 
HETATM    7  N5  UNL     1      57.152 -16.134  48.234  1.00  0.00    -0.300 N 
HETATM    8  C8  UNL     1      56.214 -16.364  49.180  1.00  0.00     0.242 A 
ATOM      9  H5  UNL     1      57.454 -16.812  47.534  1.00  0.00     0.171 HD
HETATM   10  N6  UNL     1      55.520 -17.425  49.411  1.00  0.00    -0.364 N 
HETATM   11  O4  UNL     1      56.130 -15.243  49.863  1.00  0.00    -0.199 OA
ATOM     12  H62 UNL     1      55.585 -18.295  48.881  1.00  0.00     0.159 HD
ATOM     13  H61 UNL     1      54.812 -17.599  50.125  1.00  0.00     0.159 HD
HETATM   14  N7  UNL     1      56.940 -14.360  49.406  1.00  0.00    -0.235 N 
ATOM     15  H7  UNL     1      57.052 -13.416  49.774  1.00  0.00     0.197 HD
ENDBRANCH   5   6
ENDBRANCH   4   5
ENDBRANCH   3   4
BRANCH   3  16
HETATM   16  C9  UNL     1      59.068 -11.344  45.018  1.00  0.00     0.284 C 
HETATM   17  O5  UNL     1      59.999 -12.075  44.612  1.00  0.00    -0.265 OA
HETATM   18  N8  UNL     1      59.040  -9.989  44.594  1.00  0.00    -0.265 N 
ATOM     19  H8  UNL     1      58.286  -9.383  44.919  1.00  0.00     0.190 HD
BRANCH  18  20
HETATM   20  N9  UNL     1      60.011  -9.465  43.750  1.00  0.00    -0.307 N 
HETATM   21  C10 UNL     1      60.903  -8.678  44.278  1.00  0.00    -0.004 C 
HETATM   22  C11 UNL     1      61.941  -8.118  43.376  1.00  0.00     0.064 C 
HETATM   23  C12 UNL     1      60.910  -8.339  45.714  1.00  0.00     0.064 C 
ATOM     24  H9  UNL     1      60.024  -9.689  42.755  1.00  0.00     0.186 HD
ENDBRANCH  18  20
ENDBRANCH   3  16
BRANCH   1  25
HETATM   25  N3  UNL     1      55.821 -12.575  46.221  1.00  0.00    -0.261 N 
HETATM   26  C4  UNL     1      55.339 -13.878  45.953  1.00  0.00     0.329 C 
HETATM   27  O3  UNL     1      55.841 -14.543  45.014  1.00  0.00    -0.261 OA
ATOM     28  H3  UNL     1      55.421 -12.025  46.981  1.00  0.00     0.190 HD
BRANCH  26  29
HETATM   29  C3  UNL     1      54.276 -14.433  46.761  1.00  0.00     0.329 C 
HETATM   30  N2  UNL     1      53.976 -13.850  48.020  1.00  0.00    -0.259 N 
ATOM     31  H2  UNL     1      54.514 -13.045  48.340  1.00  0.00     0.190 HD
HETATM   32  O2  UNL     1      53.635 -15.423  46.337  1.00  0.00    -0.261 OA
BRANCH  30  33
HETATM   33  N1  UNL     1      52.959 -14.359  48.827  1.00  0.00    -0.267 N 
HETATM   34  C2  UNL     1      51.627 -13.954  48.585  1.00  0.00     0.232 C 
HETATM   35  C1  UNL     1      50.468 -14.425  49.371  1.00  0.00     0.119 C 
HETATM   36  O1  UNL     1      51.394 -13.149  47.652  1.00  0.00    -0.272 OA
ATOM     37  H1  UNL     1      53.174 -15.013  49.580  1.00  0.00     0.190 HD
ENDBRANCH  30  33
ENDBRANCH  26  29
ENDBRANCH   1  25
TORSDOF 8
ENDMDL
MODEL 5
REMARK VINA RESULT: -8.478337002      5.822      9.005
REMARK  8 active torsions:
REMARK  status: ('A' for Active; 'I' for Inactive)
REMARK       I    between atoms: C2_2  and  N1_4 
REMARK    1  A    between atoms: N1_4  and  N2_6 
REMARK       I    between atoms: N2_6  and  C3_8 
REMARK    2  A    between atoms: C3_8  and  C4_10 
REMARK       I    between atoms: C4_10  and  N3_12 
REMARK    3  A    between atoms: N3_12  and  N4_14 
REMARK    4  A    between atoms: C5_16  and  C6_17 
REMARK    5  A    between atoms: C5_16  and  C9_29 
REMARK    6  A    between atoms: C6_17  and  S1_18 
REMARK    7  A    between atoms: S1_18  and  C7_19 
REMARK       I    between atoms: C9_29  and  N8_31 
REMARK    8  A    between atoms: N8_31  and  N9_33 
ROOT
HETATM    1  N4  UNL     1      55.740  -7.843  41.335  1.00  0.00    -0.296 N 
ATOM      2  H4  UNL     1      55.804  -7.779  42.350  1.00  0.00     0.187 HD
HETATM    3  C5  UNL     1      56.790  -8.193  40.651  1.00  0.00     0.104 C 
ENDROOT
BRANCH   3   4
HETATM    4  C6  UNL     1      56.761  -8.302  39.174  1.00  0.00     0.146 C 
BRANCH   4   5
HETATM    5  S1  UNL     1      56.568 -10.049  38.658  1.00  0.00    -0.086 SA
BRANCH   5   6
HETATM    6  C7  UNL     1      54.975 -10.203  37.864  1.00  0.00     0.168 A 
HETATM    7  N5  UNL     1      54.014 -11.127  38.052  1.00  0.00    -0.300 N 
HETATM    8  C8  UNL     1      52.961 -10.872  37.245  1.00  0.00     0.242 A 
ATOM      9  H5  UNL     1      54.073 -11.906  38.708  1.00  0.00     0.171 HD
HETATM   10  N6  UNL     1      51.848 -11.509  37.116  1.00  0.00    -0.364 N 
HETATM   11  O4  UNL     1      53.295  -9.792  36.572  1.00  0.00    -0.199 OA
ATOM     12  H62 UNL     1      51.589 -12.347  37.638  1.00  0.00     0.159 HD
ATOM     13  H61 UNL     1      51.053 -11.317  36.506  1.00  0.00     0.159 HD
HETATM   14  N7  UNL     1      54.461  -9.378  36.909  1.00  0.00    -0.235 N 
ATOM     15  H7  UNL     1      54.930  -8.559  36.523  1.00  0.00     0.197 HD
ENDBRANCH   5   6
ENDBRANCH   4   5
ENDBRANCH   3   4
BRANCH   3  16
HETATM   16  C9  UNL     1      58.008  -8.478  41.380  1.00  0.00     0.284 C 
HETATM   17  O5  UNL     1      59.104  -8.466  40.774  1.00  0.00    -0.265 OA
HETATM   18  N8  UNL     1      58.009  -8.774  42.768  1.00  0.00    -0.265 N 
ATOM     19  H8  UNL     1      57.122  -8.787  43.272  1.00  0.00     0.190 HD
BRANCH  18  20
HETATM   20  N9  UNL     1      59.182  -9.048  43.459  1.00  0.00    -0.307 N 
HETATM   21  C10 UNL     1      59.098  -9.825  44.500  1.00  0.00    -0.004 C 
HETATM   22  C11 UNL     1      60.352 -10.117  45.239  1.00  0.00     0.064 C 
HETATM   23  C12 UNL     1      57.820 -10.409  44.950  1.00  0.00     0.064 C 
ATOM     24  H9  UNL     1      60.075  -8.655  43.162  1.00  0.00     0.186 HD
ENDBRANCH  18  20
ENDBRANCH   3  16
BRANCH   1  25
HETATM   25  N3  UNL     1      54.517  -7.551  40.702  1.00  0.00    -0.261 N 
HETATM   26  C4  UNL     1      53.534  -8.562  40.593  1.00  0.00     0.329 C 
HETATM   27  O3  UNL     1      53.765  -9.704  41.061  1.00  0.00    -0.261 OA
ATOM     28  H3  UNL     1      54.342  -6.619  40.326  1.00  0.00     0.190 HD
BRANCH  26  29
HETATM   29  C3  UNL     1      52.274  -8.274  39.946  1.00  0.00     0.329 C 
HETATM   30  N2  UNL     1      51.059  -8.636  40.586  1.00  0.00    -0.259 N 
ATOM     31  H2  UNL     1      51.090  -9.095  41.497  1.00  0.00     0.190 HD
HETATM   32  O2  UNL     1      52.272  -7.708  38.828  1.00  0.00    -0.261 OA
BRANCH  30  33
HETATM   33  N1  UNL     1      49.825  -8.375  39.993  1.00  0.00    -0.267 N 
HETATM   34  C2  UNL     1      49.239  -9.364  39.170  1.00  0.00     0.232 C 
HETATM   35  C1  UNL     1      47.938  -9.203  38.490  1.00  0.00     0.119 C 
HETATM   36  O1  UNL     1      49.843 -10.448  38.995  1.00  0.00    -0.272 OA
ATOM     37  H1  UNL     1      49.352  -7.485  40.150  1.00  0.00     0.190 HD
ENDBRANCH  30  33
ENDBRANCH  26  29
ENDBRANCH   1  25
TORSDOF 8
ENDMDL
