MODEL 1
REMARK VINA RESULT: -9.718924243      0.000      0.000
REMARK  6 active torsions:
REMARK  status: ('A' for Active; 'I' for Inactive)
REMARK    1  A    between atoms: C3_3  and  C4_4 
REMARK       I    between atoms: C4_4  and  N1_6 
REMARK       I    between atoms: N1_6  and  C5_8 
REMARK       I    between atoms: C5_8  and  N2_9 
REMARK       I    between atoms: C5_8  and  N3_13 
REMARK    2  A    between atoms: C8_21  and  C9_22 
REMARK    3  A    between atoms: C9_22  and  C10_23 
REMARK    4  A    between atoms: C10_23  and  C11_24 
REMARK    5  A    between atoms: C14_32  and  N7_33 
REMARK    6  A    between atoms: N7_33  and  C15_35 
ROOT
HETATM    1  C15 UNL     1      51.545 -14.058  37.159  1.00  0.00     0.262 C 
HETATM    2  C16 UNL     1      50.356 -14.794  36.671  1.00  0.00     0.079 C 
HETATM    3  N8  UNL     1      49.420 -15.357  36.272  1.00  0.00    -0.196 NA
ENDROOT
BRANCH   1   4
HETATM    4  N7  UNL     1      51.158 -12.890  37.906  1.00  0.00    -0.214 N 
ATOM      5  H7  UNL     1      50.261 -12.853  38.391  1.00  0.00     0.178 HD
BRANCH   4   6
HETATM    6  C14 UNL     1      52.058 -11.787  37.950  1.00  0.00     0.678 C 
HETATM    7  N6  UNL     1      53.102 -11.544  38.880  1.00  0.00    -0.202 N 
HETATM    8  C12 UNL     1      53.925 -10.506  38.311  1.00  0.00     0.176 C 
ATOM      9  H6  UNL     1      53.243 -12.012  39.775  1.00  0.00     0.179 HD
HETATM   10  C7  UNL     1      54.586  -9.650  39.287  1.00  0.00     0.032 A 
HETATM   11  C13 UNL     1      55.018 -11.184  37.509  1.00  0.00     0.168 C 
HETATM   12  C17 UNL     1      53.028  -9.845  37.364  1.00  0.00     0.271 C 
HETATM   13  C6  UNL     1      55.943  -9.638  38.941  1.00  0.00     0.111 A 
HETATM   14  C8  UNL     1      54.162  -8.938  40.387  1.00  0.00    -0.036 A 
HETATM   15  N4  UNL     1      56.831  -8.958  39.650  1.00  0.00    -0.337 N 
HETATM   16  N5  UNL     1      56.178 -10.416  37.774  1.00  0.00    -0.372 N 
HETATM   17  C3  UNL     1      56.467  -8.251  40.730  1.00  0.00     0.108 A 
ATOM     18  H4  UNL     1      57.811  -8.972  39.369  1.00  0.00     0.167 HD
HETATM   19  C2  UNL     1      55.125  -8.246  41.095  1.00  0.00    -0.023 A 
HETATM   20  C1  UNL     1      54.733  -7.500  42.293  1.00  0.00     0.051 C 
ATOM     21  H5  UNL     1      57.035 -10.420  37.222  1.00  0.00     0.161 HD
HETATM   22  N9  UNL     1      52.009 -10.812  37.074  1.00  0.00    -0.158 N 
HETATM   23  O3  UNL     1      53.053  -8.685  36.851  1.00  0.00    -0.269 OA
ATOM     24  H9  UNL     1      51.346 -10.751  36.301  1.00  0.00     0.187 HD
BRANCH  17  25
HETATM   25  C4  UNL     1      57.519  -7.538  41.427  1.00  0.00     0.271 C 
HETATM   26  O1  UNL     1      57.670  -6.316  41.323  1.00  0.00    -0.266 OA
HETATM   27  N1  UNL     1      58.416  -8.247  42.264  1.00  0.00    -0.306 N 
HETATM   28  C5  UNL     1      59.491  -7.626  42.996  1.00  0.00     0.483 C 
ATOM     29  H1  UNL     1      58.293  -9.256  42.353  1.00  0.00     0.166 HD
HETATM   30  N2  UNL     1      59.189  -7.796  44.413  1.00  0.00    -0.033 N 
HETATM   31  N3  UNL     1      60.781  -8.174  42.755  1.00  0.00    -0.033 N 
ATOM     32  H23 UNL     1      58.268  -7.443  44.673  1.00  0.00     0.278 HD
ATOM     33  H22 UNL     1      59.032  -8.769  44.676  1.00  0.00     0.278 HD
ATOM     34  H21 UNL     1      59.950  -7.357  44.932  1.00  0.00     0.278 HD
ATOM     35  H33 UNL     1      60.773  -9.180  42.926  1.00  0.00     0.278 HD
ATOM     36  H32 UNL     1      60.985  -8.165  41.755  1.00  0.00     0.278 HD
ATOM     37  H31 UNL     1      61.541  -7.735  43.273  1.00  0.00     0.278 HD
ENDBRANCH  17  25
BRANCH  14  38
HETATM   38  C9  UNL     1      52.771  -8.890  40.774  1.00  0.00     0.047 C 
BRANCH  38  39
HETATM   39  C10 UNL     1      51.893  -7.954  39.976  1.00  0.00     0.074 C 
BRANCH  39  40
HETATM   40  C11 UNL     1      50.465  -8.430  40.026  1.00  0.00     0.231 C 
HETATM   41  O2  UNL     1      50.126  -9.198  39.142  1.00  0.00    -0.307 OA
ENDBRANCH  39  40
ENDBRANCH  38  39
ENDBRANCH  14  38
ENDBRANCH   4   6
ENDBRANCH   1   4
TORSDOF 6
ENDMDL
MODEL 2
REMARK VINA RESULT: -8.504478358      1.061      1.331
REMARK  6 active torsions:
REMARK  status: ('A' for Active; 'I' for Inactive)
REMARK    1  A    between atoms: C3_3  and  C4_4 
REMARK       I    between atoms: C4_4  and  N1_6 
REMARK       I    between atoms: N1_6  and  C5_8 
REMARK       I    between atoms: C5_8  and  N2_9 
REMARK       I    between atoms: C5_8  and  N3_13 
REMARK    2  A    between atoms: C8_21  and  C9_22 
REMARK    3  A    between atoms: C9_22  and  C10_23 
REMARK    4  A    between atoms: C10_23  and  C11_24 
REMARK    5  A    between atoms: C14_32  and  N7_33 
REMARK    6  A    between atoms: N7_33  and  C15_35 
ROOT
HETATM    1  C15 UNL     1      50.613 -12.885  37.085  1.00  0.00     0.262 C 
HETATM    2  C16 UNL     1      50.068 -11.794  37.927  1.00  0.00     0.079 C 
HETATM    3  N8  UNL     1      49.650 -10.924  38.574  1.00  0.00    -0.196 NA
ENDROOT
BRANCH   1   4
HETATM    4  N7  UNL     1      52.014 -13.086  37.345  1.00  0.00    -0.214 N 
ATOM      5  H7  UNL     1      52.403 -14.026  37.417  1.00  0.00     0.178 HD
BRANCH   4   6
HETATM    6  C14 UNL     1      52.844 -11.938  37.500  1.00  0.00     0.678 C 
HETATM    7  N6  UNL     1      53.783 -11.669  38.530  1.00  0.00    -0.202 N 
HETATM    8  C12 UNL     1      54.596 -10.572  38.067  1.00  0.00     0.176 C 
ATOM      9  H6  UNL     1      53.866 -12.155  39.423  1.00  0.00     0.179 HD
HETATM   10  C7  UNL     1      55.116  -9.712  39.122  1.00  0.00     0.032 A 
HETATM   11  C13 UNL     1      55.794 -11.168  37.354  1.00  0.00     0.168 C 
HETATM   12  C17 UNL     1      53.756  -9.932  37.056  1.00  0.00     0.271 C 
HETATM   13  C6  UNL     1      56.496  -9.619  38.904  1.00  0.00     0.111 A 
HETATM   14  C8  UNL     1      54.554  -9.057  40.194  1.00  0.00    -0.036 A 
HETATM   15  N4  UNL     1      57.277  -8.914  39.711  1.00  0.00    -0.337 N 
HETATM   16  N5  UNL     1      56.881 -10.348  37.746  1.00  0.00    -0.372 N 
HETATM   17  C3  UNL     1      56.776  -8.260  40.768  1.00  0.00     0.108 A 
ATOM     18  H4  UNL     1      58.278  -8.869  39.523  1.00  0.00     0.167 HD
HETATM   19  C2  UNL     1      55.407  -8.337  41.006  1.00  0.00    -0.023 A 
HETATM   20  C1  UNL     1      54.866  -7.648  42.181  1.00  0.00     0.051 C 
ATOM     21  H5  UNL     1      57.784 -10.291  37.277  1.00  0.00     0.161 HD
HETATM   22  N9  UNL     1      52.823 -10.942  36.648  1.00  0.00    -0.158 N 
HETATM   23  O3  UNL     1      53.764  -8.757  36.577  1.00  0.00    -0.269 OA
ATOM     24  H9  UNL     1      52.231 -10.892  35.818  1.00  0.00     0.187 HD
BRANCH  17  25
HETATM   25  C4  UNL     1      57.718  -7.514  41.579  1.00  0.00     0.271 C 
HETATM   26  O1  UNL     1      57.777  -6.280  41.555  1.00  0.00    -0.266 OA
HETATM   27  N1  UNL     1      58.610  -8.203  42.436  1.00  0.00    -0.306 N 
HETATM   28  C5  UNL     1      59.581  -7.549  43.278  1.00  0.00     0.483 C 
ATOM     29  H1  UNL     1      58.563  -9.222  42.460  1.00  0.00     0.166 HD
HETATM   30  N2  UNL     1      59.199  -7.829  44.658  1.00  0.00    -0.033 N 
HETATM   31  N3  UNL     1      60.923  -7.981  43.099  1.00  0.00    -0.033 N 
ATOM     32  H23 UNL     1      58.237  -7.563  44.871  1.00  0.00     0.278 HD
ATOM     33  H22 UNL     1      59.103  -8.825  44.854  1.00  0.00     0.278 HD
ATOM     34  H21 UNL     1      59.885  -7.366  45.254  1.00  0.00     0.278 HD
ATOM     35  H33 UNL     1      60.985  -8.993  43.213  1.00  0.00     0.278 HD
ATOM     36  H32 UNL     1      61.193  -7.895  42.120  1.00  0.00     0.278 HD
ATOM     37  H31 UNL     1      61.610  -7.518  43.696  1.00  0.00     0.278 HD
ENDBRANCH  17  25
BRANCH  14  38
HETATM   38  C9  UNL     1      53.133  -9.093  40.450  1.00  0.00     0.047 C 
BRANCH  38  39
HETATM   39  C10 UNL     1      52.311  -8.014  39.783  1.00  0.00     0.074 C 
BRANCH  39  40
HETATM   40  C11 UNL     1      50.845  -8.288  39.993  1.00  0.00     0.231 C 
HETATM   41  O2  UNL     1      50.487  -8.426  41.150  1.00  0.00    -0.307 OA
ENDBRANCH  39  40
ENDBRANCH  38  39
ENDBRANCH  14  38
ENDBRANCH   4   6
ENDBRANCH   1   4
TORSDOF 6
ENDMDL
MODEL 3
REMARK VINA RESULT: -8.031451596      2.454      8.505
REMARK  6 active torsions:
REMARK  status: ('A' for Active; 'I' for Inactive)
REMARK    1  A    between atoms: C3_3  and  C4_4 
REMARK       I    between atoms: C4_4  and  N1_6 
REMARK       I    between atoms: N1_6  and  C5_8 
REMARK       I    between atoms: C5_8  and  N2_9 
REMARK       I    between atoms: C5_8  and  N3_13 
REMARK    2  A    between atoms: C8_21  and  C9_22 
REMARK    3  A    between atoms: C9_22  and  C10_23 
REMARK    4  A    between atoms: C10_23  and  C11_24 
REMARK    5  A    between atoms: C14_32  and  N7_33 
REMARK    6  A    between atoms: N7_33  and  C15_35 
ROOT
HETATM    1  C15 UNL     1      54.928  -7.568  41.298  1.00  0.00     0.262 C 
HETATM    2  C16 UNL     1      55.417  -8.002  42.628  1.00  0.00     0.079 C 
HETATM    3  N8  UNL     1      55.800  -8.364  43.663  1.00  0.00    -0.196 NA
ENDROOT
BRANCH   1   4
HETATM    4  N7  UNL     1      53.521  -7.831  41.155  1.00  0.00    -0.214 N 
ATOM      5  H7  UNL     1      52.853  -7.502  41.853  1.00  0.00     0.178 HD
BRANCH   4   6
HETATM    6  C14 UNL     1      53.083  -8.564  40.014  1.00  0.00     0.678 C 
HETATM    7  N6  UNL     1      52.483  -9.850  39.976  1.00  0.00    -0.202 N 
HETATM    8  C12 UNL     1      51.921 -10.001  38.657  1.00  0.00     0.176 C 
ATOM      9  H6  UNL     1      52.456 -10.534  40.733  1.00  0.00     0.179 HD
HETATM   10  C7  UNL     1      51.881 -11.372  38.166  1.00  0.00     0.032 A 
HETATM   11  C13 UNL     1      50.487  -9.514  38.719  1.00  0.00     0.168 C 
HETATM   12  C17 UNL     1      52.679  -9.042  37.855  1.00  0.00     0.271 C 
HETATM   13  C6  UNL     1      50.564 -11.599  37.749  1.00  0.00     0.111 A 
HETATM   14  C8  UNL     1      52.807 -12.386  38.066  1.00  0.00    -0.036 A 
HETATM   15  N4  UNL     1      50.186 -12.771  37.260  1.00  0.00    -0.337 N 
HETATM   16  N5  UNL     1      49.768 -10.433  37.917  1.00  0.00    -0.372 N 
HETATM   17  C3  UNL     1      51.051 -13.789  37.144  1.00  0.00     0.108 A 
ATOM     18  H4  UNL     1      49.218 -12.902  36.966  1.00  0.00     0.167 HD
HETATM   19  C2  UNL     1      52.366 -13.590  37.552  1.00  0.00    -0.023 A 
HETATM   20  C1  UNL     1      53.302 -14.712  37.455  1.00  0.00     0.051 C 
ATOM     21  H5  UNL     1      48.837 -10.284  37.527  1.00  0.00     0.161 HD
HETATM   22  N9  UNL     1      53.198  -8.092  38.796  1.00  0.00    -0.158 N 
HETATM   23  O3  UNL     1      52.892  -8.972  36.606  1.00  0.00    -0.269 OA
ATOM     24  H9  UNL     1      53.598  -7.186  38.554  1.00  0.00     0.187 HD
BRANCH  17  25
HETATM   25  C4  UNL     1      50.533 -15.025  36.590  1.00  0.00     0.271 C 
HETATM   26  O1  UNL     1      49.459 -15.513  36.956  1.00  0.00    -0.266 OA
HETATM   27  N1  UNL     1      51.267 -15.710  35.591  1.00  0.00    -0.306 N 
HETATM   28  C5  UNL     1      50.834 -16.943  34.981  1.00  0.00     0.483 C 
ATOM     29  H1  UNL     1      52.154 -15.309  35.286  1.00  0.00     0.166 HD
HETATM   30  N2  UNL     1      50.596 -16.654  33.571  1.00  0.00    -0.033 N 
HETATM   31  N3  UNL     1      51.766 -18.014  35.058  1.00  0.00    -0.033 N 
ATOM     32  H23 UNL     1      49.947 -15.882  33.423  1.00  0.00     0.278 HD
ATOM     33  H22 UNL     1      51.402 -16.236  33.105  1.00  0.00     0.278 HD
ATOM     34  H21 UNL     1      50.290 -17.526  33.139  1.00  0.00     0.278 HD
ATOM     35  H33 UNL     1      52.665 -17.726  34.669  1.00  0.00     0.278 HD
ATOM     36  H32 UNL     1      52.035 -18.177  36.028  1.00  0.00     0.278 HD
ATOM     37  H31 UNL     1      51.460 -18.886  34.625  1.00  0.00     0.278 HD
ENDBRANCH  17  25
BRANCH  14  38
HETATM   38  C9  UNL     1      54.186 -12.200  38.453  1.00  0.00     0.047 C 
BRANCH  38  39
HETATM   39  C10 UNL     1      55.057 -11.454  37.468  1.00  0.00     0.074 C 
BRANCH  39  40
HETATM   40  C11 UNL     1      55.996 -10.540  38.210  1.00  0.00     0.231 C 
HETATM   41  O2  UNL     1      55.737 -10.347  39.385  1.00  0.00    -0.307 OA
ENDBRANCH  39  40
ENDBRANCH  38  39
ENDBRANCH  14  38
ENDBRANCH   4   6
ENDBRANCH   1   4
TORSDOF 6
ENDMDL
MODEL 4
REMARK VINA RESULT: -6.969886441      6.679      9.802
REMARK  6 active torsions:
REMARK  status: ('A' for Active; 'I' for Inactive)
REMARK    1  A    between atoms: C3_3  and  C4_4 
REMARK       I    between atoms: C4_4  and  N1_6 
REMARK       I    between atoms: N1_6  and  C5_8 
REMARK       I    between atoms: C5_8  and  N2_9 
REMARK       I    between atoms: C5_8  and  N3_13 
REMARK    2  A    between atoms: C8_21  and  C9_22 
REMARK    3  A    between atoms: C9_22  and  C10_23 
REMARK    4  A    between atoms: C10_23  and  C11_24 
REMARK    5  A    between atoms: C14_32  and  N7_33 
REMARK    6  A    between atoms: N7_33  and  C15_35 
ROOT
HETATM    1  C15 UNL     1      62.207  -9.101  41.183  1.00  0.00     0.262 C 
HETATM    2  C16 UNL     1      62.416 -10.549  41.417  1.00  0.00     0.079 C 
HETATM    3  N8  UNL     1      62.565 -11.689  41.584  1.00  0.00    -0.196 NA
ENDROOT
BRANCH   1   4
HETATM    4  N7  UNL     1      60.937  -8.672  41.705  1.00  0.00    -0.214 N 
ATOM      5  H7  UNL     1      60.335  -8.047  41.168  1.00  0.00     0.178 HD
BRANCH   4   6
HETATM    6  C14 UNL     1      60.540  -9.142  42.990  1.00  0.00     0.678 C 
HETATM    7  N6  UNL     1      60.160 -10.458  43.363  1.00  0.00    -0.202 N 
HETATM    8  C12 UNL     1      60.184 -10.499  44.804  1.00  0.00     0.176 C 
ATOM      9  H6  UNL     1      59.917 -11.224  42.736  1.00  0.00     0.179 HD
HETATM   10  C7  UNL     1      59.235 -11.427  45.403  1.00  0.00     0.032 A 
HETATM   11  C13 UNL     1      61.569 -10.956  45.220  1.00  0.00     0.168 C 
HETATM   12  C17 UNL     1      60.052  -9.093  45.184  1.00  0.00     0.271 C 
HETATM   13  C6  UNL     1      59.973 -12.223  46.288  1.00  0.00     0.111 A 
HETATM   14  C8  UNL     1      57.884 -11.651  45.256  1.00  0.00    -0.036 A 
HETATM   15  N4  UNL     1      59.400 -13.191  46.987  1.00  0.00    -0.337 N 
HETATM   16  N5  UNL     1      61.339 -11.830  46.310  1.00  0.00    -0.372 N 
HETATM   17  C3  UNL     1      58.088 -13.449  46.878  1.00  0.00     0.108 A 
ATOM     18  H4  UNL     1      59.967 -13.752  47.622  1.00  0.00     0.167 HD
HETATM   19  C2  UNL     1      57.333 -12.671  46.005  1.00  0.00    -0.023 A 
HETATM   20  C1  UNL     1      55.907 -12.974  45.862  1.00  0.00     0.051 C 
ATOM     21  H5  UNL     1      62.034 -12.126  46.994  1.00  0.00     0.161 HD
HETATM   22  N9  UNL     1      60.480  -8.350  44.034  1.00  0.00    -0.158 N 
HETATM   23  O3  UNL     1      59.658  -8.545  46.259  1.00  0.00    -0.269 OA
ATOM     24  H9  UNL     1      60.704  -7.355  44.029  1.00  0.00     0.187 HD
BRANCH  17  25
HETATM   25  C4  UNL     1      57.565 -14.525  47.696  1.00  0.00     0.271 C 
HETATM   26  O1  UNL     1      58.068 -15.653  47.703  1.00  0.00    -0.266 OA
HETATM   27  N1  UNL     1      56.438 -14.296  48.523  1.00  0.00    -0.306 N 
HETATM   28  C5  UNL     1      55.847 -15.302  49.370  1.00  0.00     0.483 C 
ATOM     29  H1  UNL     1      56.021 -13.365  48.521  1.00  0.00     0.166 HD
HETATM   30  N2  UNL     1      56.030 -14.855  50.746  1.00  0.00    -0.033 N 
HETATM   31  N3  UNL     1      54.458 -15.524  49.163  1.00  0.00    -0.033 N 
ATOM     32  H23 UNL     1      57.003 -14.655  50.978  1.00  0.00     0.278 HD
ATOM     33  H22 UNL     1      55.663 -13.919  50.917  1.00  0.00     0.278 HD
ATOM     34  H21 UNL     1      55.612 -15.566  51.346  1.00  0.00     0.278 HD
ATOM     35  H33 UNL     1      53.945 -14.646  49.250  1.00  0.00     0.278 HD
ATOM     36  H32 UNL     1      54.279 -15.740  48.183  1.00  0.00     0.278 HD
ATOM     37  H31 UNL     1      54.039 -16.235  49.763  1.00  0.00     0.278 HD
ENDBRANCH  17  25
BRANCH  14  38
HETATM   38  C9  UNL     1      57.068 -10.842  44.381  1.00  0.00     0.047 C 
BRANCH  38  39
HETATM   39  C10 UNL     1      57.071  -9.356  44.657  1.00  0.00     0.074 C 
BRANCH  39  40
HETATM   40  C11 UNL     1      56.678  -8.606  43.411  1.00  0.00     0.231 C 
HETATM   41  O2  UNL     1      57.492  -7.803  42.991  1.00  0.00    -0.307 OA
ENDBRANCH  39  40
ENDBRANCH  38  39
ENDBRANCH  14  38
ENDBRANCH   4   6
ENDBRANCH   1   4
TORSDOF 6
ENDMDL
MODEL 5
REMARK VINA RESULT: -6.743117031      5.988      9.669
REMARK  6 active torsions:
REMARK  status: ('A' for Active; 'I' for Inactive)
REMARK    1  A    between atoms: C3_3  and  C4_4 
REMARK       I    between atoms: C4_4  and  N1_6 
REMARK       I    between atoms: N1_6  and  C5_8 
REMARK       I    between atoms: C5_8  and  N2_9 
REMARK       I    between atoms: C5_8  and  N3_13 
REMARK    2  A    between atoms: C8_21  and  C9_22 
REMARK    3  A    between atoms: C9_22  and  C10_23 
REMARK    4  A    between atoms: C10_23  and  C11_24 
REMARK    5  A    between atoms: C14_32  and  N7_33 
REMARK    6  A    between atoms: N7_33  and  C15_35 
ROOT
HETATM    1  C15 UNL     1      62.180  -9.388  41.316  1.00  0.00     0.262 C 
HETATM    2  C16 UNL     1      60.790  -8.889  41.197  1.00  0.00     0.079 C 
HETATM    3  N8  UNL     1      59.707  -8.477  41.104  1.00  0.00    -0.196 NA
ENDROOT
BRANCH   1   4
HETATM    4  N7  UNL     1      62.668  -9.239  42.661  1.00  0.00    -0.214 N 
ATOM      5  H7  UNL     1      63.643  -8.998  42.841  1.00  0.00     0.178 HD
BRANCH   4   6
HETATM    6  C14 UNL     1      61.755  -9.438  43.737  1.00  0.00     0.678 C 
HETATM    7  N6  UNL     1      60.967 -10.585  44.018  1.00  0.00    -0.202 N 
HETATM    8  C12 UNL     1      60.486 -10.431  45.368  1.00  0.00     0.176 C 
ATOM      9  H6  UNL     1      60.778 -11.364  43.388  1.00  0.00     0.179 HD
HETATM   10  C7  UNL     1      59.196 -11.056  45.629  1.00  0.00     0.032 A 
HETATM   11  C13 UNL     1      61.492 -11.099  46.285  1.00  0.00     0.168 C 
HETATM   12  C17 UNL     1      60.571  -8.989  45.595  1.00  0.00     0.271 C 
HETATM   13  C6  UNL     1      59.373 -11.856  46.764  1.00  0.00     0.111 A 
HETATM   14  C8  UNL     1      57.966 -11.019  45.012  1.00  0.00    -0.036 A 
HETATM   15  N4  UNL     1      58.381 -12.582  47.259  1.00  0.00    -0.337 N 
HETATM   16  N5  UNL     1      60.700 -11.749  47.262  1.00  0.00    -0.372 N 
HETATM   17  C3  UNL     1      57.166 -12.580  46.693  1.00  0.00     0.108 A 
ATOM     18  H4  UNL     1      58.545 -13.154  48.087  1.00  0.00     0.167 HD
HETATM   19  C2  UNL     1      56.964 -11.793  45.563  1.00  0.00    -0.023 A 
HETATM   20  C1  UNL     1      55.645 -11.816  44.926  1.00  0.00     0.051 C 
ATOM     21  H5  UNL     1      61.027 -12.084  48.168  1.00  0.00     0.161 HD
HETATM   22  N9  UNL     1      61.532  -8.515  44.641  1.00  0.00    -0.158 N 
HETATM   23  O3  UNL     1      59.976  -8.231  46.420  1.00  0.00    -0.269 OA
ATOM     24  H9  UNL     1      61.975  -7.596  44.663  1.00  0.00     0.187 HD
BRANCH  17  25
HETATM   25  C4  UNL     1      56.152 -13.405  47.321  1.00  0.00     0.271 C 
HETATM   26  O1  UNL     1      56.430 -14.266  48.162  1.00  0.00    -0.266 OA
HETATM   27  N1  UNL     1      54.790 -13.232  46.974  1.00  0.00    -0.306 N 
HETATM   28  C5  UNL     1      53.713 -14.003  47.544  1.00  0.00     0.483 C 
ATOM     29  H1  UNL     1      54.557 -12.521  46.281  1.00  0.00     0.166 HD
HETATM   30  N2  UNL     1      52.880 -13.072  48.296  1.00  0.00    -0.033 N 
HETATM   31  N3  UNL     1      52.883 -14.669  46.601  1.00  0.00    -0.033 N 
ATOM     32  H23 UNL     1      53.402 -12.535  48.990  1.00  0.00     0.278 HD
ATOM     33  H22 UNL     1      52.557 -12.281  47.738  1.00  0.00     0.278 HD
ATOM     34  H21 UNL     1      52.118 -13.617  48.699  1.00  0.00     0.278 HD
ATOM     35  H33 UNL     1      52.517 -14.002  45.922  1.00  0.00     0.278 HD
ATOM     36  H32 UNL     1      53.449 -15.256  45.987  1.00  0.00     0.278 HD
ATOM     37  H31 UNL     1      52.121 -15.214  47.004  1.00  0.00     0.278 HD
ENDBRANCH  17  25
BRANCH  14  38
HETATM   38  C9  UNL     1      57.717 -10.189  43.856  1.00  0.00     0.047 C 
BRANCH  38  39
HETATM   39  C10 UNL     1      57.299  -8.765  44.140  1.00  0.00     0.074 C 
BRANCH  39  40
HETATM   40  C11 UNL     1      56.194  -8.362  43.199  1.00  0.00     0.231 C 
HETATM   41  O2  UNL     1      55.165  -7.969  43.721  1.00  0.00    -0.307 OA
ENDBRANCH  39  40
ENDBRANCH  38  39
ENDBRANCH  14  38
ENDBRANCH   4   6
ENDBRANCH   1   4
TORSDOF 6
ENDMDL
