MODEL 1
REMARK VINA RESULT: -7.379442944      0.000      0.000
REMARK  7 active torsions:
REMARK  status: ('A' for Active; 'I' for Inactive)
REMARK    1  A    between atoms: C7_10  and  C8_11 
REMARK    2  A    between atoms: N4_18  and  C13_20 
REMARK    3  A    between atoms: C13_20  and  C14_21 
REMARK    4  A    between atoms: C14_21  and  O1_22 
REMARK    5  A    between atoms: O1_22  and  C15_23 
REMARK    6  A    between atoms: C15_23  and  C16_24 
REMARK    7  A    between atoms: C16_24  and  N5_25 
ROOT
HETATM    1  C8  UNL     1      13.447 -41.674   6.211  1.00  0.00     0.018 A 
HETATM    2  C9  UNL     1      13.765 -42.975   5.912  1.00  0.00     0.017 A 
HETATM    3  C10 UNL     1      14.616 -43.276   4.836  1.00  0.00     0.018 A 
HETATM    4  C11 UNL     1      15.124 -42.246   4.090  1.00  0.00     0.089 A 
HETATM    5  N3  UNL     1      14.808 -40.975   4.391  1.00  0.00    -0.352 N 
ATOM      6  H3  UNL     1      15.194 -40.218   3.827  1.00  0.00     0.166 HD
HETATM    7  C12 UNL     1      13.980 -40.676   5.437  1.00  0.00     0.112 A 
HETATM    8  N4  UNL     1      13.696 -39.462   5.719  1.00  0.00    -0.374 N 
ATOM      9  H4  UNL     1      13.079 -39.304   6.516  1.00  0.00     0.161 HD
ENDROOT
BRANCH   1  10
HETATM   10  C7  UNL     1      12.560 -41.360   7.313  1.00  0.00    -0.021 A 
HETATM   11  C6  UNL     1      12.879 -41.765   8.616  1.00  0.00     0.014 A 
HETATM   12  C5  UNL     1      12.036 -41.478   9.648  1.00  0.00     0.033 A 
HETATM   13  C4  UNL     1      10.875 -40.789   9.398  1.00  0.00     0.062 A 
HETATM   14  N2  UNL     1       9.884 -40.385  10.224  1.00  0.00    -0.296 N 
HETATM   15  C20 UNL     1      10.541 -40.382   8.125  1.00  0.00     0.017 A 
HETATM   16  N1  UNL     1       8.989 -39.760   9.495  1.00  0.00    -0.302 N 
HETATM   17  C3  UNL     1       9.875 -40.630  11.654  1.00  0.00     0.178 C 
HETATM   18  C2  UNL     1       9.337 -39.726   8.199  1.00  0.00     0.034 A 
ATOM     19  H1  UNL     1       8.133 -39.351   9.868  1.00  0.00     0.186 HD
HETATM   20  C1  UNL     1       8.627 -39.130   7.039  1.00  0.00     0.070 C 
HETATM   21  C19 UNL     1      11.390 -40.672   7.094  1.00  0.00     0.028 A 
ENDBRANCH   1  10
BRANCH   8  22
HETATM   22  C13 UNL     1      14.164 -38.298   5.016  1.00  0.00     0.147 C 
BRANCH  22  23
HETATM   23  C14 UNL     1      13.061 -37.876   4.049  1.00  0.00     0.187 C 
BRANCH  23  24
HETATM   24  O1  UNL     1      12.943 -36.504   3.992  1.00  0.00    -0.388 OA
BRANCH  24  25
HETATM   25  C15 UNL     1      14.046 -35.889   4.520  1.00  0.00     0.198 C 
BRANCH  25  26
HETATM   26  C16 UNL     1      14.732 -35.014   3.505  1.00  0.00     0.297 C 
BRANCH  26  27
HETATM   27  N5  UNL     1      16.019 -35.620   3.103  1.00  0.00     0.082 N 
HETATM   28  C17 UNL     1      15.752 -36.208   1.781  1.00  0.00     0.309 C 
HETATM   29  C18 UNL     1      16.999 -34.566   2.867  1.00  0.00     0.309 C 
ENDBRANCH  26  27
ENDBRANCH  25  26
ENDBRANCH  24  25
ENDBRANCH  23  24
ENDBRANCH  22  23
ENDBRANCH   8  22
TORSDOF 7
ENDMDL
MODEL 2
REMARK VINA RESULT: -7.348923901      1.990      3.249
REMARK  7 active torsions:
REMARK  status: ('A' for Active; 'I' for Inactive)
REMARK    1  A    between atoms: C7_10  and  C8_11 
REMARK    2  A    between atoms: N4_18  and  C13_20 
REMARK    3  A    between atoms: C13_20  and  C14_21 
REMARK    4  A    between atoms: C14_21  and  O1_22 
REMARK    5  A    between atoms: O1_22  and  C15_23 
REMARK    6  A    between atoms: C15_23  and  C16_24 
REMARK    7  A    between atoms: C16_24  and  N5_25 
ROOT
HETATM    1  C8  UNL     1      14.101 -39.517   3.508  1.00  0.00     0.018 A 
HETATM    2  C9  UNL     1      14.051 -40.106   2.270  1.00  0.00     0.017 A 
HETATM    3  C10 UNL     1      14.509 -39.422   1.131  1.00  0.00     0.018 A 
HETATM    4  C11 UNL     1      15.007 -38.155   1.280  1.00  0.00     0.089 A 
HETATM    5  N3  UNL     1      15.053 -37.587   2.497  1.00  0.00    -0.352 N 
ATOM      6  H3  UNL     1      15.426 -36.643   2.593  1.00  0.00     0.166 HD
HETATM    7  C12 UNL     1      14.609 -38.247   3.609  1.00  0.00     0.112 A 
HETATM    8  N4  UNL     1      14.667 -37.699   4.762  1.00  0.00    -0.374 N 
ATOM      9  H4  UNL     1      14.328 -38.247   5.553  1.00  0.00     0.161 HD
ENDROOT
BRANCH   1  10
HETATM   10  C7  UNL     1      13.619 -40.215   4.683  1.00  0.00    -0.021 A 
HETATM   11  C6  UNL     1      14.420 -41.176   5.313  1.00  0.00     0.014 A 
HETATM   12  C5  UNL     1      13.958 -41.839   6.412  1.00  0.00     0.033 A 
HETATM   13  C4  UNL     1      12.704 -41.554   6.892  1.00  0.00     0.062 A 
HETATM   14  N2  UNL     1      12.018 -42.056   7.943  1.00  0.00    -0.296 N 
HETATM   15  C20 UNL     1      11.899 -40.613   6.288  1.00  0.00     0.017 A 
HETATM   16  N1  UNL     1      10.852 -41.454   7.982  1.00  0.00    -0.302 N 
HETATM   17  C3  UNL     1      12.537 -43.079   8.832  1.00  0.00     0.178 C 
HETATM   18  C2  UNL     1      10.721 -40.557   6.991  1.00  0.00     0.034 A 
ATOM     19  H1  UNL     1      10.134 -41.644   8.680  1.00  0.00     0.186 HD
HETATM   20  C1  UNL     1       9.582 -39.663   6.662  1.00  0.00     0.070 C 
HETATM   21  C19 UNL     1      12.368 -39.952   5.187  1.00  0.00     0.028 A 
ENDBRANCH   1  10
BRANCH   8  22
HETATM   22  C13 UNL     1      15.167 -36.382   5.048  1.00  0.00     0.147 C 
BRANCH  22  23
HETATM   23  C14 UNL     1      14.204 -35.381   4.414  1.00  0.00     0.187 C 
BRANCH  23  24
HETATM   24  O1  UNL     1      14.843 -34.592   3.483  1.00  0.00    -0.388 OA
BRANCH  24  25
HETATM   25  C15 UNL     1      16.178 -34.477   3.763  1.00  0.00     0.198 C 
BRANCH  25  26
HETATM   26  C16 UNL     1      16.951 -33.967   2.575  1.00  0.00     0.297 C 
BRANCH  26  27
HETATM   27  N5  UNL     1      16.591 -34.738   1.367  1.00  0.00     0.082 N 
HETATM   28  C17 UNL     1      16.414 -33.720   0.320  1.00  0.00     0.309 C 
HETATM   29  C18 UNL     1      17.733 -35.538   0.941  1.00  0.00     0.309 C 
ENDBRANCH  26  27
ENDBRANCH  25  26
ENDBRANCH  24  25
ENDBRANCH  23  24
ENDBRANCH  22  23
ENDBRANCH   8  22
TORSDOF 7
ENDMDL
MODEL 3
REMARK VINA RESULT: -7.245260929      1.182      1.510
REMARK  7 active torsions:
REMARK  status: ('A' for Active; 'I' for Inactive)
REMARK    1  A    between atoms: C7_10  and  C8_11 
REMARK    2  A    between atoms: N4_18  and  C13_20 
REMARK    3  A    between atoms: C13_20  and  C14_21 
REMARK    4  A    between atoms: C14_21  and  O1_22 
REMARK    5  A    between atoms: O1_22  and  C15_23 
REMARK    6  A    between atoms: C15_23  and  C16_24 
REMARK    7  A    between atoms: C16_24  and  N5_25 
ROOT
HETATM    1  C8  UNL     1      14.330 -41.068   4.958  1.00  0.00     0.018 A 
HETATM    2  C9  UNL     1      14.662 -42.221   4.291  1.00  0.00     0.017 A 
HETATM    3  C10 UNL     1      15.409 -42.172   3.102  1.00  0.00     0.018 A 
HETATM    4  C11 UNL     1      15.800 -40.952   2.620  1.00  0.00     0.089 A 
HETATM    5  N3  UNL     1      15.471 -39.829   3.280  1.00  0.00    -0.352 N 
ATOM      6  H3  UNL     1      15.770 -38.926   2.910  1.00  0.00     0.166 HD
HETATM    7  C12 UNL     1      14.745 -39.869   4.438  1.00  0.00     0.112 A 
HETATM    8  N4  UNL     1      14.447 -38.794   5.061  1.00  0.00    -0.374 N 
ATOM      9  H4  UNL     1      13.910 -38.892   5.923  1.00  0.00     0.161 HD
ENDROOT
BRANCH   1  10
HETATM   10  C7  UNL     1      13.549 -41.114   6.178  1.00  0.00    -0.021 A 
HETATM   11  C6  UNL     1      14.088 -41.680   7.341  1.00  0.00     0.014 A 
HETATM   12  C5  UNL     1      13.347 -41.731   8.484  1.00  0.00     0.033 A 
HETATM   13  C4  UNL     1      12.071 -41.224   8.483  1.00  0.00     0.062 A 
HETATM   14  N2  UNL     1      11.140 -41.151   9.461  1.00  0.00    -0.296 N 
HETATM   15  C20 UNL     1      11.521 -40.664   7.350  1.00  0.00     0.017 A 
HETATM   16  N1  UNL     1      10.075 -40.575   8.955  1.00  0.00    -0.302 N 
HETATM   17  C3  UNL     1      11.348 -41.642  10.810  1.00  0.00     0.178 C 
HETATM   18  C2  UNL     1      10.249 -40.253   7.663  1.00  0.00     0.034 A 
ATOM     19  H1  UNL     1       9.219 -40.395   9.479  1.00  0.00     0.186 HD
HETATM   20  C1  UNL     1       9.316 -39.596   6.713  1.00  0.00     0.070 C 
HETATM   21  C19 UNL     1      12.270 -40.615   6.208  1.00  0.00     0.028 A 
ENDBRANCH   1  10
BRANCH   8  22
HETATM   22  C13 UNL     1      14.799 -37.459   4.661  1.00  0.00     0.147 C 
BRANCH  22  23
HETATM   23  C14 UNL     1      13.593 -36.869   3.934  1.00  0.00     0.187 C 
BRANCH  23  24
HETATM   24  O1  UNL     1      13.657 -35.493   3.894  1.00  0.00    -0.388 OA
BRANCH  24  25
HETATM   25  C15 UNL     1      14.954 -35.056   3.902  1.00  0.00     0.198 C 
BRANCH  25  26
HETATM   26  C16 UNL     1      15.453 -34.773   2.510  1.00  0.00     0.297 C 
BRANCH  26  27
HETATM   27  N5  UNL     1      16.687 -35.542   2.248  1.00  0.00     0.082 N 
HETATM   28  C17 UNL     1      16.288 -36.553   1.258  1.00  0.00     0.309 C 
HETATM   29  C18 UNL     1      17.655 -34.692   1.565  1.00  0.00     0.309 C 
ENDBRANCH  26  27
ENDBRANCH  25  26
ENDBRANCH  24  25
ENDBRANCH  23  24
ENDBRANCH  22  23
ENDBRANCH   8  22
TORSDOF 7
ENDMDL
MODEL 4
REMARK VINA RESULT: -7.244888731      2.877      6.768
REMARK  7 active torsions:
REMARK  status: ('A' for Active; 'I' for Inactive)
REMARK    1  A    between atoms: C7_10  and  C8_11 
REMARK    2  A    between atoms: N4_18  and  C13_20 
REMARK    3  A    between atoms: C13_20  and  C14_21 
REMARK    4  A    between atoms: C14_21  and  O1_22 
REMARK    5  A    between atoms: O1_22  and  C15_23 
REMARK    6  A    between atoms: C15_23  and  C16_24 
REMARK    7  A    between atoms: C16_24  and  N5_25 
ROOT
HETATM    1  C8  UNL     1      14.409 -44.046   4.210  1.00  0.00     0.018 A 
HETATM    2  C9  UNL     1      14.687 -44.864   3.144  1.00  0.00     0.017 A 
HETATM    3  C10 UNL     1      14.732 -46.259   3.304  1.00  0.00     0.018 A 
HETATM    4  C11 UNL     1      14.492 -46.788   4.544  1.00  0.00     0.089 A 
HETATM    5  N3  UNL     1      14.220 -45.978   5.581  1.00  0.00    -0.352 N 
ATOM      6  H3  UNL     1      14.044 -46.385   6.500  1.00  0.00     0.166 HD
HETATM    7  C12 UNL     1      14.175 -44.619   5.432  1.00  0.00     0.112 A 
HETATM    8  N4  UNL     1      13.904 -43.861   6.425  1.00  0.00    -0.374 N 
ATOM      9  H4  UNL     1      13.878 -42.857   6.246  1.00  0.00     0.161 HD
ENDROOT
BRANCH   1  10
HETATM   10  C7  UNL     1      14.374 -42.605   4.050  1.00  0.00    -0.021 A 
HETATM   11  C6  UNL     1      15.378 -41.949   3.326  1.00  0.00     0.014 A 
HETATM   12  C5  UNL     1      15.347 -40.593   3.187  1.00  0.00     0.033 A 
HETATM   13  C4  UNL     1      14.325 -39.881   3.762  1.00  0.00     0.062 A 
HETATM   14  N2  UNL     1      14.062 -38.554   3.778  1.00  0.00    -0.296 N 
HETATM   15  C20 UNL     1      13.327 -40.505   4.479  1.00  0.00     0.017 A 
HETATM   16  N1  UNL     1      12.960 -38.374   4.467  1.00  0.00    -0.302 N 
HETATM   17  C3  UNL     1      14.893 -37.559   3.126  1.00  0.00     0.178 C 
HETATM   18  C2  UNL     1      12.462 -39.535   4.923  1.00  0.00     0.034 A 
ATOM     19  H1  UNL     1      12.533 -37.464   4.636  1.00  0.00     0.186 HD
HETATM   20  C1  UNL     1      11.247 -39.795   5.737  1.00  0.00     0.070 C 
HETATM   21  C19 UNL     1      13.363 -41.864   4.614  1.00  0.00     0.028 A 
ENDBRANCH   1  10
BRANCH   8  22
HETATM   22  C13 UNL     1      13.635 -44.291   7.769  1.00  0.00     0.147 C 
BRANCH  22  23
HETATM   23  C14 UNL     1      12.118 -44.360   7.930  1.00  0.00     0.187 C 
BRANCH  23  24
HETATM   24  O1  UNL     1      11.736 -44.037   9.214  1.00  0.00    -0.388 OA
BRANCH  24  25
HETATM   25  C15 UNL     1      10.667 -43.180   9.213  1.00  0.00     0.198 C 
BRANCH  25  26
HETATM   26  C16 UNL     1      11.033 -41.839   8.636  1.00  0.00     0.297 C 
BRANCH  26  27
HETATM   27  N5  UNL     1      11.490 -40.932   9.710  1.00  0.00     0.082 N 
HETATM   28  C17 UNL     1      12.749 -40.365   9.202  1.00  0.00     0.309 C 
HETATM   29  C18 UNL     1      10.572 -39.805   9.818  1.00  0.00     0.309 C 
ENDBRANCH  26  27
ENDBRANCH  25  26
ENDBRANCH  24  25
ENDBRANCH  23  24
ENDBRANCH  22  23
ENDBRANCH   8  22
TORSDOF 7
ENDMDL
MODEL 5
REMARK VINA RESULT: -7.195419036      3.687      7.723
REMARK  7 active torsions:
REMARK  status: ('A' for Active; 'I' for Inactive)
REMARK    1  A    between atoms: C7_10  and  C8_11 
REMARK    2  A    between atoms: N4_18  and  C13_20 
REMARK    3  A    between atoms: C13_20  and  C14_21 
REMARK    4  A    between atoms: C14_21  and  O1_22 
REMARK    5  A    between atoms: O1_22  and  C15_23 
REMARK    6  A    between atoms: C15_23  and  C16_24 
REMARK    7  A    between atoms: C16_24  and  N5_25 
ROOT
HETATM    1  C8  UNL     1      14.415 -42.875   3.716  1.00  0.00     0.018 A 
HETATM    2  C9  UNL     1      14.915 -42.402   2.528  1.00  0.00     0.017 A 
HETATM    3  C10 UNL     1      15.671 -41.218   2.489  1.00  0.00     0.018 A 
HETATM    4  C11 UNL     1      15.900 -40.544   3.659  1.00  0.00     0.089 A 
HETATM    5  N3  UNL     1      15.406 -41.016   4.817  1.00  0.00    -0.352 N 
ATOM      6  H3  UNL     1      15.584 -40.504   5.680  1.00  0.00     0.166 HD
HETATM    7  C12 UNL     1      14.670 -42.168   4.861  1.00  0.00     0.112 A 
HETATM    8  N4  UNL     1      14.216 -42.610   5.971  1.00  0.00    -0.374 N 
ATOM      9  H4  UNL     1      13.681 -43.479   5.938  1.00  0.00     0.161 HD
ENDROOT
BRANCH   1  10
HETATM   10  C7  UNL     1      13.625 -44.090   3.757  1.00  0.00    -0.021 A 
HETATM   11  C6  UNL     1      12.226 -44.024   3.764  1.00  0.00     0.014 A 
HETATM   12  C5  UNL     1      11.487 -45.168   3.815  1.00  0.00     0.033 A 
HETATM   13  C4  UNL     1      12.127 -46.382   3.857  1.00  0.00     0.062 A 
HETATM   14  N2  UNL     1      11.642 -47.643   3.911  1.00  0.00    -0.296 N 
HETATM   15  C20 UNL     1      13.502 -46.471   3.851  1.00  0.00     0.017 A 
HETATM   16  N1  UNL     1      12.666 -48.463   3.936  1.00  0.00    -0.302 N 
HETATM   17  C3  UNL     1      10.227 -47.963   3.934  1.00  0.00     0.178 C 
HETATM   18  C2  UNL     1      13.834 -47.801   3.901  1.00  0.00     0.034 A 
ATOM     19  H1  UNL     1      12.585 -49.478   3.976  1.00  0.00     0.186 HD
HETATM   20  C1  UNL     1      15.224 -48.325   3.912  1.00  0.00     0.070 C 
HETATM   21  C19 UNL     1      14.237 -45.319   3.801  1.00  0.00     0.028 A 
ENDBRANCH   1  10
BRANCH   8  22
HETATM   22  C13 UNL     1      14.388 -41.999   7.260  1.00  0.00     0.147 C 
BRANCH  22  23
HETATM   23  C14 UNL     1      13.001 -41.848   7.881  1.00  0.00     0.187 C 
BRANCH  23  24
HETATM   24  O1  UNL     1      12.751 -42.846   8.796  1.00  0.00    -0.388 OA
BRANCH  24  25
HETATM   25  C15 UNL     1      11.473 -42.767   9.281  1.00  0.00     0.198 C 
BRANCH  25  26
HETATM   26  C16 UNL     1      11.274 -41.532  10.120  1.00  0.00     0.297 C 
BRANCH  26  27
HETATM   27  N5  UNL     1       9.893 -41.029   9.963  1.00  0.00     0.082 N 
HETATM   28  C17 UNL     1       9.593 -40.372  11.244  1.00  0.00     0.309 C 
HETATM   29  C18 UNL     1       9.873 -39.965   8.967  1.00  0.00     0.309 C 
ENDBRANCH  26  27
ENDBRANCH  25  26
ENDBRANCH  24  25
ENDBRANCH  23  24
ENDBRANCH  22  23
ENDBRANCH   8  22
TORSDOF 7
ENDMDL
