MODEL 1
REMARK VINA RESULT: -7.400252666      0.000      0.000
REMARK  7 active torsions:
REMARK  status: ('A' for Active; 'I' for Inactive)
REMARK    1  A    between atoms: N1_2  and  C2_3 
REMARK    2  A    between atoms: N1_2  and  S1_19 
REMARK    3  A    between atoms: C2_3  and  C3_4 
REMARK    4  A    between atoms: C4_7  and  C5_8 
REMARK    5  A    between atoms: C5_8  and  C6_9 
REMARK    6  A    between atoms: C6_9  and  N3_10 
REMARK    7  A    between atoms: S1_19  and  C11_22 
ROOT
HETATM    1  C3  UNL     1      12.021 -45.007   5.959  1.00  0.00     0.095 A 
HETATM    2  N2  UNL     1      12.043 -46.328   5.631  1.00  0.00    -0.347 N 
ATOM      3  H2  UNL     1      12.422 -47.076   6.212  1.00  0.00     0.167 HD
HETATM    4  C4  UNL     1      11.491 -46.486   4.427  1.00  0.00     0.027 A 
HETATM    5  C10 UNL     1      11.121 -45.212   4.015  1.00  0.00     0.114 A 
HETATM    6  N5  UNL     1      11.451 -44.317   4.961  1.00  0.00    -0.353 N 
ATOM      7  H5  UNL     1      11.298 -43.309   4.927  1.00  0.00     0.166 HD
ENDROOT
BRANCH   1   8
HETATM    8  C2  UNL     1      12.537 -44.401   7.209  1.00  0.00     0.183 C 
BRANCH   8   9
HETATM    9  N1  UNL     1      12.832 -42.998   7.005  1.00  0.00    -0.204 NA
HETATM   10  C1  UNL     1      14.213 -42.873   6.653  1.00  0.00     0.130 C 
BRANCH   9  11
HETATM   11  S1  UNL     1      12.392 -42.141   8.420  1.00  0.00     0.243 S 
HETATM   12  O1  UNL     1      13.595 -41.381   8.944  1.00  0.00    -0.206 OA
HETATM   13  O2  UNL     1      12.026 -43.147   9.474  1.00  0.00    -0.206 OA
BRANCH  11  14
HETATM   14  C11 UNL     1      11.067 -41.059   8.180  1.00  0.00     0.074 A 
HETATM   15  C12 UNL     1      10.732 -40.662   6.907  1.00  0.00     0.025 A 
HETATM   16  C13 UNL     1       9.678 -39.795   6.657  1.00  0.00     0.002 A 
HETATM   17  C14 UNL     1       8.945 -39.318   7.706  1.00  0.00     0.000 A 
HETATM   18  C15 UNL     1       9.254 -39.698   9.001  1.00  0.00     0.002 A 
HETATM   19  C16 UNL     1      10.312 -40.564   9.221  1.00  0.00     0.025 A 
ENDBRANCH  11  14
ENDBRANCH   9  11
ENDBRANCH   8   9
ENDBRANCH   1   8
BRANCH   4  20
HETATM   20  C5  UNL     1      11.316 -47.767   3.695  1.00  0.00     0.078 C 
BRANCH  20  21
HETATM   21  C6  UNL     1      12.232 -47.739   2.493  1.00  0.00     0.135 C 
BRANCH  21  22
HETATM   22  N3  UNL     1      13.624 -47.867   2.873  1.00  0.00    -0.351 N 
HETATM   23  C7  UNL     1      14.602 -47.040   2.456  1.00  0.00     0.108 A 
HETATM   24  C8  UNL     1      15.784 -47.472   3.018  1.00  0.00     0.106 A 
HETATM   25  N4  UNL     1      15.517 -48.555   3.770  1.00  0.00    -0.361 N 
HETATM   26  C9  UNL     1      14.197 -48.781   3.670  1.00  0.00     0.182 A 
ATOM     27  H4  UNL     1      16.187 -49.099   4.312  1.00  0.00     0.166 HD
ENDBRANCH  21  22
ENDBRANCH  20  21
ENDBRANCH   4  20
TORSDOF 7
ENDMDL
MODEL 2
REMARK VINA RESULT: -7.376551077      1.983      2.848
REMARK  7 active torsions:
REMARK  status: ('A' for Active; 'I' for Inactive)
REMARK    1  A    between atoms: N1_2  and  C2_3 
REMARK    2  A    between atoms: N1_2  and  S1_19 
REMARK    3  A    between atoms: C2_3  and  C3_4 
REMARK    4  A    between atoms: C4_7  and  C5_8 
REMARK    5  A    between atoms: C5_8  and  C6_9 
REMARK    6  A    between atoms: C6_9  and  N3_10 
REMARK    7  A    between atoms: S1_19  and  C11_22 
ROOT
HETATM    1  C3  UNL     1      13.830 -44.629   6.496  1.00  0.00     0.095 A 
HETATM    2  N2  UNL     1      13.207 -44.254   5.346  1.00  0.00    -0.347 N 
ATOM      3  H2  UNL     1      12.687 -43.387   5.209  1.00  0.00     0.167 HD
HETATM    4  C4  UNL     1      13.385 -45.204   4.426  1.00  0.00     0.027 A 
HETATM    5  C10 UNL     1      14.145 -46.187   5.046  1.00  0.00     0.114 A 
HETATM    6  N5  UNL     1      14.410 -45.824   6.312  1.00  0.00    -0.353 N 
ATOM      7  H5  UNL     1      14.948 -46.353   6.999  1.00  0.00     0.166 HD
ENDROOT
BRANCH   1   8
HETATM    8  C2  UNL     1      13.876 -43.863   7.764  1.00  0.00     0.183 C 
BRANCH   8   9
HETATM    9  N1  UNL     1      13.054 -42.675   7.666  1.00  0.00    -0.204 NA
HETATM   10  C1  UNL     1      13.711 -41.612   8.361  1.00  0.00     0.130 C 
BRANCH   9  11
HETATM   11  S1  UNL     1      11.494 -43.044   8.269  1.00  0.00     0.243 S 
HETATM   12  O1  UNL     1      11.594 -44.182   9.265  1.00  0.00    -0.206 OA
HETATM   13  O2  UNL     1      10.664 -43.548   7.122  1.00  0.00    -0.206 OA
BRANCH  11  14
HETATM   14  C11 UNL     1      10.704 -41.690   8.994  1.00  0.00     0.074 A 
HETATM   15  C12 UNL     1      10.183 -40.697   8.197  1.00  0.00     0.025 A 
HETATM   16  C13 UNL     1       9.539 -39.588   8.727  1.00  0.00     0.002 A 
HETATM   17  C14 UNL     1       9.415 -39.473  10.082  1.00  0.00     0.000 A 
HETATM   18  C15 UNL     1       9.927 -40.455  10.913  1.00  0.00     0.002 A 
HETATM   19  C16 UNL     1      10.565 -41.551  10.358  1.00  0.00     0.025 A 
ENDBRANCH  11  14
ENDBRANCH   9  11
ENDBRANCH   8   9
ENDBRANCH   1   8
BRANCH   4  20
HETATM   20  C5  UNL     1      12.870 -45.194   3.033  1.00  0.00     0.078 C 
BRANCH  20  21
HETATM   21  C6  UNL     1      11.374 -45.403   3.093  1.00  0.00     0.135 C 
BRANCH  21  22
HETATM   22  N3  UNL     1      11.022 -46.804   2.995  1.00  0.00    -0.351 N 
HETATM   23  C7  UNL     1      11.229 -47.563   1.901  1.00  0.00     0.108 A 
HETATM   24  C8  UNL     1      10.769 -48.833   2.178  1.00  0.00     0.106 A 
HETATM   25  N4  UNL     1      10.286 -48.836   3.433  1.00  0.00    -0.361 N 
HETATM   26  C9  UNL     1      10.448 -47.593   3.915  1.00  0.00     0.182 A 
ATOM     27  H4  UNL     1       9.876 -49.629   3.925  1.00  0.00     0.166 HD
ENDBRANCH  21  22
ENDBRANCH  20  21
ENDBRANCH   4  20
TORSDOF 7
ENDMDL
MODEL 3
REMARK VINA RESULT: -7.300326458      1.590      2.514
REMARK  7 active torsions:
REMARK  status: ('A' for Active; 'I' for Inactive)
REMARK    1  A    between atoms: N1_2  and  C2_3 
REMARK    2  A    between atoms: N1_2  and  S1_19 
REMARK    3  A    between atoms: C2_3  and  C3_4 
REMARK    4  A    between atoms: C4_7  and  C5_8 
REMARK    5  A    between atoms: C5_8  and  C6_9 
REMARK    6  A    between atoms: C6_9  and  N3_10 
REMARK    7  A    between atoms: S1_19  and  C11_22 
ROOT
HETATM    1  C3  UNL     1      13.193 -45.113   6.571  1.00  0.00     0.095 A 
HETATM    2  N2  UNL     1      11.971 -45.395   6.041  1.00  0.00    -0.347 N 
ATOM      3  H2  UNL     1      11.091 -44.959   6.318  1.00  0.00     0.167 HD
HETATM    4  C4  UNL     1      12.110 -46.332   5.102  1.00  0.00     0.027 A 
HETATM    5  C10 UNL     1      13.467 -46.625   5.064  1.00  0.00     0.114 A 
HETATM    6  N5  UNL     1      14.118 -45.873   5.968  1.00  0.00    -0.353 N 
ATOM      7  H5  UNL     1      15.121 -45.880   6.158  1.00  0.00     0.166 HD
ENDROOT
BRANCH   1   8
HETATM    8  C2  UNL     1      13.484 -44.133   7.643  1.00  0.00     0.183 C 
BRANCH   8   9
HETATM    9  N1  UNL     1      13.139 -42.795   7.211  1.00  0.00    -0.204 NA
HETATM   10  C1  UNL     1      14.299 -42.195   6.626  1.00  0.00     0.130 C 
BRANCH   9  11
HETATM   11  S1  UNL     1      12.513 -41.937   8.554  1.00  0.00     0.243 S 
HETATM   12  O1  UNL     1      13.606 -41.080   9.160  1.00  0.00    -0.206 OA
HETATM   13  O2  UNL     1      12.122 -42.941   9.602  1.00  0.00    -0.206 OA
BRANCH  11  14
HETATM   14  C11 UNL     1      11.143 -40.960   8.163  1.00  0.00     0.074 A 
HETATM   15  C12 UNL     1      10.315 -40.512   9.165  1.00  0.00     0.025 A 
HETATM   16  C13 UNL     1       9.202 -39.725   8.906  1.00  0.00     0.002 A 
HETATM   17  C14 UNL     1       8.915 -39.380   7.617  1.00  0.00     0.000 A 
HETATM   18  C15 UNL     1       9.727 -39.812   6.583  1.00  0.00     0.002 A 
HETATM   19  C16 UNL     1      10.832 -40.597   6.870  1.00  0.00     0.025 A 
ENDBRANCH  11  14
ENDBRANCH   9  11
ENDBRANCH   8   9
ENDBRANCH   1   8
BRANCH   4  20
HETATM   20  C5  UNL     1      11.027 -46.925   4.277  1.00  0.00     0.078 C 
BRANCH  20  21
HETATM   21  C6  UNL     1      10.987 -46.181   2.963  1.00  0.00     0.135 C 
BRANCH  21  22
HETATM   22  N3  UNL     1      11.237 -47.059   1.838  1.00  0.00    -0.351 N 
HETATM   23  C7  UNL     1      10.983 -48.382   1.839  1.00  0.00     0.108 A 
HETATM   24  C8  UNL     1      11.347 -48.879   0.606  1.00  0.00     0.106 A 
HETATM   25  N4  UNL     1      11.818 -47.858  -0.132  1.00  0.00    -0.361 N 
HETATM   26  C9  UNL     1      11.744 -46.758   0.634  1.00  0.00     0.182 A 
ATOM     27  H4  UNL     1      12.165 -47.910  -1.090  1.00  0.00     0.166 HD
ENDBRANCH  21  22
ENDBRANCH  20  21
ENDBRANCH   4  20
TORSDOF 7
ENDMDL
MODEL 4
REMARK VINA RESULT: -7.273338573      4.121      9.451
REMARK  7 active torsions:
REMARK  status: ('A' for Active; 'I' for Inactive)
REMARK    1  A    between atoms: N1_2  and  C2_3 
REMARK    2  A    between atoms: N1_2  and  S1_19 
REMARK    3  A    between atoms: C2_3  and  C3_4 
REMARK    4  A    between atoms: C4_7  and  C5_8 
REMARK    5  A    between atoms: C5_8  and  C6_9 
REMARK    6  A    between atoms: C6_9  and  N3_10 
REMARK    7  A    between atoms: S1_19  and  C11_22 
ROOT
HETATM    1  C3  UNL     1      11.041 -41.664   9.176  1.00  0.00     0.095 A 
HETATM    2  N2  UNL     1       9.958 -41.563   9.993  1.00  0.00    -0.347 N 
ATOM      3  H2  UNL     1       9.372 -42.340  10.299  1.00  0.00     0.167 HD
HETATM    4  C4  UNL     1       9.785 -40.284  10.328  1.00  0.00     0.027 A 
HETATM    5  C10 UNL     1      10.803 -39.589   9.689  1.00  0.00     0.114 A 
HETATM    6  N5  UNL     1      11.565 -40.445   8.987  1.00  0.00    -0.353 N 
ATOM      7  H5  UNL     1      12.381 -40.212   8.421  1.00  0.00     0.166 HD
ENDROOT
BRANCH   1   8
HETATM    8  C2  UNL     1      11.578 -42.908   8.574  1.00  0.00     0.183 C 
BRANCH   8   9
HETATM    9  N1  UNL     1      11.989 -42.670   7.207  1.00  0.00    -0.204 NA
HETATM   10  C1  UNL     1      11.253 -43.552   6.353  1.00  0.00     0.130 C 
BRANCH   9  11
HETATM   11  S1  UNL     1      13.688 -42.863   7.109  1.00  0.00     0.243 S 
HETATM   12  O1  UNL     1      14.083 -44.183   7.740  1.00  0.00    -0.206 OA
HETATM   13  O2  UNL     1      14.323 -41.782   7.939  1.00  0.00    -0.206 OA
BRANCH  11  14
HETATM   14  C11 UNL     1      14.295 -42.774   5.495  1.00  0.00     0.074 A 
HETATM   15  C12 UNL     1      14.349 -43.910   4.722  1.00  0.00     0.025 A 
HETATM   16  C13 UNL     1      14.827 -43.895   3.420  1.00  0.00     0.002 A 
HETATM   17  C14 UNL     1      15.259 -42.716   2.882  1.00  0.00     0.000 A 
HETATM   18  C15 UNL     1      15.218 -41.553   3.631  1.00  0.00     0.002 A 
HETATM   19  C16 UNL     1      14.735 -41.597   4.929  1.00  0.00     0.025 A 
ENDBRANCH  11  14
ENDBRANCH   9  11
ENDBRANCH   8   9
ENDBRANCH   1   8
BRANCH   4  20
HETATM   20  C5  UNL     1       8.718 -39.736  11.204  1.00  0.00     0.078 C 
BRANCH  20  21
HETATM   21  C6  UNL     1       8.958 -40.255  12.603  1.00  0.00     0.135 C 
BRANCH  21  22
HETATM   22  N3  UNL     1       8.756 -39.226  13.602  1.00  0.00    -0.351 N 
HETATM   23  C7  UNL     1       8.162 -38.041  13.361  1.00  0.00     0.108 A 
HETATM   24  C8  UNL     1       8.150 -37.330  14.541  1.00  0.00     0.106 A 
HETATM   25  N4  UNL     1       8.734 -38.085  15.488  1.00  0.00    -0.361 N 
HETATM   26  C9  UNL     1       9.097 -39.235  14.899  1.00  0.00     0.182 A 
ATOM     27  H4  UNL     1       8.875 -37.832  16.466  1.00  0.00     0.166 HD
ENDBRANCH  21  22
ENDBRANCH  20  21
ENDBRANCH   4  20
TORSDOF 7
ENDMDL
MODEL 5
REMARK VINA RESULT: -7.265665341      1.668      2.910
REMARK  7 active torsions:
REMARK  status: ('A' for Active; 'I' for Inactive)
REMARK    1  A    between atoms: N1_2  and  C2_3 
REMARK    2  A    between atoms: N1_2  and  S1_19 
REMARK    3  A    between atoms: C2_3  and  C3_4 
REMARK    4  A    between atoms: C4_7  and  C5_8 
REMARK    5  A    between atoms: C5_8  and  C6_9 
REMARK    6  A    between atoms: C6_9  and  N3_10 
REMARK    7  A    between atoms: S1_19  and  C11_22 
ROOT
HETATM    1  C3  UNL     1      13.317 -45.112   6.576  1.00  0.00     0.095 A 
HETATM    2  N2  UNL     1      12.119 -45.528   6.081  1.00  0.00    -0.347 N 
ATOM      3  H2  UNL     1      11.204 -45.204   6.395  1.00  0.00     0.167 HD
HETATM    4  C4  UNL     1      12.335 -46.427   5.120  1.00  0.00     0.027 A 
HETATM    5  C10 UNL     1      13.715 -46.558   5.033  1.00  0.00     0.114 A 
HETATM    6  N5  UNL     1      14.304 -45.748   5.929  1.00  0.00    -0.353 N 
ATOM      7  H5  UNL     1      15.306 -45.639   6.086  1.00  0.00     0.166 HD
ENDROOT
BRANCH   1   8
HETATM    8  C2  UNL     1      13.528 -44.120   7.657  1.00  0.00     0.183 C 
BRANCH   8   9
HETATM    9  N1  UNL     1      13.155 -42.796   7.207  1.00  0.00    -0.204 NA
HETATM   10  C1  UNL     1      14.304 -42.179   6.617  1.00  0.00     0.130 C 
BRANCH   9  11
HETATM   11  S1  UNL     1      12.506 -41.934   8.536  1.00  0.00     0.243 S 
HETATM   12  O1  UNL     1      13.591 -41.085   9.166  1.00  0.00    -0.206 OA
HETATM   13  O2  UNL     1      12.086 -42.937   9.575  1.00  0.00    -0.206 OA
BRANCH  11  14
HETATM   14  C11 UNL     1      11.151 -40.948   8.116  1.00  0.00     0.074 A 
HETATM   15  C12 UNL     1      10.308 -40.491   9.101  1.00  0.00     0.025 A 
HETATM   16  C13 UNL     1       9.206 -39.696   8.819  1.00  0.00     0.002 A 
HETATM   17  C14 UNL     1       8.946 -39.354   7.523  1.00  0.00     0.000 A 
HETATM   18  C15 UNL     1       9.774 -39.796   6.506  1.00  0.00     0.002 A 
HETATM   19  C16 UNL     1      10.867 -40.588   6.816  1.00  0.00     0.025 A 
ENDBRANCH  11  14
ENDBRANCH   9  11
ENDBRANCH   8   9
ENDBRANCH   1   8
BRANCH   4  20
HETATM   20  C5  UNL     1      11.301 -47.133   4.321  1.00  0.00     0.078 C 
BRANCH  20  21
HETATM   21  C6  UNL     1      11.710 -47.057   2.868  1.00  0.00     0.135 C 
BRANCH  21  22
HETATM   22  N3  UNL     1      11.101 -45.929   2.194  1.00  0.00    -0.351 N 
HETATM   23  C7  UNL     1      11.707 -45.200   1.237  1.00  0.00     0.108 A 
HETATM   24  C8  UNL     1      10.826 -44.219   0.835  1.00  0.00     0.106 A 
HETATM   25  N4  UNL     1       9.695 -44.358   1.549  1.00  0.00    -0.361 N 
HETATM   26  C9  UNL     1       9.880 -45.403   2.371  1.00  0.00     0.182 A 
ATOM     27  H4  UNL     1       8.858 -43.780   1.480  1.00  0.00     0.166 HD
ENDBRANCH  21  22
ENDBRANCH  20  21
ENDBRANCH   4  20
TORSDOF 7
ENDMDL
