MODEL 1
REMARK VINA RESULT: -7.315926666      0.000      0.000
REMARK  7 active torsions:
REMARK  status: ('A' for Active; 'I' for Inactive)
REMARK    1  A    between atoms: S1_2  and  N1_4 
REMARK    2  A    between atoms: S1_2  and  C13_21 
REMARK    3  A    between atoms: N1_4  and  C1_6 
REMARK    4  A    between atoms: C1_6  and  C2_7 
REMARK    5  A    between atoms: C1_6  and  C9_14 
REMARK    6  A    between atoms: C2_7  and  C3_8 
REMARK    7  A    between atoms: C9_14  and  N2_15 
ROOT
HETATM    1  C1  UNL     1      12.589 -41.253   7.737  1.00  0.00     0.115 C 
ENDROOT
BRANCH   1   2
HETATM    2  N1  UNL     1      13.016 -42.525   8.198  1.00  0.00    -0.308 N 
ATOM      3  H1  UNL     1      13.936 -42.613   8.632  1.00  0.00     0.172 HD
BRANCH   2   4
HETATM    4  S1  UNL     1      12.071 -43.859   8.052  1.00  0.00     0.274 S 
HETATM    5  O1  UNL     1      10.662 -43.427   7.633  1.00  0.00    -0.199 OA
HETATM    6  O2  UNL     1      11.857 -44.696   9.272  1.00  0.00    -0.199 OA
BRANCH   4   7
HETATM    7  C13 UNL     1      12.621 -44.924   6.794  1.00  0.00     0.148 A 
HETATM    8  C14 UNL     1      13.968 -45.213   6.614  1.00  0.00     0.043 A 
HETATM    9  C15 UNL     1      14.393 -46.059   5.620  1.00  0.00     0.004 A 
HETATM   10  C16 UNL     1      13.472 -46.637   4.780  1.00  0.00     0.017 A 
HETATM   11  C17 UNL     1      12.146 -46.345   4.968  1.00  0.00     0.089 A 
HETATM   12  N4  UNL     1      11.788 -45.524   5.940  1.00  0.00    -0.355 N 
ATOM     13  H4  UNL     1      10.792 -45.332   6.046  1.00  0.00     0.166 HD
ENDBRANCH   4   7
ENDBRANCH   2   4
ENDBRANCH   1   2
BRANCH   1  14
HETATM   14  C2  UNL     1      13.612 -40.695   6.722  1.00  0.00     0.066 C 
BRANCH  14  15
HETATM   15  C3  UNL     1      13.680 -41.567   5.542  1.00  0.00    -0.056 A 
HETATM   16  C4  UNL     1      14.918 -42.026   5.073  1.00  0.00     0.007 A 
HETATM   17  C5  UNL     1      15.051 -42.813   3.955  1.00  0.00     0.001 A 
HETATM   18  C6  UNL     1      13.945 -43.193   3.230  1.00  0.00     0.000 A 
HETATM   19  C7  UNL     1      12.710 -42.763   3.658  1.00  0.00     0.001 A 
HETATM   20  C8  UNL     1      12.591 -41.975   4.781  1.00  0.00     0.007 A 
ENDBRANCH  14  15
ENDBRANCH   1  14
BRANCH   1  21
HETATM   21  C9  UNL     1      12.384 -40.283   8.828  1.00  0.00     0.155 C 
BRANCH  21  22
HETATM   22  N2  UNL     1      11.130 -40.309   9.533  1.00  0.00    -0.350 N 
HETATM   23  C10 UNL     1      10.002 -39.630   9.203  1.00  0.00     0.108 A 
HETATM   24  C11 UNL     1       9.005 -39.928  10.111  1.00  0.00     0.106 A 
HETATM   25  N3  UNL     1       9.554 -40.803  11.000  1.00  0.00    -0.361 N 
HETATM   26  C12 UNL     1      10.828 -41.017  10.635  1.00  0.00     0.182 A 
ATOM     27  H3  UNL     1       9.081 -41.221  11.801  1.00  0.00     0.166 HD
ENDBRANCH  21  22
ENDBRANCH   1  21
TORSDOF 7
ENDMDL
MODEL 2
REMARK VINA RESULT: -7.262725067      0.476      1.227
REMARK  7 active torsions:
REMARK  status: ('A' for Active; 'I' for Inactive)
REMARK    1  A    between atoms: S1_2  and  N1_4 
REMARK    2  A    between atoms: S1_2  and  C13_21 
REMARK    3  A    between atoms: N1_4  and  C1_6 
REMARK    4  A    between atoms: C1_6  and  C2_7 
REMARK    5  A    between atoms: C1_6  and  C9_14 
REMARK    6  A    between atoms: C2_7  and  C3_8 
REMARK    7  A    between atoms: C9_14  and  N2_15 
ROOT
HETATM    1  C1  UNL     1      12.543 -41.247   7.746  1.00  0.00     0.115 C 
ENDROOT
BRANCH   1   2
HETATM    2  N1  UNL     1      12.985 -42.516   8.202  1.00  0.00    -0.308 N 
ATOM      3  H1  UNL     1      13.906 -42.595   8.634  1.00  0.00     0.172 HD
BRANCH   2   4
HETATM    4  S1  UNL     1      12.054 -43.860   8.053  1.00  0.00     0.274 S 
HETATM    5  O1  UNL     1      10.641 -43.442   7.635  1.00  0.00    -0.199 OA
HETATM    6  O2  UNL     1      11.850 -44.702   9.272  1.00  0.00    -0.199 OA
BRANCH   4   7
HETATM    7  C13 UNL     1      12.616 -44.917   6.793  1.00  0.00     0.148 A 
HETATM    8  C14 UNL     1      13.959 -45.236   6.648  1.00  0.00     0.043 A 
HETATM    9  C15 UNL     1      14.394 -46.076   5.652  1.00  0.00     0.004 A 
HETATM   10  C16 UNL     1      13.485 -46.615   4.775  1.00  0.00     0.017 A 
HETATM   11  C17 UNL     1      12.162 -46.293   4.928  1.00  0.00     0.089 A 
HETATM   12  N4  UNL     1      11.795 -45.480   5.904  1.00  0.00    -0.355 N 
ATOM     13  H4  UNL     1      10.801 -45.265   5.984  1.00  0.00     0.166 HD
ENDBRANCH   4   7
ENDBRANCH   2   4
ENDBRANCH   1   2
BRANCH   1  14
HETATM   14  C2  UNL     1      13.595 -40.640   6.793  1.00  0.00     0.066 C 
BRANCH  14  15
HETATM   15  C3  UNL     1      13.740 -41.479   5.597  1.00  0.00    -0.056 A 
HETATM   16  C4  UNL     1      12.613 -41.846   4.850  1.00  0.00     0.007 A 
HETATM   17  C5  UNL     1      12.678 -42.658   3.743  1.00  0.00     0.001 A 
HETATM   18  C6  UNL     1      13.884 -43.158   3.312  1.00  0.00     0.000 A 
HETATM   19  C7  UNL     1      15.016 -42.822   4.018  1.00  0.00     0.001 A 
HETATM   20  C8  UNL     1      14.937 -42.007   5.126  1.00  0.00     0.007 A 
ENDBRANCH  14  15
ENDBRANCH   1  14
BRANCH   1  21
HETATM   21  C9  UNL     1      12.257 -40.307   8.844  1.00  0.00     0.155 C 
BRANCH  21  22
HETATM   22  N2  UNL     1      10.906 -40.220   9.330  1.00  0.00    -0.350 N 
HETATM   23  C10 UNL     1      10.474 -40.527  10.580  1.00  0.00     0.108 A 
HETATM   24  C11 UNL     1       9.115 -40.297  10.666  1.00  0.00     0.106 A 
HETATM   25  N3  UNL     1       8.732 -39.845   9.438  1.00  0.00    -0.361 N 
HETATM   26  C12 UNL     1       9.820 -39.808   8.654  1.00  0.00     0.182 A 
ATOM     27  H3  UNL     1       7.784 -39.583   9.164  1.00  0.00     0.166 HD
ENDBRANCH  21  22
ENDBRANCH   1  21
TORSDOF 7
ENDMDL
MODEL 3
REMARK VINA RESULT: -6.928469782      1.726      6.197
REMARK  7 active torsions:
REMARK  status: ('A' for Active; 'I' for Inactive)
REMARK    1  A    between atoms: S1_2  and  N1_4 
REMARK    2  A    between atoms: S1_2  and  C13_21 
REMARK    3  A    between atoms: N1_4  and  C1_6 
REMARK    4  A    between atoms: C1_6  and  C2_7 
REMARK    5  A    between atoms: C1_6  and  C9_14 
REMARK    6  A    between atoms: C2_7  and  C3_8 
REMARK    7  A    between atoms: C9_14  and  N2_15 
ROOT
HETATM    1  C1  UNL     1      12.565 -45.010   5.452  1.00  0.00     0.115 C 
ENDROOT
BRANCH   1   2
HETATM    2  N1  UNL     1      11.730 -44.680   6.551  1.00  0.00    -0.308 N 
ATOM      3  H1  UNL     1      10.718 -44.655   6.416  1.00  0.00     0.172 HD
BRANCH   2   4
HETATM    4  S1  UNL     1      12.347 -44.338   8.033  1.00  0.00     0.274 S 
HETATM    5  O1  UNL     1      13.851 -44.632   8.025  1.00  0.00    -0.199 OA
HETATM    6  O2  UNL     1      11.821 -45.111   9.199  1.00  0.00    -0.199 OA
BRANCH   4   7
HETATM    7  C13 UNL     1      12.207 -42.653   8.434  1.00  0.00     0.148 A 
HETATM    8  C14 UNL     1      13.321 -41.867   8.697  1.00  0.00     0.043 A 
HETATM    9  C15 UNL     1      13.201 -40.535   9.009  1.00  0.00     0.004 A 
HETATM   10  C16 UNL     1      11.955 -39.960   9.064  1.00  0.00     0.017 A 
HETATM   11  C17 UNL     1      10.863 -40.745   8.802  1.00  0.00     0.089 A 
HETATM   12  N4  UNL     1      11.032 -42.023   8.506  1.00  0.00    -0.355 N 
ATOM     13  H4  UNL     1      10.194 -42.574   8.317  1.00  0.00     0.166 HD
ENDBRANCH   4   7
ENDBRANCH   2   4
ENDBRANCH   1   2
BRANCH   1  14
HETATM   14  C2  UNL     1      12.411 -43.946   4.342  1.00  0.00     0.066 C 
BRANCH  14  15
HETATM   15  C3  UNL     1      13.086 -42.703   4.735  1.00  0.00    -0.056 A 
HETATM   16  C4  UNL     1      12.350 -41.525   4.915  1.00  0.00     0.007 A 
HETATM   17  C5  UNL     1      12.927 -40.323   5.248  1.00  0.00     0.001 A 
HETATM   18  C6  UNL     1      14.288 -40.224   5.423  1.00  0.00     0.000 A 
HETATM   19  C7  UNL     1      15.048 -41.359   5.255  1.00  0.00     0.001 A 
HETATM   20  C8  UNL     1      14.456 -42.557   4.922  1.00  0.00     0.007 A 
ENDBRANCH  14  15
ENDBRANCH   1  14
BRANCH   1  21
HETATM   21  C9  UNL     1      12.294 -46.350   4.903  1.00  0.00     0.155 C 
BRANCH  21  22
HETATM   22  N2  UNL     1      13.416 -47.162   4.509  1.00  0.00    -0.350 N 
HETATM   23  C10 UNL     1      13.368 -48.320   3.803  1.00  0.00     0.108 A 
HETATM   24  C11 UNL     1      14.651 -48.791   3.607  1.00  0.00     0.106 A 
HETATM   25  N3  UNL     1      15.478 -47.892   4.210  1.00  0.00    -0.361 N 
HETATM   26  C12 UNL     1      14.717 -46.925   4.744  1.00  0.00     0.182 A 
ATOM     27  H3  UNL     1      16.497 -47.946   4.249  1.00  0.00     0.166 HD
ENDBRANCH  21  22
ENDBRANCH   1  21
TORSDOF 7
ENDMDL
MODEL 4
REMARK VINA RESULT: -6.822234158      1.623      5.968
REMARK  7 active torsions:
REMARK  status: ('A' for Active; 'I' for Inactive)
REMARK    1  A    between atoms: S1_2  and  N1_4 
REMARK    2  A    between atoms: S1_2  and  C13_21 
REMARK    3  A    between atoms: N1_4  and  C1_6 
REMARK    4  A    between atoms: C1_6  and  C2_7 
REMARK    5  A    between atoms: C1_6  and  C9_14 
REMARK    6  A    between atoms: C2_7  and  C3_8 
REMARK    7  A    between atoms: C9_14  and  N2_15 
ROOT
HETATM    1  C1  UNL     1      12.408 -44.574   6.085  1.00  0.00     0.115 C 
ENDROOT
BRANCH   1   2
HETATM    2  N1  UNL     1      11.920 -43.362   6.639  1.00  0.00    -0.308 N 
ATOM      3  H1  UNL     1      11.557 -42.642   6.014  1.00  0.00     0.172 HD
BRANCH   2   4
HETATM    4  S1  UNL     1      11.922 -43.089   8.257  1.00  0.00     0.274 S 
HETATM    5  O1  UNL     1      13.330 -42.665   8.688  1.00  0.00    -0.199 OA
HETATM    6  O2  UNL     1      11.587 -44.236   9.156  1.00  0.00    -0.199 OA
BRANCH   4   7
HETATM    7  C13 UNL     1      10.884 -41.770   8.706  1.00  0.00     0.148 A 
HETATM    8  C14 UNL     1      10.493 -40.800   7.792  1.00  0.00     0.043 A 
HETATM    9  C15 UNL     1       9.669 -39.764   8.155  1.00  0.00     0.004 A 
HETATM   10  C16 UNL     1       9.216 -39.677   9.449  1.00  0.00     0.017 A 
HETATM   11  C17 UNL     1       9.608 -40.640  10.342  1.00  0.00     0.089 A 
HETATM   12  N4  UNL     1      10.404 -41.618   9.943  1.00  0.00    -0.355 N 
ATOM     13  H4  UNL     1      10.672 -42.314  10.638  1.00  0.00     0.166 HD
ENDBRANCH   4   7
ENDBRANCH   2   4
ENDBRANCH   1   2
BRANCH   1  14
HETATM   14  C2  UNL     1      13.952 -44.543   6.041  1.00  0.00     0.066 C 
BRANCH  14  15
HETATM   15  C3  UNL     1      14.410 -43.518   5.094  1.00  0.00    -0.056 A 
HETATM   16  C4  UNL     1      14.692 -43.859   3.765  1.00  0.00     0.007 A 
HETATM   17  C5  UNL     1      15.158 -42.955   2.841  1.00  0.00     0.001 A 
HETATM   18  C6  UNL     1      15.372 -41.642   3.192  1.00  0.00     0.000 A 
HETATM   19  C7  UNL     1      15.106 -41.266   4.489  1.00  0.00     0.001 A 
HETATM   20  C8  UNL     1      14.640 -42.183   5.405  1.00  0.00     0.007 A 
ENDBRANCH  14  15
ENDBRANCH   1  14
BRANCH   1  21
HETATM   21  C9  UNL     1      11.873 -44.851   4.741  1.00  0.00     0.155 C 
BRANCH  21  22
HETATM   22  N2  UNL     1      11.567 -46.216   4.400  1.00  0.00    -0.350 N 
HETATM   23  C10 UNL     1      10.679 -46.636   3.463  1.00  0.00     0.108 A 
HETATM   24  C11 UNL     1      10.680 -48.016   3.416  1.00  0.00     0.106 A 
HETATM   25  N3  UNL     1      11.587 -48.424   4.347  1.00  0.00    -0.361 N 
HETATM   26  C12 UNL     1      12.106 -47.329   4.925  1.00  0.00     0.182 A 
ATOM     27  H3  UNL     1      11.829 -49.390   4.567  1.00  0.00     0.166 HD
ENDBRANCH  21  22
ENDBRANCH   1  21
TORSDOF 7
ENDMDL
MODEL 5
REMARK VINA RESULT: -6.784400446      2.446      6.334
REMARK  7 active torsions:
REMARK  status: ('A' for Active; 'I' for Inactive)
REMARK    1  A    between atoms: S1_2  and  N1_4 
REMARK    2  A    between atoms: S1_2  and  C13_21 
REMARK    3  A    between atoms: N1_4  and  C1_6 
REMARK    4  A    between atoms: C1_6  and  C2_7 
REMARK    5  A    between atoms: C1_6  and  C9_14 
REMARK    6  A    between atoms: C2_7  and  C3_8 
REMARK    7  A    between atoms: C9_14  and  N2_15 
ROOT
HETATM    1  C1  UNL     1      12.645 -45.782   5.246  1.00  0.00     0.115 C 
ENDROOT
BRANCH   1   2
HETATM    2  N1  UNL     1      11.908 -45.483   6.422  1.00  0.00    -0.308 N 
ATOM      3  H1  UNL     1      10.982 -45.893   6.545  1.00  0.00     0.172 HD
BRANCH   2   4
HETATM    4  S1  UNL     1      12.507 -44.497   7.589  1.00  0.00     0.274 S 
HETATM    5  O1  UNL     1      13.946 -44.917   7.906  1.00  0.00    -0.199 OA
HETATM    6  O2  UNL     1      11.819 -44.494   8.916  1.00  0.00    -0.199 OA
BRANCH   4   7
HETATM    7  C13 UNL     1      12.613 -42.843   7.067  1.00  0.00     0.148 A 
HETATM    8  C14 UNL     1      11.495 -42.134   6.647  1.00  0.00     0.043 A 
HETATM    9  C15 UNL     1      11.587 -40.826   6.240  1.00  0.00     0.004 A 
HETATM   10  C16 UNL     1      12.808 -40.198   6.244  1.00  0.00     0.017 A 
HETATM   11  C17 UNL     1      13.904 -40.908   6.661  1.00  0.00     0.089 A 
HETATM   12  N4  UNL     1      13.762 -42.165   7.043  1.00  0.00    -0.355 N 
ATOM     13  H4  UNL     1      14.602 -42.659   7.346  1.00  0.00     0.166 HD
ENDBRANCH   4   7
ENDBRANCH   2   4
ENDBRANCH   1   2
BRANCH   1  14
HETATM   14  C2  UNL     1      12.072 -44.983   4.055  1.00  0.00     0.066 C 
BRANCH  14  15
HETATM   15  C3  UNL     1      12.979 -43.884   3.700  1.00  0.00    -0.056 A 
HETATM   16  C4  UNL     1      14.338 -43.954   4.032  1.00  0.00     0.007 A 
HETATM   17  C5  UNL     1      15.230 -42.944   3.760  1.00  0.00     0.001 A 
HETATM   18  C6  UNL     1      14.813 -41.792   3.133  1.00  0.00     0.000 A 
HETATM   19  C7  UNL     1      13.485 -41.684   2.790  1.00  0.00     0.001 A 
HETATM   20  C8  UNL     1      12.603 -42.704   3.069  1.00  0.00     0.007 A 
ENDBRANCH  14  15
ENDBRANCH   1  14
BRANCH   1  21
HETATM   21  C9  UNL     1      12.661 -47.220   4.925  1.00  0.00     0.155 C 
BRANCH  21  22
HETATM   22  N2  UNL     1      13.740 -47.724   4.117  1.00  0.00    -0.350 N 
HETATM   23  C10 UNL     1      13.626 -48.443   2.972  1.00  0.00     0.108 A 
HETATM   24  C11 UNL     1      14.885 -48.725   2.480  1.00  0.00     0.106 A 
HETATM   25  N3  UNL     1      15.766 -48.163   3.354  1.00  0.00    -0.361 N 
HETATM   26  C12 UNL     1      15.058 -47.569   4.327  1.00  0.00     0.182 A 
ATOM     27  H3  UNL     1      16.783 -48.189   3.281  1.00  0.00     0.166 HD
ENDBRANCH  21  22
ENDBRANCH   1  21
TORSDOF 7
ENDMDL
