MODEL 1
REMARK VINA RESULT: -6.380874040      0.000      0.000
REMARK  9 active torsions:
REMARK  status: ('A' for Active; 'I' for Inactive)
REMARK    1  A    between atoms: C2_2  and  N1_3 
REMARK    2  A    between atoms: N1_3  and  C3_5 
REMARK    3  A    between atoms: C7_11  and  N3_12 
REMARK    4  A    between atoms: C10_15  and  N4_16 
REMARK    5  A    between atoms: N4_16  and  C11_18 
REMARK    6  A    between atoms: C11_18  and  C12_19 
REMARK    7  A    between atoms: C12_19  and  O1_20 
REMARK    8  A    between atoms: O1_20  and  C13_21 
REMARK    9  A    between atoms: C13_21  and  C14_22 
ROOT
HETATM    1  C3  UNL     1      11.978 -44.004   6.393  1.00  0.00     0.679 C 
HETATM    2  N2  UNL     1      12.842 -43.059   5.982  1.00  0.00    -0.196 N 
ATOM      3  H2  UNL     1      12.590 -42.110   6.258  1.00  0.00     0.184 HD
HETATM    4  C4  UNL     1      13.983 -43.143   5.270  1.00  0.00     0.025 C 
HETATM    5  C5  UNL     1      14.741 -41.885   5.047  1.00  0.00     0.068 C 
HETATM    6  C6  UNL     1      14.553 -44.277   4.707  1.00  0.00     0.058 C 
HETATM    7  C7  UNL     1      13.952 -45.530   4.561  1.00  0.00     0.076 C 
HETATM    8  C10 UNL     1      12.728 -45.938   5.077  1.00  0.00     0.143 C 
HETATM    9  N5  UNL     1      12.000 -45.293   6.015  1.00  0.00    -0.175 N 
ATOM     10  H5  UNL     1      11.351 -45.892   6.526  1.00  0.00     0.186 HD
ENDROOT
BRANCH   8  11
HETATM   11  N4  UNL     1      12.310 -47.033   4.574  1.00  0.00    -0.372 N 
ATOM     12  H4  UNL     1      12.975 -47.807   4.541  1.00  0.00     0.161 HD
BRANCH  11  13
HETATM   13  C11 UNL     1      10.993 -47.288   4.050  1.00  0.00     0.147 C 
BRANCH  13  14
HETATM   14  C12 UNL     1      11.125 -47.384   2.539  1.00  0.00     0.187 C 
BRANCH  14  15
HETATM   15  O1  UNL     1      10.310 -46.520   1.861  1.00  0.00    -0.385 OA
BRANCH  15  16
HETATM   16  C13 UNL     1      10.298 -45.221   2.283  1.00  0.00     0.206 C 
BRANCH  16  17
HETATM   17  C14 UNL     1      11.117 -44.277   1.526  1.00  0.00    -0.035 A 
HETATM   18  C15 UNL     1      10.964 -44.006   0.181  1.00  0.00     0.010 A 
HETATM   19  C16 UNL     1      11.787 -43.099  -0.460  1.00  0.00     0.007 A 
HETATM   20  C17 UNL     1      12.774 -42.446   0.219  1.00  0.00    -0.062 A 
HETATM   21  C18 UNL     1      13.637 -41.483  -0.499  1.00  0.00     0.048 C 
HETATM   22  C19 UNL     1      12.962 -42.690   1.575  1.00  0.00     0.007 A 
HETATM   23  C20 UNL     1      12.131 -43.597   2.193  1.00  0.00     0.010 A 
ENDBRANCH  16  17
ENDBRANCH  15  16
ENDBRANCH  14  15
ENDBRANCH  13  14
ENDBRANCH  11  13
ENDBRANCH   8  11
BRANCH   7  24
HETATM   24  N3  UNL     1      14.629 -46.518   3.814  1.00  0.00    -0.387 N 
HETATM   25  C8  UNL     1      15.267 -47.680   4.378  1.00  0.00     0.149 C 
HETATM   26  C9  UNL     1      14.691 -46.361   2.380  1.00  0.00     0.149 C 
ENDBRANCH   7  24
BRANCH   1  27
HETATM   27  N1  UNL     1      11.036 -43.661   7.226  1.00  0.00    -0.226 N 
ATOM     28  H1  UNL     1      10.268 -44.314   7.383  1.00  0.00     0.177 HD
BRANCH  27  29
HETATM   29  C2  UNL     1      11.021 -42.421   7.931  1.00  0.00     0.133 C 
HETATM   30  C1  UNL     1      11.556 -42.646   9.338  1.00  0.00     0.027 C 
ENDBRANCH  27  29
ENDBRANCH   1  27
TORSDOF 9
ENDMDL
MODEL 2
REMARK VINA RESULT: -6.343125225      2.591      6.918
REMARK  9 active torsions:
REMARK  status: ('A' for Active; 'I' for Inactive)
REMARK    1  A    between atoms: C2_2  and  N1_3 
REMARK    2  A    between atoms: N1_3  and  C3_5 
REMARK    3  A    between atoms: C7_11  and  N3_12 
REMARK    4  A    between atoms: C10_15  and  N4_16 
REMARK    5  A    between atoms: N4_16  and  C11_18 
REMARK    6  A    between atoms: C11_18  and  C12_19 
REMARK    7  A    between atoms: C12_19  and  O1_20 
REMARK    8  A    between atoms: O1_20  and  C13_21 
REMARK    9  A    between atoms: C13_21  and  C14_22 
ROOT
HETATM    1  C3  UNL     1      11.084 -45.037   2.101  1.00  0.00     0.679 C 
HETATM    2  N2  UNL     1      10.637 -46.247   2.485  1.00  0.00    -0.196 N 
ATOM      3  H2  UNL     1       9.988 -46.682   1.829  1.00  0.00     0.184 HD
HETATM    4  C4  UNL     1      10.895 -46.985   3.582  1.00  0.00     0.025 C 
HETATM    5  C5  UNL     1      10.272 -48.332   3.656  1.00  0.00     0.068 C 
HETATM    6  C6  UNL     1      11.684 -46.644   4.672  1.00  0.00     0.058 C 
HETATM    7  C7  UNL     1      12.191 -45.376   4.972  1.00  0.00     0.076 C 
HETATM    8  C10 UNL     1      12.137 -44.241   4.173  1.00  0.00     0.143 C 
HETATM    9  N5  UNL     1      11.806 -44.199   2.864  1.00  0.00    -0.175 N 
ATOM     10  H5  UNL     1      12.167 -43.385   2.367  1.00  0.00     0.186 HD
ENDROOT
BRANCH   8  11
HETATM   11  N4  UNL     1      12.441 -43.171   4.798  1.00  0.00    -0.372 N 
ATOM     12  H4  UNL     1      12.030 -43.048   5.723  1.00  0.00     0.161 HD
BRANCH  11  13
HETATM   13  C11 UNL     1      13.306 -42.121   4.328  1.00  0.00     0.147 C 
BRANCH  13  14
HETATM   14  C12 UNL     1      14.364 -41.901   5.395  1.00  0.00     0.187 C 
BRANCH  14  15
HETATM   15  O1  UNL     1      14.017 -40.963   6.328  1.00  0.00    -0.385 OA
BRANCH  15  16
HETATM   16  C13 UNL     1      13.835 -41.402   7.609  1.00  0.00     0.206 C 
BRANCH  16  17
HETATM   17  C14 UNL     1      12.569 -41.051   8.249  1.00  0.00    -0.035 A 
HETATM   18  C15 UNL     1      12.349 -41.063   9.613  1.00  0.00     0.010 A 
HETATM   19  C16 UNL     1      11.116 -40.720  10.136  1.00  0.00     0.007 A 
HETATM   20  C17 UNL     1      10.083 -40.361   9.321  1.00  0.00    -0.062 A 
HETATM   21  C18 UNL     1       8.778 -40.001   9.916  1.00  0.00     0.048 C 
HETATM   22  C19 UNL     1      10.263 -40.337   7.942  1.00  0.00     0.007 A 
HETATM   23  C20 UNL     1      11.499 -40.682   7.443  1.00  0.00     0.010 A 
ENDBRANCH  16  17
ENDBRANCH  15  16
ENDBRANCH  14  15
ENDBRANCH  13  14
ENDBRANCH  11  13
ENDBRANCH   8  11
BRANCH   7  24
HETATM   24  N3  UNL     1      12.836 -45.187   6.213  1.00  0.00    -0.387 N 
HETATM   25  C8  UNL     1      12.201 -44.667   7.397  1.00  0.00     0.149 C 
HETATM   26  C9  UNL     1      14.233 -45.537   6.312  1.00  0.00     0.149 C 
ENDBRANCH   7  24
BRANCH   1  27
HETATM   27  N1  UNL     1      10.805 -44.628   0.895  1.00  0.00    -0.226 N 
ATOM     28  H1  UNL     1       9.839 -44.377   0.682  1.00  0.00     0.177 HD
BRANCH  27  29
HETATM   29  C2  UNL     1      11.778 -44.513  -0.142  1.00  0.00     0.133 C 
HETATM   30  C1  UNL     1      11.905 -43.049  -0.538  1.00  0.00     0.027 C 
ENDBRANCH  27  29
ENDBRANCH   1  27
TORSDOF 9
ENDMDL
MODEL 3
REMARK VINA RESULT: -6.330639728      2.443      6.095
REMARK  9 active torsions:
REMARK  status: ('A' for Active; 'I' for Inactive)
REMARK    1  A    between atoms: C2_2  and  N1_3 
REMARK    2  A    between atoms: N1_3  and  C3_5 
REMARK    3  A    between atoms: C7_11  and  N3_12 
REMARK    4  A    between atoms: C10_15  and  N4_16 
REMARK    5  A    between atoms: N4_16  and  C11_18 
REMARK    6  A    between atoms: C11_18  and  C12_19 
REMARK    7  A    between atoms: C12_19  and  O1_20 
REMARK    8  A    between atoms: O1_20  and  C13_21 
REMARK    9  A    between atoms: C13_21  and  C14_22 
ROOT
HETATM    1  C3  UNL     1      11.690 -44.640   5.174  1.00  0.00     0.679 C 
HETATM    2  N2  UNL     1      11.316 -45.877   4.800  1.00  0.00    -0.196 N 
ATOM      3  H2  UNL     1      11.135 -46.513   5.577  1.00  0.00     0.184 HD
HETATM    4  C4  UNL     1      11.138 -46.424   3.582  1.00  0.00     0.025 C 
HETATM    5  C5  UNL     1      10.646 -47.825   3.531  1.00  0.00     0.068 C 
HETATM    6  C6  UNL     1      11.359 -45.836   2.343  1.00  0.00     0.058 C 
HETATM    7  C7  UNL     1      12.030 -44.635   2.097  1.00  0.00     0.076 C 
HETATM    8  C10 UNL     1      12.478 -43.717   3.038  1.00  0.00     0.143 C 
HETATM    9  N5  UNL     1      12.143 -43.683   4.346  1.00  0.00    -0.175 N 
ATOM     10  H5  UNL     1      12.255 -42.768   4.783  1.00  0.00     0.186 HD
ENDROOT
BRANCH   8  11
HETATM   11  N4  UNL     1      13.279 -42.851   2.553  1.00  0.00    -0.372 N 
ATOM     12  H4  UNL     1      13.168 -42.625   1.564  1.00  0.00     0.161 HD
BRANCH  11  13
HETATM   13  C11 UNL     1      14.325 -42.160   3.261  1.00  0.00     0.147 C 
BRANCH  13  14
HETATM   14  C12 UNL     1      13.817 -40.758   3.553  1.00  0.00     0.187 C 
BRANCH  14  15
HETATM   15  O1  UNL     1      13.063 -40.672   4.691  1.00  0.00    -0.385 OA
BRANCH  15  16
HETATM   16  C13 UNL     1      13.721 -40.810   5.880  1.00  0.00     0.206 C 
BRANCH  16  17
HETATM   17  C14 UNL     1      12.903 -40.764   7.091  1.00  0.00    -0.035 A 
HETATM   18  C15 UNL     1      13.405 -40.755   8.378  1.00  0.00     0.010 A 
HETATM   19  C16 UNL     1      12.558 -40.715   9.470  1.00  0.00     0.007 A 
HETATM   20  C17 UNL     1      11.204 -40.683   9.307  1.00  0.00    -0.062 A 
HETATM   21  C18 UNL     1      10.329 -40.641  10.499  1.00  0.00     0.048 C 
HETATM   22  C19 UNL     1      10.659 -40.691   8.029  1.00  0.00     0.007 A 
HETATM   23  C20 UNL     1      11.520 -40.731   6.955  1.00  0.00     0.010 A 
ENDBRANCH  16  17
ENDBRANCH  15  16
ENDBRANCH  14  15
ENDBRANCH  13  14
ENDBRANCH  11  13
ENDBRANCH   8  11
BRANCH   7  24
HETATM   24  N3  UNL     1      12.301 -44.280   0.758  1.00  0.00    -0.387 N 
HETATM   25  C8  UNL     1      13.472 -44.683   0.023  1.00  0.00     0.149 C 
HETATM   26  C9  UNL     1      11.340 -43.451   0.068  1.00  0.00     0.149 C 
ENDBRANCH   7  24
BRANCH   1  27
HETATM   27  N1  UNL     1      11.613 -44.325   6.436  1.00  0.00    -0.226 N 
ATOM     28  H1  UNL     1      10.728 -43.959   6.789  1.00  0.00     0.177 HD
BRANCH  27  29
HETATM   29  C2  UNL     1      12.699 -44.464   7.350  1.00  0.00     0.133 C 
HETATM   30  C1  UNL     1      12.177 -44.288   8.769  1.00  0.00     0.027 C 
ENDBRANCH  27  29
ENDBRANCH   1  27
TORSDOF 9
ENDMDL
MODEL 4
REMARK VINA RESULT: -6.298092635      1.651      3.274
REMARK  9 active torsions:
REMARK  status: ('A' for Active; 'I' for Inactive)
REMARK    1  A    between atoms: C2_2  and  N1_3 
REMARK    2  A    between atoms: N1_3  and  C3_5 
REMARK    3  A    between atoms: C7_11  and  N3_12 
REMARK    4  A    between atoms: C10_15  and  N4_16 
REMARK    5  A    between atoms: N4_16  and  C11_18 
REMARK    6  A    between atoms: C11_18  and  C12_19 
REMARK    7  A    between atoms: C12_19  and  O1_20 
REMARK    8  A    between atoms: O1_20  and  C13_21 
REMARK    9  A    between atoms: C13_21  and  C14_22 
ROOT
HETATM    1  C3  UNL     1      11.590 -44.297   5.899  1.00  0.00     0.679 C 
HETATM    2  N2  UNL     1      12.708 -44.572   6.595  1.00  0.00    -0.196 N 
ATOM      3  H2  UNL     1      12.823 -44.015   7.442  1.00  0.00     0.184 HD
HETATM    4  C4  UNL     1      13.702 -45.454   6.372  1.00  0.00     0.025 C 
HETATM    5  C5  UNL     1      14.772 -45.546   7.399  1.00  0.00     0.068 C 
HETATM    6  C6  UNL     1      13.858 -46.305   5.286  1.00  0.00     0.058 C 
HETATM    7  C7  UNL     1      13.145 -46.266   4.085  1.00  0.00     0.076 C 
HETATM    8  C10 UNL     1      12.043 -45.473   3.790  1.00  0.00     0.143 C 
HETATM    9  N5  UNL     1      11.302 -44.771   4.675  1.00  0.00    -0.175 N 
ATOM     10  H5  UNL     1      10.355 -44.563   4.357  1.00  0.00     0.186 HD
ENDROOT
BRANCH   8  11
HETATM   11  N4  UNL     1      11.758 -45.450   2.547  1.00  0.00    -0.372 N 
ATOM     12  H4  UNL     1      12.238 -46.128   1.953  1.00  0.00     0.161 HD
BRANCH  11  13
HETATM   13  C11 UNL     1      10.827 -44.565   1.897  1.00  0.00     0.147 C 
BRANCH  13  14
HETATM   14  C12 UNL     1      11.438 -44.174   0.562  1.00  0.00     0.187 C 
BRANCH  14  15
HETATM   15  O1  UNL     1      11.936 -42.901   0.537  1.00  0.00    -0.385 OA
BRANCH  15  16
HETATM   16  C13 UNL     1      13.276 -42.756   0.755  1.00  0.00     0.206 C 
BRANCH  16  17
HETATM   17  C14 UNL     1      13.698 -42.560   2.141  1.00  0.00    -0.035 A 
HETATM   18  C15 UNL     1      14.752 -43.220   2.743  1.00  0.00     0.010 A 
HETATM   19  C16 UNL     1      15.082 -42.976   4.062  1.00  0.00     0.007 A 
HETATM   20  C17 UNL     1      14.376 -42.077   4.808  1.00  0.00    -0.062 A 
HETATM   21  C18 UNL     1      14.758 -41.842   6.218  1.00  0.00     0.048 C 
HETATM   22  C19 UNL     1      13.309 -41.391   4.240  1.00  0.00     0.007 A 
HETATM   23  C20 UNL     1      12.998 -41.649   2.924  1.00  0.00     0.010 A 
ENDBRANCH  16  17
ENDBRANCH  15  16
ENDBRANCH  14  15
ENDBRANCH  13  14
ENDBRANCH  11  13
ENDBRANCH   8  11
BRANCH   7  24
HETATM   24  N3  UNL     1      13.557 -47.109   3.031  1.00  0.00    -0.387 N 
HETATM   25  C8  UNL     1      14.756 -46.926   2.254  1.00  0.00     0.149 C 
HETATM   26  C9  UNL     1      12.722 -48.239   2.700  1.00  0.00     0.149 C 
ENDBRANCH   7  24
BRANCH   1  27
HETATM   27  N1  UNL     1      10.703 -43.510   6.439  1.00  0.00    -0.226 N 
ATOM     28  H1  UNL     1       9.759 -43.508   6.051  1.00  0.00     0.177 HD
BRANCH  27  29
HETATM   29  C2  UNL     1      10.980 -42.651   7.544  1.00  0.00     0.133 C 
HETATM   30  C1  UNL     1      10.964 -41.207   7.063  1.00  0.00     0.027 C 
ENDBRANCH  27  29
ENDBRANCH   1  27
TORSDOF 9
ENDMDL
MODEL 5
REMARK VINA RESULT: -6.275806881      4.970      6.926
REMARK  9 active torsions:
REMARK  status: ('A' for Active; 'I' for Inactive)
REMARK    1  A    between atoms: C2_2  and  N1_3 
REMARK    2  A    between atoms: N1_3  and  C3_5 
REMARK    3  A    between atoms: C7_11  and  N3_12 
REMARK    4  A    between atoms: C10_15  and  N4_16 
REMARK    5  A    between atoms: N4_16  and  C11_18 
REMARK    6  A    between atoms: C11_18  and  C12_19 
REMARK    7  A    between atoms: C12_19  and  O1_20 
REMARK    8  A    between atoms: O1_20  and  C13_21 
REMARK    9  A    between atoms: C13_21  and  C14_22 
ROOT
HETATM    1  C3  UNL     1      11.210 -40.994   7.678  1.00  0.00     0.679 C 
HETATM    2  N2  UNL     1      11.630 -42.165   8.190  1.00  0.00    -0.196 N 
ATOM      3  H2  UNL     1      11.416 -42.292   9.179  1.00  0.00     0.184 HD
HETATM    4  C4  UNL     1      12.284 -43.200   7.627  1.00  0.00     0.025 C 
HETATM    5  C5  UNL     1      12.537 -44.389   8.481  1.00  0.00     0.068 C 
HETATM    6  C6  UNL     1      12.760 -43.301   6.326  1.00  0.00     0.058 C 
HETATM    7  C7  UNL     1      12.867 -42.266   5.393  1.00  0.00     0.076 C 
HETATM    8  C10 UNL     1      12.387 -40.969   5.522  1.00  0.00     0.143 C 
HETATM    9  N5  UNL     1      11.519 -40.525   6.457  1.00  0.00    -0.175 N 
ATOM     10  H5  UNL     1      11.007 -39.685   6.188  1.00  0.00     0.186 HD
ENDROOT
BRANCH   8  11
HETATM   11  N4  UNL     1      12.850 -40.171   4.640  1.00  0.00    -0.372 N 
ATOM     12  H4  UNL     1      12.936 -40.536   3.691  1.00  0.00     0.161 HD
BRANCH  11  13
HETATM   13  C11 UNL     1      13.263 -38.808   4.849  1.00  0.00     0.147 C 
BRANCH  13  14
HETATM   14  C12 UNL     1      12.472 -37.947   3.879  1.00  0.00     0.187 C 
BRANCH  14  15
HETATM   15  O1  UNL     1      12.901 -36.650   3.821  1.00  0.00    -0.385 OA
BRANCH  15  16
HETATM   16  C13 UNL     1      14.089 -36.363   4.430  1.00  0.00     0.206 C 
BRANCH  16  17
HETATM   17  C14 UNL     1      15.156 -35.845   3.576  1.00  0.00    -0.035 A 
HETATM   18  C15 UNL     1      15.542 -36.405   2.374  1.00  0.00     0.010 A 
HETATM   19  C16 UNL     1      16.567 -35.851   1.630  1.00  0.00     0.007 A 
HETATM   20  C17 UNL     1      17.226 -34.738   2.061  1.00  0.00    -0.062 A 
HETATM   21  C18 UNL     1      18.318 -34.173   1.238  1.00  0.00     0.048 C 
HETATM   22  C19 UNL     1      16.868 -34.144   3.266  1.00  0.00     0.007 A 
HETATM   23  C20 UNL     1      15.845 -34.711   3.991  1.00  0.00     0.010 A 
ENDBRANCH  16  17
ENDBRANCH  15  16
ENDBRANCH  14  15
ENDBRANCH  13  14
ENDBRANCH  11  13
ENDBRANCH   8  11
BRANCH   7  24
HETATM   24  N3  UNL     1      13.529 -42.526   4.174  1.00  0.00    -0.387 N 
HETATM   25  C8  UNL     1      12.870 -42.839   2.932  1.00  0.00     0.149 C 
HETATM   26  C9  UNL     1      14.972 -42.476   4.162  1.00  0.00     0.149 C 
ENDBRANCH   7  24
BRANCH   1  27
HETATM   27  N1  UNL     1      10.440 -40.239   8.410  1.00  0.00    -0.226 N 
ATOM     28  H1  UNL     1       9.909 -39.500   7.949  1.00  0.00     0.177 HD
BRANCH  27  29
HETATM   29  C2  UNL     1      10.299 -40.392   9.822  1.00  0.00     0.133 C 
HETATM   30  C1  UNL     1       8.903 -39.948  10.230  1.00  0.00     0.027 C 
ENDBRANCH  27  29
ENDBRANCH   1  27
TORSDOF 9
ENDMDL
