MODEL 1
REMARK VINA RESULT: -7.825563395      0.000      0.000
REMARK  8 active torsions:
REMARK  status: ('A' for Active; 'I' for Inactive)
REMARK    1  A    between atoms: N1_2  and  C3_4 
REMARK    2  A    between atoms: C6_7  and  C7_8 
REMARK    3  A    between atoms: C7_8  and  C8_9 
REMARK    4  A    between atoms: C8_9  and  N2_10 
REMARK    5  A    between atoms: N2_10  and  C9_12 
REMARK    6  A    between atoms: C10_15  and  C11_16 
REMARK    7  A    between atoms: C11_16  and  C12_17 
REMARK    8  A    between atoms: C12_17  and  C13_18 
ROOT
HETATM    1  C9  UNL     1      11.210 -40.687   7.398  1.00  0.00     0.678 A 
HETATM    2  N3  UNL     1      11.110 -40.792   8.735  1.00  0.00    -0.196 N 
ATOM      3  H3  UNL     1      11.845 -41.261   9.264  1.00  0.00     0.184 HD
HETATM    4  C10 UNL     1      10.036 -40.277   9.380  1.00  0.00     0.028 A 
HETATM    5  C17 UNL     1       9.020 -39.635   8.717  1.00  0.00     0.043 A 
HETATM    6  C18 UNL     1       9.137 -39.536   7.345  1.00  0.00     0.108 A 
HETATM    7  N6  UNL     1      10.224 -40.062   6.740  1.00  0.00    -0.202 N 
ATOM      8  H6  UNL     1      10.298 -39.979   5.727  1.00  0.00     0.183 HD
ENDROOT
BRANCH   1   9
HETATM    9  N2  UNL     1      12.230 -41.171   6.746  1.00  0.00    -0.226 N 
ATOM     10  H2  UNL     1      12.164 -41.382   5.751  1.00  0.00     0.177 HD
BRANCH   9  11
HETATM   11  C8  UNL     1      13.463 -41.401   7.477  1.00  0.00     0.142 C 
BRANCH  11  12
HETATM   12  C7  UNL     1      14.528 -41.810   6.492  1.00  0.00     0.058 C 
BRANCH  12  13
HETATM   13  C6  UNL     1      14.391 -43.183   6.014  1.00  0.00    -0.057 A 
HETATM   14  C5  UNL     1      14.171 -44.248   6.867  1.00  0.00     0.009 A 
HETATM   15  C4  UNL     1      14.049 -45.525   6.353  1.00  0.00     0.030 A 
HETATM   16  C3  UNL     1      14.141 -45.775   5.000  1.00  0.00     0.029 A 
HETATM   17  C20 UNL     1      14.363 -44.715   4.135  1.00  0.00     0.030 A 
HETATM   18  C19 UNL     1      14.483 -43.437   4.662  1.00  0.00     0.009 A 
BRANCH  16  19
HETATM   19  N1  UNL     1      14.013 -47.104   4.481  1.00  0.00    -0.390 N 
HETATM   20  C1  UNL     1      15.194 -47.801   4.032  1.00  0.00     0.149 C 
HETATM   21  C2  UNL     1      12.717 -47.730   4.411  1.00  0.00     0.149 C 
ENDBRANCH  16  19
ENDBRANCH  12  13
ENDBRANCH  11  12
ENDBRANCH   9  11
ENDBRANCH   1   9
BRANCH   4  22
HETATM   22  C11 UNL     1       9.944 -40.406  10.863  1.00  0.00     0.062 C 
BRANCH  22  23
HETATM   23  C12 UNL     1       8.621 -39.804  11.278  1.00  0.00     0.046 C 
BRANCH  23  24
HETATM   24  C13 UNL     1       8.610 -39.482  12.718  1.00  0.00    -0.040 A 
HETATM   25  C14 UNL     1       8.286 -38.178  13.077  1.00  0.00     0.027 A 
HETATM   26  C15 UNL     1       8.278 -37.890  14.415  1.00  0.00     0.107 A 
HETATM   27  N4  UNL     1       8.577 -38.852  15.311  1.00  0.00    -0.312 N 
HETATM   28  N5  UNL     1       8.885 -40.093  14.947  1.00  0.00    -0.312 N 
ATOM     29  H4  UNL     1       8.567 -38.618  16.304  1.00  0.00     0.186 HD
HETATM   30  C16 UNL     1       8.911 -40.445  13.655  1.00  0.00     0.114 A 
ATOM     31  H5  UNL     1       9.106 -40.786  15.662  1.00  0.00     0.186 HD
ENDBRANCH  23  24
ENDBRANCH  22  23
ENDBRANCH   4  22
TORSDOF 8
ENDMDL
MODEL 2
REMARK VINA RESULT: -7.809787281      4.925      9.858
REMARK  8 active torsions:
REMARK  status: ('A' for Active; 'I' for Inactive)
REMARK    1  A    between atoms: N1_2  and  C3_4 
REMARK    2  A    between atoms: C6_7  and  C7_8 
REMARK    3  A    between atoms: C7_8  and  C8_9 
REMARK    4  A    between atoms: C8_9  and  N2_10 
REMARK    5  A    between atoms: N2_10  and  C9_12 
REMARK    6  A    between atoms: C10_15  and  C11_16 
REMARK    7  A    between atoms: C11_16  and  C12_17 
REMARK    8  A    between atoms: C12_17  and  C13_18 
ROOT
HETATM    1  C9  UNL     1      16.481 -45.409   0.921  1.00  0.00     0.678 A 
HETATM    2  N3  UNL     1      15.667 -46.196   1.647  1.00  0.00    -0.196 N 
ATOM      3  H3  UNL     1      14.747 -45.855   1.927  1.00  0.00     0.184 HD
HETATM    4  C10 UNL     1      16.065 -47.440   2.007  1.00  0.00     0.028 A 
HETATM    5  C17 UNL     1      17.291 -47.948   1.656  1.00  0.00     0.043 A 
HETATM    6  C18 UNL     1      18.115 -47.128   0.910  1.00  0.00     0.108 A 
HETATM    7  N6  UNL     1      17.680 -45.896   0.572  1.00  0.00    -0.202 N 
ATOM      8  H6  UNL     1      18.298 -45.302   0.020  1.00  0.00     0.183 HD
ENDROOT
BRANCH   1   9
HETATM    9  N2  UNL     1      16.129 -44.207   0.558  1.00  0.00    -0.226 N 
ATOM     10  H2  UNL     1      16.643 -43.707  -0.166  1.00  0.00     0.177 HD
BRANCH   9  11
HETATM   11  C8  UNL     1      14.984 -43.602   1.213  1.00  0.00     0.142 C 
BRANCH  11  12
HETATM   12  C7  UNL     1      15.483 -42.511   2.126  1.00  0.00     0.058 C 
BRANCH  12  13
HETATM   13  C6  UNL     1      15.029 -42.646   3.507  1.00  0.00    -0.057 A 
HETATM   14  C5  UNL     1      14.562 -43.840   4.022  1.00  0.00     0.009 A 
HETATM   15  C4  UNL     1      14.147 -43.904   5.338  1.00  0.00     0.030 A 
HETATM   16  C3  UNL     1      14.184 -42.802   6.166  1.00  0.00     0.029 A 
HETATM   17  C20 UNL     1      14.651 -41.598   5.660  1.00  0.00     0.030 A 
HETATM   18  C19 UNL     1      15.065 -41.546   4.337  1.00  0.00     0.009 A 
BRANCH  16  19
HETATM   19  N1  UNL     1      13.751 -42.882   7.529  1.00  0.00    -0.390 N 
HETATM   20  C1  UNL     1      13.618 -41.669   8.298  1.00  0.00     0.149 C 
HETATM   21  C2  UNL     1      13.453 -44.164   8.117  1.00  0.00     0.149 C 
ENDBRANCH  16  19
ENDBRANCH  12  13
ENDBRANCH  11  12
ENDBRANCH   9  11
ENDBRANCH   1   9
BRANCH   4  22
HETATM   22  C11 UNL     1      15.148 -48.296   2.813  1.00  0.00     0.062 C 
BRANCH  22  23
HETATM   23  C12 UNL     1      14.618 -47.438   3.939  1.00  0.00     0.046 C 
BRANCH  23  24
HETATM   24  C13 UNL     1      13.150 -47.546   4.045  1.00  0.00    -0.040 A 
HETATM   25  C14 UNL     1      12.461 -47.986   2.919  1.00  0.00     0.027 A 
HETATM   26  C15 UNL     1      11.100 -48.083   3.026  1.00  0.00     0.107 A 
HETATM   27  N4  UNL     1      10.493 -47.758   4.186  1.00  0.00    -0.312 N 
HETATM   28  N5  UNL     1      11.170 -47.339   5.251  1.00  0.00    -0.312 N 
ATOM     29  H4  UNL     1       9.478 -47.837   4.247  1.00  0.00     0.186 HD
HETATM   30  C16 UNL     1      12.504 -47.222   5.216  1.00  0.00     0.114 A 
ATOM     31  H5  UNL     1      10.666 -47.104   6.106  1.00  0.00     0.186 HD
ENDBRANCH  23  24
ENDBRANCH  22  23
ENDBRANCH   4  22
TORSDOF 8
ENDMDL
MODEL 3
REMARK VINA RESULT: -7.789337795      4.439      6.859
REMARK  8 active torsions:
REMARK  status: ('A' for Active; 'I' for Inactive)
REMARK    1  A    between atoms: N1_2  and  C3_4 
REMARK    2  A    between atoms: C6_7  and  C7_8 
REMARK    3  A    between atoms: C7_8  and  C8_9 
REMARK    4  A    between atoms: C8_9  and  N2_10 
REMARK    5  A    between atoms: N2_10  and  C9_12 
REMARK    6  A    between atoms: C10_15  and  C11_16 
REMARK    7  A    between atoms: C11_16  and  C12_17 
REMARK    8  A    between atoms: C12_17  and  C13_18 
ROOT
HETATM    1  C9  UNL     1      12.087 -44.372   6.788  1.00  0.00     0.678 A 
HETATM    2  N3  UNL     1      11.975 -43.174   6.187  1.00  0.00    -0.196 N 
ATOM      3  H3  UNL     1      11.938 -43.118   5.170  1.00  0.00     0.184 HD
HETATM    4  C10 UNL     1      11.911 -42.043   6.930  1.00  0.00     0.028 A 
HETATM    5  C17 UNL     1      11.955 -42.062   8.302  1.00  0.00     0.043 A 
HETATM    6  C18 UNL     1      12.070 -43.300   8.904  1.00  0.00     0.108 A 
HETATM    7  N6  UNL     1      12.130 -44.403   8.128  1.00  0.00    -0.202 N 
ATOM      8  H6  UNL     1      12.213 -45.310   8.586  1.00  0.00     0.183 HD
ENDROOT
BRANCH   1   9
HETATM    9  N2  UNL     1      12.151 -45.480   6.104  1.00  0.00    -0.226 N 
ATOM     10  H2  UNL     1      11.909 -46.374   6.530  1.00  0.00     0.177 HD
BRANCH   9  11
HETATM   11  C8  UNL     1      12.575 -45.404   4.718  1.00  0.00     0.142 C 
BRANCH  11  12
HETATM   12  C7  UNL     1      14.077 -45.278   4.689  1.00  0.00     0.058 C 
BRANCH  12  13
HETATM   13  C6  UNL     1      14.558 -44.154   3.892  1.00  0.00    -0.057 A 
HETATM   14  C5  UNL     1      14.803 -42.907   4.435  1.00  0.00     0.009 A 
HETATM   15  C4  UNL     1      15.257 -41.883   3.627  1.00  0.00     0.030 A 
HETATM   16  C3  UNL     1      15.477 -42.066   2.278  1.00  0.00     0.029 A 
HETATM   17  C20 UNL     1      15.234 -43.311   1.721  1.00  0.00     0.030 A 
HETATM   18  C19 UNL     1      14.778 -44.332   2.542  1.00  0.00     0.009 A 
BRANCH  16  19
HETATM   19  N1  UNL     1      15.948 -40.994   1.452  1.00  0.00    -0.390 N 
HETATM   20  C1  UNL     1      15.650 -39.633   1.826  1.00  0.00     0.149 C 
HETATM   21  C2  UNL     1      16.710 -41.281   0.262  1.00  0.00     0.149 C 
ENDBRANCH  16  19
ENDBRANCH  12  13
ENDBRANCH  11  12
ENDBRANCH   9  11
ENDBRANCH   1   9
BRANCH   4  22
HETATM   22  C11 UNL     1      11.788 -40.725   6.244  1.00  0.00     0.062 C 
BRANCH  22  23
HETATM   23  C12 UNL     1      13.185 -40.161   6.116  1.00  0.00     0.046 C 
BRANCH  23  24
HETATM   24  C13 UNL     1      13.202 -38.978   5.234  1.00  0.00    -0.040 A 
HETATM   25  C14 UNL     1      14.354 -38.198   5.237  1.00  0.00     0.027 A 
HETATM   26  C15 UNL     1      14.361 -37.103   4.415  1.00  0.00     0.107 A 
HETATM   27  N4  UNL     1      13.283 -36.828   3.655  1.00  0.00    -0.312 N 
HETATM   28  N5  UNL     1      12.191 -37.586   3.666  1.00  0.00    -0.312 N 
ATOM     29  H4  UNL     1      13.307 -36.008   3.048  1.00  0.00     0.186 HD
HETATM   30  C16 UNL     1      12.116 -38.673   4.446  1.00  0.00     0.114 A 
ATOM     31  H5  UNL     1      11.399 -37.337   3.073  1.00  0.00     0.186 HD
ENDBRANCH  23  24
ENDBRANCH  22  23
ENDBRANCH   4  22
TORSDOF 8
ENDMDL
MODEL 4
REMARK VINA RESULT: -7.780490020      3.916      8.332
REMARK  8 active torsions:
REMARK  status: ('A' for Active; 'I' for Inactive)
REMARK    1  A    between atoms: N1_2  and  C3_4 
REMARK    2  A    between atoms: C6_7  and  C7_8 
REMARK    3  A    between atoms: C7_8  and  C8_9 
REMARK    4  A    between atoms: C8_9  and  N2_10 
REMARK    5  A    between atoms: N2_10  and  C9_12 
REMARK    6  A    between atoms: C10_15  and  C11_16 
REMARK    7  A    between atoms: C11_16  and  C12_17 
REMARK    8  A    between atoms: C12_17  and  C13_18 
ROOT
HETATM    1  C9  UNL     1      15.320 -39.804   2.486  1.00  0.00     0.678 A 
HETATM    2  N3  UNL     1      15.029 -41.047   2.909  1.00  0.00    -0.196 N 
ATOM      3  H3  UNL     1      14.532 -41.181   3.789  1.00  0.00     0.184 HD
HETATM    4  C10 UNL     1      15.393 -42.122   2.168  1.00  0.00     0.028 A 
HETATM    5  C17 UNL     1      16.062 -41.998   0.976  1.00  0.00     0.043 A 
HETATM    6  C18 UNL     1      16.354 -40.715   0.555  1.00  0.00     0.108 A 
HETATM    7  N6  UNL     1      15.973 -39.672   1.323  1.00  0.00    -0.202 N 
ATOM      8  H6  UNL     1      16.193 -38.731   0.998  1.00  0.00     0.183 HD
ENDROOT
BRANCH   1   9
HETATM    9  N2  UNL     1      14.984 -38.749   3.174  1.00  0.00    -0.226 N 
ATOM     10  H2  UNL     1      14.841 -37.849   2.716  1.00  0.00     0.177 HD
BRANCH   9  11
HETATM   11  C8  UNL     1      14.818 -38.892   4.609  1.00  0.00     0.142 C 
BRANCH  11  12
HETATM   12  C7  UNL     1      13.343 -38.947   4.912  1.00  0.00     0.058 C 
BRANCH  12  13
HETATM   13  C6  UNL     1      12.970 -40.022   5.826  1.00  0.00    -0.057 A 
HETATM   14  C5  UNL     1      13.906 -40.791   6.490  1.00  0.00     0.009 A 
HETATM   15  C4  UNL     1      13.490 -41.794   7.344  1.00  0.00     0.030 A 
HETATM   16  C3  UNL     1      12.153 -42.057   7.559  1.00  0.00     0.029 A 
HETATM   17  C20 UNL     1      11.205 -41.292   6.898  1.00  0.00     0.030 A 
HETATM   18  C19 UNL     1      11.634 -40.287   6.044  1.00  0.00     0.009 A 
BRANCH  16  19
HETATM   19  N1  UNL     1      11.736 -43.100   8.447  1.00  0.00    -0.390 N 
HETATM   20  C1  UNL     1      10.584 -42.889   9.289  1.00  0.00     0.149 C 
HETATM   21  C2  UNL     1      12.464 -44.344   8.493  1.00  0.00     0.149 C 
ENDBRANCH  16  19
ENDBRANCH  12  13
ENDBRANCH  11  12
ENDBRANCH   9  11
ENDBRANCH   1   9
BRANCH   4  22
HETATM   22  C11 UNL     1      15.062 -43.491   2.655  1.00  0.00     0.062 C 
BRANCH  22  23
HETATM   23  C12 UNL     1      14.788 -43.379   4.138  1.00  0.00     0.046 C 
BRANCH  23  24
HETATM   24  C13 UNL     1      13.687 -44.275   4.545  1.00  0.00    -0.040 A 
HETATM   25  C14 UNL     1      14.035 -45.536   5.018  1.00  0.00     0.027 A 
HETATM   26  C15 UNL     1      13.007 -46.359   5.394  1.00  0.00     0.107 A 
HETATM   27  N4  UNL     1      11.733 -45.930   5.294  1.00  0.00    -0.312 N 
HETATM   28  N5  UNL     1      11.422 -44.720   4.838  1.00  0.00    -0.312 N 
ATOM     29  H4  UNL     1      10.981 -46.557   5.579  1.00  0.00     0.186 HD
HETATM   30  C16 UNL     1      12.377 -43.864   4.454  1.00  0.00     0.114 A 
ATOM     31  H5  UNL     1      10.443 -44.441   4.780  1.00  0.00     0.186 HD
ENDBRANCH  23  24
ENDBRANCH  22  23
ENDBRANCH   4  22
TORSDOF 8
ENDMDL
MODEL 5
REMARK VINA RESULT: -7.737455794      4.233      7.391
REMARK  8 active torsions:
REMARK  status: ('A' for Active; 'I' for Inactive)
REMARK    1  A    between atoms: N1_2  and  C3_4 
REMARK    2  A    between atoms: C6_7  and  C7_8 
REMARK    3  A    between atoms: C7_8  and  C8_9 
REMARK    4  A    between atoms: C8_9  and  N2_10 
REMARK    5  A    between atoms: N2_10  and  C9_12 
REMARK    6  A    between atoms: C10_15  and  C11_16 
REMARK    7  A    between atoms: C11_16  and  C12_17 
REMARK    8  A    between atoms: C12_17  and  C13_18 
ROOT
HETATM    1  C9  UNL     1      13.687 -41.192   6.712  1.00  0.00     0.678 A 
HETATM    2  N3  UNL     1      14.067 -42.471   6.543  1.00  0.00    -0.196 N 
ATOM      3  H3  UNL     1      14.642 -42.728   5.741  1.00  0.00     0.184 HD
HETATM    4  C10 UNL     1      13.690 -43.418   7.435  1.00  0.00     0.028 A 
HETATM    5  C17 UNL     1      12.918 -43.126   8.533  1.00  0.00     0.043 A 
HETATM    6  C18 UNL     1      12.536 -41.808   8.692  1.00  0.00     0.108 A 
HETATM    7  N6  UNL     1      12.934 -40.895   7.781  1.00  0.00    -0.202 N 
ATOM      8  H6  UNL     1      12.646 -39.926   7.913  1.00  0.00     0.183 HD
ENDROOT
BRANCH   1   9
HETATM    9  N2  UNL     1      14.034 -40.256   5.874  1.00  0.00    -0.226 N 
ATOM     10  H2  UNL     1      14.588 -39.457   6.179  1.00  0.00     0.177 HD
BRANCH   9  11
HETATM   11  C8  UNL     1      13.608 -40.384   4.492  1.00  0.00     0.142 C 
BRANCH  11  12
HETATM   12  C7  UNL     1      14.705 -41.070   3.719  1.00  0.00     0.058 C 
BRANCH  12  13
HETATM   13  C6  UNL     1      14.287 -42.316   3.085  1.00  0.00    -0.057 A 
HETATM   14  C5  UNL     1      15.187 -43.208   2.535  1.00  0.00     0.009 A 
HETATM   15  C4  UNL     1      14.729 -44.373   1.949  1.00  0.00     0.030 A 
HETATM   16  C3  UNL     1      13.385 -44.678   1.894  1.00  0.00     0.029 A 
HETATM   17  C20 UNL     1      12.473 -43.790   2.442  1.00  0.00     0.030 A 
HETATM   18  C19 UNL     1      12.944 -42.624   3.028  1.00  0.00     0.009 A 
BRANCH  16  19
HETATM   19  N1  UNL     1      12.924 -45.889   1.283  1.00  0.00    -0.390 N 
HETATM   20  C1  UNL     1      13.862 -46.718   0.568  1.00  0.00     0.149 C 
HETATM   21  C2  UNL     1      11.536 -46.266   1.386  1.00  0.00     0.149 C 
ENDBRANCH  16  19
ENDBRANCH  12  13
ENDBRANCH  11  12
ENDBRANCH   9  11
ENDBRANCH   1   9
BRANCH   4  22
HETATM   22  C11 UNL     1      14.120 -44.830   7.228  1.00  0.00     0.062 C 
BRANCH  22  23
HETATM   23  C12 UNL     1      14.268 -45.034   5.738  1.00  0.00     0.046 C 
BRANCH  23  24
HETATM   24  C13 UNL     1      13.467 -46.184   5.276  1.00  0.00    -0.040 A 
HETATM   25  C14 UNL     1      14.113 -47.137   4.494  1.00  0.00     0.027 A 
HETATM   26  C15 UNL     1      13.362 -48.200   4.070  1.00  0.00     0.107 A 
HETATM   27  N4  UNL     1      12.061 -48.283   4.416  1.00  0.00    -0.312 N 
HETATM   28  N5  UNL     1      11.462 -47.362   5.164  1.00  0.00    -0.312 N 
ATOM     29  H4  UNL     1      11.517 -49.083   4.091  1.00  0.00     0.186 HD
HETATM   30  C16 UNL     1      12.138 -46.295   5.613  1.00  0.00     0.114 A 
ATOM     31  H5  UNL     1      10.476 -47.467   5.398  1.00  0.00     0.186 HD
ENDBRANCH  23  24
ENDBRANCH  22  23
ENDBRANCH   4  22
TORSDOF 8
ENDMDL
