MODEL 1
REMARK VINA RESULT: -6.290410068      0.000      0.000
REMARK  3 active torsions:
REMARK  status: ('A' for Active; 'I' for Inactive)
REMARK    1  A    between atoms: C1_2  and  N1_3 
REMARK    2  A    between atoms: N1_3  and  N2_5 
REMARK    3  A    between atoms: N2_5  and  C2_7 
ROOT
HETATM    1  C2  UNL     1     -26.197   2.351  27.907  1.00  0.00     0.164 A 
HETATM    2  C3  UNL     1     -27.392   2.239  27.296  1.00  0.00     0.112 A 
HETATM    3  N3  UNL     1     -28.368   3.138  27.099  1.00  0.00    -0.303 N 
ATOM      4  H3  UNL     1     -28.344   4.110  27.408  1.00  0.00     0.171 HD
HETATM    5  C4  UNL     1     -29.376   2.564  26.434  1.00  0.00     0.325 A 
HETATM    6  O2  UNL     1     -30.474   3.048  26.050  1.00  0.00    -0.247 OA
HETATM    7  N4  UNL     1     -29.022   1.291  26.217  1.00  0.00    -0.305 N 
ATOM      8  H4  UNL     1     -29.591   0.598  25.731  1.00  0.00     0.171 HD
HETATM    9  C5  UNL     1     -27.809   1.064  26.735  1.00  0.00     0.084 A 
HETATM   10  C6  UNL     1     -27.053  -0.022  26.767  1.00  0.00     0.139 A 
HETATM   11  N5  UNL     1     -25.778   0.033  27.399  1.00  0.00    -0.308 N 
ATOM     12  H5  UNL     1     -25.190  -0.799  27.427  1.00  0.00     0.186 HD
HETATM   13  N6  UNL     1     -25.329   1.222  27.980  1.00  0.00    -0.283 N 
ATOM     14  H6  UNL     1     -24.419   1.279  28.437  1.00  0.00     0.188 HD
ENDROOT
BRANCH   1  15
HETATM   15  N2  UNL     1     -25.760   3.554  28.484  1.00  0.00    -0.280 N 
ATOM     16  H2  UNL     1     -25.945   3.677  29.479  1.00  0.00     0.188 HD
BRANCH  15  17
HETATM   17  N1  UNL     1     -25.101   4.592  27.841  1.00  0.00    -0.276 N 
ATOM     18  H1  UNL     1     -24.492   5.190  28.399  1.00  0.00     0.189 HD
BRANCH  17  19
HETATM   19  C1  UNL     1     -25.221   4.875  26.452  1.00  0.00     0.368 C 
HETATM   20  O1  UNL     1     -26.345   5.212  25.943  1.00  0.00    -0.282 OA
ENDBRANCH  17  19
ENDBRANCH  15  17
ENDBRANCH   1  15
TORSDOF 3
ENDMDL
MODEL 2
REMARK VINA RESULT: -6.256944765      2.069      3.047
REMARK  3 active torsions:
REMARK  status: ('A' for Active; 'I' for Inactive)
REMARK    1  A    between atoms: C1_2  and  N1_3 
REMARK    2  A    between atoms: N1_3  and  N2_5 
REMARK    3  A    between atoms: N2_5  and  C2_7 
ROOT
HETATM    1  C2  UNL     1     -26.759   2.695  27.346  1.00  0.00     0.164 A 
HETATM    2  C3  UNL     1     -26.743   1.365  27.132  1.00  0.00     0.112 A 
HETATM    3  N3  UNL     1     -25.771   0.457  27.306  1.00  0.00    -0.303 N 
ATOM      4  H3  UNL     1     -24.832   0.658  27.650  1.00  0.00     0.171 HD
HETATM    5  C4  UNL     1     -26.224  -0.753  26.960  1.00  0.00     0.325 A 
HETATM    6  O2  UNL     1     -25.642  -1.870  26.972  1.00  0.00    -0.247 OA
HETATM    7  N4  UNL     1     -27.493  -0.593  26.565  1.00  0.00    -0.305 N 
ATOM      8  H4  UNL     1     -28.106  -1.341  26.240  1.00  0.00     0.171 HD
HETATM    9  C5  UNL     1     -27.838   0.696  26.661  1.00  0.00     0.084 A 
HETATM   10  C6  UNL     1     -28.970   1.328  26.391  1.00  0.00     0.139 A 
HETATM   11  N5  UNL     1     -29.048   2.736  26.596  1.00  0.00    -0.308 N 
ATOM     12  H5  UNL     1     -29.916   3.230  26.391  1.00  0.00     0.186 HD
HETATM   13  N6  UNL     1     -27.943   3.443  27.077  1.00  0.00    -0.283 N 
ATOM     14  H6  UNL     1     -27.982   4.450  27.229  1.00  0.00     0.188 HD
ENDROOT
BRANCH   1  15
HETATM   15  N2  UNL     1     -25.640   3.389  27.831  1.00  0.00    -0.280 N 
ATOM     16  H2  UNL     1     -24.982   2.857  28.399  1.00  0.00     0.188 HD
BRANCH  15  17
HETATM   17  N1  UNL     1     -25.336   4.727  27.617  1.00  0.00    -0.276 N 
ATOM     18  H1  UNL     1     -25.377   5.359  28.416  1.00  0.00     0.189 HD
BRANCH  17  19
HETATM   19  C1  UNL     1     -24.970   5.270  26.355  1.00  0.00     0.368 C 
HETATM   20  O1  UNL     1     -25.833   5.407  25.421  1.00  0.00    -0.282 OA
ENDBRANCH  17  19
ENDBRANCH  15  17
ENDBRANCH   1  15
TORSDOF 3
ENDMDL
MODEL 3
REMARK VINA RESULT: -6.127510450      2.401      4.647
REMARK  3 active torsions:
REMARK  status: ('A' for Active; 'I' for Inactive)
REMARK    1  A    between atoms: C1_2  and  N1_3 
REMARK    2  A    between atoms: N1_3  and  N2_5 
REMARK    3  A    between atoms: N2_5  and  C2_7 
ROOT
HETATM    1  C2  UNL     1     -27.679   0.417  26.615  1.00  0.00     0.164 A 
HETATM    2  C3  UNL     1     -26.841   1.274  27.230  1.00  0.00     0.112 A 
HETATM    3  N3  UNL     1     -25.612   1.093  27.736  1.00  0.00    -0.303 N 
ATOM      4  H3  UNL     1     -25.097   0.213  27.729  1.00  0.00     0.171 HD
HETATM    5  C4  UNL     1     -25.167   2.245  28.251  1.00  0.00     0.325 A 
HETATM    6  O2  UNL     1     -24.074   2.511  28.816  1.00  0.00    -0.247 OA
HETATM    7  N4  UNL     1     -26.134   3.152  28.062  1.00  0.00    -0.305 N 
ATOM      8  H4  UNL     1     -26.086   4.129  28.350  1.00  0.00     0.171 HD
HETATM    9  C5  UNL     1     -27.172   2.584  27.437  1.00  0.00     0.084 A 
HETATM   10  C6  UNL     1     -28.337   3.072  27.042  1.00  0.00     0.139 A 
HETATM   11  N5  UNL     1     -29.267   2.215  26.386  1.00  0.00    -0.308 N 
ATOM     12  H5  UNL     1     -30.166   2.583  26.078  1.00  0.00     0.186 HD
HETATM   13  N6  UNL     1     -28.953   0.872  26.162  1.00  0.00    -0.283 N 
ATOM     14  H6  UNL     1     -29.606   0.244  25.694  1.00  0.00     0.188 HD
ENDROOT
BRANCH   1  15
HETATM   15  N2  UNL     1     -27.347  -0.929  26.396  1.00  0.00    -0.280 N 
ATOM     16  H2  UNL     1     -27.516  -1.573  27.169  1.00  0.00     0.188 HD
BRANCH  15  17
HETATM   17  N1  UNL     1     -26.812  -1.474  25.237  1.00  0.00    -0.276 N 
ATOM     18  H1  UNL     1     -26.414  -2.411  25.290  1.00  0.00     0.189 HD
BRANCH  17  19
HETATM   19  C1  UNL     1     -26.784  -0.809  23.981  1.00  0.00     0.368 C 
HETATM   20  O1  UNL     1     -25.829  -0.013  23.677  1.00  0.00    -0.282 OA
ENDBRANCH  17  19
ENDBRANCH  15  17
ENDBRANCH   1  15
TORSDOF 3
ENDMDL
MODEL 4
REMARK VINA RESULT: -6.092664989      2.642      4.985
REMARK  3 active torsions:
REMARK  status: ('A' for Active; 'I' for Inactive)
REMARK    1  A    between atoms: C1_2  and  N1_3 
REMARK    2  A    between atoms: N1_3  and  N2_5 
REMARK    3  A    between atoms: N2_5  and  C2_7 
ROOT
HETATM    1  C2  UNL     1     -26.506  -0.115  26.749  1.00  0.00     0.164 A 
HETATM    2  C3  UNL     1     -26.301   1.087  27.321  1.00  0.00     0.112 A 
HETATM    3  N3  UNL     1     -25.230   1.591  27.953  1.00  0.00    -0.303 N 
ATOM      4  H3  UNL     1     -24.350   1.098  28.104  1.00  0.00     0.171 HD
HETATM    5  C4  UNL     1     -25.494   2.840  28.353  1.00  0.00     0.325 A 
HETATM    6  O2  UNL     1     -24.770   3.662  28.975  1.00  0.00    -0.247 OA
HETATM    7  N4  UNL     1     -26.746   3.114  27.966  1.00  0.00    -0.305 N 
ATOM      8  H4  UNL     1     -27.232   3.996  28.130  1.00  0.00     0.171 HD
HETATM    9  C5  UNL     1     -27.265   2.057  27.330  1.00  0.00     0.084 A 
HETATM   10  C6  UNL     1     -28.450   1.857  26.774  1.00  0.00     0.139 A 
HETATM   11  N5  UNL     1     -28.727   0.605  26.153  1.00  0.00    -0.308 N 
ATOM     12  H5  UNL     1     -29.637   0.443  25.723  1.00  0.00     0.186 HD
HETATM   13  N6  UNL     1     -27.759  -0.402  26.131  1.00  0.00    -0.283 N 
ATOM     14  H6  UNL     1     -27.940  -1.304  25.692  1.00  0.00     0.188 HD
ENDROOT
BRANCH   1  15
HETATM   15  N2  UNL     1     -25.522  -1.115  26.734  1.00  0.00    -0.280 N 
ATOM     16  H2  UNL     1     -24.609  -0.865  27.115  1.00  0.00     0.188 HD
BRANCH  15  17
HETATM   17  N1  UNL     1     -25.661  -2.410  26.255  1.00  0.00    -0.276 N 
ATOM     18  H1  UNL     1     -25.273  -2.624  25.337  1.00  0.00     0.189 HD
BRANCH  17  19
HETATM   19  C1  UNL     1     -26.311  -3.458  26.963  1.00  0.00     0.368 C 
HETATM   20  O1  UNL     1     -27.453  -3.274  27.510  1.00  0.00    -0.282 OA
ENDBRANCH  17  19
ENDBRANCH  15  17
ENDBRANCH   1  15
TORSDOF 3
ENDMDL
MODEL 5
REMARK VINA RESULT: -6.011437494      1.538      4.170
REMARK  3 active torsions:
REMARK  status: ('A' for Active; 'I' for Inactive)
REMARK    1  A    between atoms: C1_2  and  N1_3 
REMARK    2  A    between atoms: N1_3  and  N2_5 
REMARK    3  A    between atoms: N2_5  and  C2_7 
ROOT
HETATM    1  C2  UNL     1     -27.682   2.683  27.443  1.00  0.00     0.164 A 
HETATM    2  C3  UNL     1     -26.688   3.516  27.080  1.00  0.00     0.112 A 
HETATM    3  N3  UNL     1     -26.699   4.622  26.322  1.00  0.00    -0.303 N 
ATOM      4  H3  UNL     1     -27.525   5.022  25.877  1.00  0.00     0.171 HD
HETATM    5  C4  UNL     1     -25.460   5.121  26.241  1.00  0.00     0.325 A 
HETATM    6  O2  UNL     1     -25.035   6.140  25.636  1.00  0.00    -0.247 OA
HETATM    7  N4  UNL     1     -24.670   4.312  26.958  1.00  0.00    -0.305 N 
ATOM      8  H4  UNL     1     -23.665   4.434  27.084  1.00  0.00     0.171 HD
HETATM    9  C5  UNL     1     -25.397   3.319  27.484  1.00  0.00     0.084 A 
HETATM   10  C6  UNL     1     -25.063   2.295  28.254  1.00  0.00     0.139 A 
HETATM   11  N5  UNL     1     -26.071   1.379  28.672  1.00  0.00    -0.308 N 
ATOM     12  H5  UNL     1     -25.822   0.588  29.265  1.00  0.00     0.186 HD
HETATM   13  N6  UNL     1     -27.397   1.558  28.272  1.00  0.00    -0.283 N 
ATOM     14  H6  UNL     1     -28.132   0.911  28.561  1.00  0.00     0.188 HD
ENDROOT
BRANCH   1  15
HETATM   15  N2  UNL     1     -29.010   2.878  27.035  1.00  0.00    -0.280 N 
ATOM     16  H2  UNL     1     -29.609   3.412  27.665  1.00  0.00     0.188 HD
BRANCH  15  17
HETATM   17  N1  UNL     1     -29.594   2.421  25.862  1.00  0.00    -0.276 N 
ATOM     18  H1  UNL     1     -28.983   2.035  25.143  1.00  0.00     0.189 HD
BRANCH  17  19
HETATM   19  C1  UNL     1     -30.991   2.457  25.598  1.00  0.00     0.368 C 
HETATM   20  O1  UNL     1     -31.582   3.557  25.322  1.00  0.00    -0.282 OA
ENDBRANCH  17  19
ENDBRANCH  15  17
ENDBRANCH   1  15
TORSDOF 3
ENDMDL
