MODEL 1
REMARK VINA RESULT: -6.739651627      0.000      0.000
REMARK  3 active torsions:
REMARK  status: ('A' for Active; 'I' for Inactive)
REMARK       I    between atoms: N3_4  and  C2_6 
REMARK       I    between atoms: C2_6  and  N4_8 
REMARK    1  A    between atoms: N4_8  and  C3_10 
REMARK    2  A    between atoms: C3_10  and  N5_11 
REMARK    3  A    between atoms: N7_16  and  N8_17 
ROOT
HETATM    1  C3  UNL     1     -26.098   1.685  27.616  1.00  0.00     0.376 A 
HETATM    2  N6  UNL     1     -26.312   2.675  26.611  1.00  0.00    -0.044 NA
HETATM    3  N7  UNL     1     -25.301   3.504  27.063  1.00  0.00    -0.163 N 
HETATM    4  C4  UNL     1     -24.945   2.553  28.045  1.00  0.00     0.331 A 
HETATM    5  O2  UNL     1     -24.089   2.369  28.943  1.00  0.00    -0.263 OA
ENDROOT
BRANCH   1   6
HETATM    6  N4  UNL     1     -25.638   0.394  27.238  1.00  0.00    -0.287 N 
HETATM    7  C2  UNL     1     -26.343  -0.426  26.332  1.00  0.00     0.325 C 
HETATM    8  N3  UNL     1     -25.829  -1.692  26.006  1.00  0.00    -0.285 N 
HETATM    9  O1  UNL     1     -27.430  -0.068  25.795  1.00  0.00    -0.247 OA
HETATM   10  C1  UNL     1     -26.400  -2.753  26.472  1.00  0.00     0.204 C 
ATOM     11  H3  UNL     1     -25.010  -1.772  25.404  1.00  0.00     0.172 HD
HETATM   12  N1  UNL     1     -25.808  -3.983  26.086  1.00  0.00    -0.066 NA
HETATM   13  N2  UNL     1     -27.524  -2.645  27.297  1.00  0.00    -0.066 NA
ATOM     14  H4  UNL     1     -24.766   0.047  27.638  1.00  0.00     0.168 HD
ENDBRANCH   1   6
BRANCH   1  15
HETATM   15  N5  UNL     1     -27.183   1.715  28.586  1.00  0.00    -0.026 N 
ATOM     16  H53 UNL     1     -27.999   1.235  28.208  1.00  0.00     0.279 HD
ATOM     17  H52 UNL     1     -26.961   1.106  29.373  1.00  0.00     0.279 HD
ATOM     18  H51 UNL     1     -27.450   2.639  28.927  1.00  0.00     0.279 HD
ENDBRANCH   1  15
BRANCH   3  19
HETATM   19  N8  UNL     1     -24.819   4.752  26.710  1.00  0.00    -0.324 N 
ATOM     20  H82 UNL     1     -24.290   5.111  25.914  1.00  0.00     0.178 HD
ATOM     21  H81 UNL     1     -24.841   5.683  27.125  1.00  0.00     0.178 HD
ENDBRANCH   3  19
TORSDOF 3
ENDMDL
MODEL 2
REMARK VINA RESULT: -6.519423712      1.201      1.201
REMARK  3 active torsions:
REMARK  status: ('A' for Active; 'I' for Inactive)
REMARK       I    between atoms: N3_4  and  C2_6 
REMARK       I    between atoms: C2_6  and  N4_8 
REMARK    1  A    between atoms: N4_8  and  C3_10 
REMARK    2  A    between atoms: C3_10  and  N5_11 
REMARK    3  A    between atoms: N7_16  and  N8_17 
ROOT
HETATM    1  C3  UNL     1     -26.473   1.419  27.181  1.00  0.00     0.376 A 
HETATM    2  N6  UNL     1     -25.724   2.515  26.660  1.00  0.00    -0.044 NA
HETATM    3  N7  UNL     1     -25.573   3.132  27.889  1.00  0.00    -0.163 N 
HETATM    4  C4  UNL     1     -26.229   2.054  28.523  1.00  0.00     0.331 A 
HETATM    5  O2  UNL     1     -26.546   1.659  29.671  1.00  0.00    -0.263 OA
ENDROOT
BRANCH   1   6
HETATM    6  N4  UNL     1     -25.919   0.110  27.139  1.00  0.00    -0.287 N 
HETATM    7  C2  UNL     1     -26.150  -0.776  26.065  1.00  0.00     0.325 C 
HETATM    8  N3  UNL     1     -25.569  -2.055  26.092  1.00  0.00    -0.285 N 
HETATM    9  O1  UNL     1     -26.864  -0.466  25.069  1.00  0.00    -0.247 OA
HETATM   10  C1  UNL     1     -26.311  -3.089  26.313  1.00  0.00     0.204 C 
ATOM     11  H3  UNL     1     -24.567  -2.166  25.937  1.00  0.00     0.172 HD
HETATM   12  N1  UNL     1     -25.634  -4.335  26.320  1.00  0.00    -0.066 NA
HETATM   13  N2  UNL     1     -27.686  -2.938  26.525  1.00  0.00    -0.066 NA
ATOM     14  H4  UNL     1     -25.332  -0.200  27.914  1.00  0.00     0.168 HD
ENDBRANCH   1   6
BRANCH   1  15
HETATM   15  N5  UNL     1     -27.868   1.531  26.779  1.00  0.00    -0.026 N 
ATOM     16  H53 UNL     1     -27.940   1.496  25.763  1.00  0.00     0.279 HD
ATOM     17  H52 UNL     1     -28.370   0.679  27.027  1.00  0.00     0.279 HD
ATOM     18  H51 UNL     1     -28.370   2.345  27.135  1.00  0.00     0.279 HD
ENDBRANCH   1  15
BRANCH   3  19
HETATM   19  N8  UNL     1     -25.013   4.316  28.335  1.00  0.00    -0.324 N 
ATOM     20  H82 UNL     1     -25.285   5.297  28.276  1.00  0.00     0.178 HD
ATOM     21  H81 UNL     1     -24.171   4.572  28.852  1.00  0.00     0.178 HD
ENDBRANCH   3  19
TORSDOF 3
ENDMDL
MODEL 3
REMARK VINA RESULT: -6.286735548      1.781      5.592
REMARK  3 active torsions:
REMARK  status: ('A' for Active; 'I' for Inactive)
REMARK       I    between atoms: N3_4  and  C2_6 
REMARK       I    between atoms: C2_6  and  N4_8 
REMARK    1  A    between atoms: N4_8  and  C3_10 
REMARK    2  A    between atoms: C3_10  and  N5_11 
REMARK    3  A    between atoms: N7_16  and  N8_17 
ROOT
HETATM    1  C3  UNL     1     -27.024   0.317  26.235  1.00  0.00     0.376 A 
HETATM    2  N6  UNL     1     -26.916  -0.703  27.227  1.00  0.00    -0.044 NA
HETATM    3  N7  UNL     1     -26.595  -1.697  26.320  1.00  0.00    -0.163 N 
HETATM    4  C4  UNL     1     -26.590  -0.753  25.270  1.00  0.00     0.331 A 
HETATM    5  O2  UNL     1     -26.356  -0.681  24.040  1.00  0.00    -0.263 OA
ENDROOT
BRANCH   1   6
HETATM    6  N4  UNL     1     -26.097   1.394  26.238  1.00  0.00    -0.287 N 
HETATM    7  C2  UNL     1     -26.159   2.446  27.178  1.00  0.00     0.325 C 
HETATM    8  N3  UNL     1     -25.208   3.478  27.119  1.00  0.00    -0.285 N 
HETATM    9  O1  UNL     1     -27.042   2.499  28.080  1.00  0.00    -0.247 OA
HETATM   10  C1  UNL     1     -25.560   4.647  26.694  1.00  0.00     0.204 C 
ATOM     11  H3  UNL     1     -24.246   3.306  27.410  1.00  0.00     0.172 HD
HETATM   12  N1  UNL     1     -24.530   5.622  26.672  1.00  0.00    -0.066 NA
HETATM   13  N2  UNL     1     -26.879   4.884  26.294  1.00  0.00    -0.066 NA
ATOM     14  H4  UNL     1     -25.358   1.409  25.534  1.00  0.00     0.168 HD
ENDBRANCH   1   6
BRANCH   1  15
HETATM   15  N5  UNL     1     -28.420   0.681  26.042  1.00  0.00    -0.026 N 
ATOM     16  H53 UNL     1     -29.018  -0.120  26.246  1.00  0.00     0.279 HD
ATOM     17  H52 UNL     1     -28.717   1.323  26.776  1.00  0.00     0.279 HD
ATOM     18  H51 UNL     1     -28.657   1.066  25.128  1.00  0.00     0.279 HD
ENDBRANCH   1  15
BRANCH   3  19
HETATM   19  N8  UNL     1     -26.367  -3.060  26.392  1.00  0.00    -0.324 N 
ATOM     20  H82 UNL     1     -26.842  -3.881  26.016  1.00  0.00     0.178 HD
ATOM     21  H81 UNL     1     -25.667  -3.657  26.834  1.00  0.00     0.178 HD
ENDBRANCH   3  19
TORSDOF 3
ENDMDL
MODEL 4
REMARK VINA RESULT: -6.167083369      3.403      5.162
REMARK  3 active torsions:
REMARK  status: ('A' for Active; 'I' for Inactive)
REMARK       I    between atoms: N3_4  and  C2_6 
REMARK       I    between atoms: C2_6  and  N4_8 
REMARK    1  A    between atoms: N4_8  and  C3_10 
REMARK    2  A    between atoms: C3_10  and  N5_11 
REMARK    3  A    between atoms: N7_16  and  N8_17 
ROOT
HETATM    1  C3  UNL     1     -29.360   0.844  26.102  1.00  0.00     0.376 A 
HETATM    2  N6  UNL     1     -29.479   0.046  24.926  1.00  0.00    -0.044 NA
HETATM    3  N7  UNL     1     -30.413   0.876  24.331  1.00  0.00    -0.163 N 
HETATM    4  C4  UNL     1     -30.310   1.782  25.409  1.00  0.00     0.331 A 
HETATM    5  O2  UNL     1     -30.747   2.900  25.774  1.00  0.00    -0.263 OA
ENDROOT
BRANCH   1   6
HETATM    6  N4  UNL     1     -28.128   1.495  26.382  1.00  0.00    -0.287 N 
HETATM    7  C2  UNL     1     -27.051   0.841  27.018  1.00  0.00     0.325 C 
HETATM    8  N3  UNL     1     -25.864   1.549  27.263  1.00  0.00    -0.285 N 
HETATM    9  O1  UNL     1     -27.110  -0.369  27.380  1.00  0.00    -0.247 OA
HETATM   10  C1  UNL     1     -25.569   1.905  28.470  1.00  0.00     0.204 C 
ATOM     11  H3  UNL     1     -25.237   1.780  26.493  1.00  0.00     0.172 HD
HETATM   12  N1  UNL     1     -24.350   2.614  28.616  1.00  0.00    -0.066 NA
HETATM   13  N2  UNL     1     -26.428   1.588  29.528  1.00  0.00    -0.066 NA
ATOM     14  H4  UNL     1     -28.018   2.473  26.113  1.00  0.00     0.168 HD
ENDBRANCH   1   6
BRANCH   1  15
HETATM   15  N5  UNL     1     -29.993   0.172  27.228  1.00  0.00    -0.026 N 
ATOM     16  H53 UNL     1     -30.665  -0.516  26.887  1.00  0.00     0.279 HD
ATOM     17  H52 UNL     1     -29.322  -0.441  27.689  1.00  0.00     0.279 HD
ATOM     18  H51 UNL     1     -30.438   0.779  27.916  1.00  0.00     0.279 HD
ENDBRANCH   1  15
BRANCH   3  19
HETATM   19  N8  UNL     1     -31.153   0.848  23.162  1.00  0.00    -0.324 N 
ATOM     20  H82 UNL     1     -31.529   0.102  22.576  1.00  0.00     0.178 HD
ATOM     21  H81 UNL     1     -31.548   1.550  22.536  1.00  0.00     0.178 HD
ENDBRANCH   3  19
TORSDOF 3
ENDMDL
MODEL 5
REMARK VINA RESULT: -5.976042720      2.190      2.606
REMARK  3 active torsions:
REMARK  status: ('A' for Active; 'I' for Inactive)
REMARK       I    between atoms: N3_4  and  C2_6 
REMARK       I    between atoms: C2_6  and  N4_8 
REMARK    1  A    between atoms: N4_8  and  C3_10 
REMARK    2  A    between atoms: C3_10  and  N5_11 
REMARK    3  A    between atoms: N7_16  and  N8_17 
ROOT
HETATM    1  C3  UNL     1     -27.162   2.180  26.989  1.00  0.00     0.376 A 
HETATM    2  N6  UNL     1     -25.790   2.498  26.759  1.00  0.00    -0.044 NA
HETATM    3  N7  UNL     1     -25.392   2.180  28.045  1.00  0.00    -0.163 N 
HETATM    4  C4  UNL     1     -26.702   1.755  28.358  1.00  0.00     0.331 A 
HETATM    5  O2  UNL     1     -27.349   1.242  29.301  1.00  0.00    -0.263 OA
ENDROOT
BRANCH   1   6
HETATM    6  N4  UNL     1     -27.751   1.086  26.299  1.00  0.00    -0.287 N 
HETATM    7  C2  UNL     1     -27.034  -0.089  25.987  1.00  0.00     0.325 C 
HETATM    8  N3  UNL     1     -27.682  -1.129  25.301  1.00  0.00    -0.285 N 
HETATM    9  O1  UNL     1     -25.820  -0.248  26.303  1.00  0.00    -0.247 OA
HETATM   10  C1  UNL     1     -27.398  -1.351  24.060  1.00  0.00     0.204 C 
ATOM     11  H3  UNL     1     -28.374  -1.706  25.780  1.00  0.00     0.172 HD
HETATM   12  N1  UNL     1     -28.104  -2.422  23.455  1.00  0.00    -0.066 NA
HETATM   13  N2  UNL     1     -26.450  -0.560  23.402  1.00  0.00    -0.066 NA
ATOM     14  H4  UNL     1     -28.730   1.153  26.017  1.00  0.00     0.168 HD
ENDBRANCH   1   6
BRANCH   1  15
HETATM   15  N5  UNL     1     -27.955   3.399  27.043  1.00  0.00    -0.026 N 
ATOM     16  H53 UNL     1     -28.831   3.221  27.535  1.00  0.00     0.279 HD
ATOM     17  H52 UNL     1     -27.521   4.068  27.679  1.00  0.00     0.279 HD
ATOM     18  H51 UNL     1     -28.145   3.847  26.146  1.00  0.00     0.279 HD
ENDBRANCH   1  15
BRANCH   3  19
HETATM   19  N8  UNL     1     -24.204   2.242  28.752  1.00  0.00    -0.324 N 
ATOM     20  H82 UNL     1     -23.218   2.224  28.488  1.00  0.00     0.178 HD
ATOM     21  H81 UNL     1     -23.948   2.325  29.736  1.00  0.00     0.178 HD
ENDBRANCH   3  19
TORSDOF 3
ENDMDL
