MODEL 1
REMARK VINA RESULT: -6.047217472      0.000      0.000
REMARK  3 active torsions:
REMARK  status: ('A' for Active; 'I' for Inactive)
REMARK    1  A    between atoms: N1_1  and  C1_4 
REMARK    2  A    between atoms: C5_14  and  N5_15 
REMARK    3  A    between atoms: C6_19  and  N6_20 
ROOT
HETATM    1  C1  UNL     1     -14.220 -22.281  46.574  1.00  0.00     0.677 A 
HETATM    2  N2  UNL     1     -13.665 -23.024  47.547  1.00  0.00    -0.201 N 
ATOM      3  H2  UNL     1     -13.997 -23.978  47.693  1.00  0.00     0.183 HD
HETATM    4  C2  UNL     1     -12.696 -22.549  48.323  1.00  0.00     0.123 A 
HETATM    5  C3  UNL     1     -12.219 -21.251  48.151  1.00  0.00     0.051 A 
HETATM    6  C4  UNL     1     -12.782 -20.489  47.160  1.00  0.00     0.132 A 
HETATM    7  N3  UNL     1     -13.766 -21.031  46.404  1.00  0.00    -0.176 N 
ATOM      8  H3  UNL     1     -14.183 -20.460  45.669  1.00  0.00     0.186 HD
HETATM    9  N4  UNL     1     -12.214 -19.307  47.144  1.00  0.00    -0.343 N 
ATOM     10  H4  UNL     1     -12.451 -18.551  46.501  1.00  0.00     0.163 HD
HETATM   11  C5  UNL     1     -11.212 -19.235  48.163  1.00  0.00     0.334 A 
HETATM   12  C6  UNL     1     -11.272 -20.572  48.796  1.00  0.00     0.073 A 
ENDROOT
BRANCH  12  13
HETATM   13  N6  UNL     1     -10.488 -21.063  49.878  1.00  0.00    -0.377 N 
HETATM   14  C7  UNL     1      -9.118 -21.483  49.723  1.00  0.00     0.142 C 
HETATM   15  C8  UNL     1      -8.423 -21.273  51.052  1.00  0.00     0.133 C 
HETATM   16  N7  UNL     1      -9.005 -22.132  52.024  1.00  0.00    -0.418 N 
HETATM   17  C9  UNL     1     -10.421 -22.118  52.097  1.00  0.00     0.133 C 
ATOM     18  H7  UNL     1      -8.438 -22.723  52.633  1.00  0.00     0.153 HD
HETATM   19  C10 UNL     1     -11.094 -21.142  51.183  1.00  0.00     0.142 C 
ENDBRANCH  12  13
BRANCH  11  20
HETATM   20  N5  UNL     1      -9.927 -19.008  47.511  1.00  0.00    -0.053 N 
ATOM     21  H53 UNL     1      -9.272 -19.776  47.651  1.00  0.00     0.277 HD
ATOM     22  H52 UNL     1      -9.985 -19.061  46.494  1.00  0.00     0.277 HD
ATOM     23  H51 UNL     1      -9.563 -18.113  47.840  1.00  0.00     0.277 HD
ENDBRANCH  11  20
BRANCH   1  24
HETATM   24  N1  UNL     1     -15.156 -22.808  45.862  1.00  0.00    -0.234 N 
ATOM     25  H12 UNL     1     -15.581 -23.713  46.063  1.00  0.00     0.174 HD
ATOM     26  H11 UNL     1     -15.491 -22.293  45.049  1.00  0.00     0.174 HD
ENDBRANCH   1  24
TORSDOF 3
ENDMDL
MODEL 2
REMARK VINA RESULT: -6.003245682      1.493      2.268
REMARK  3 active torsions:
REMARK  status: ('A' for Active; 'I' for Inactive)
REMARK    1  A    between atoms: N1_1  and  C1_4 
REMARK    2  A    between atoms: C5_14  and  N5_15 
REMARK    3  A    between atoms: C6_19  and  N6_20 
ROOT
HETATM    1  C1  UNL     1     -14.686 -23.425  45.719  1.00  0.00     0.677 A 
HETATM    2  N2  UNL     1     -13.545 -23.787  46.331  1.00  0.00    -0.201 N 
ATOM      3  H2  UNL     1     -13.197 -24.739  46.210  1.00  0.00     0.183 HD
HETATM    4  C2  UNL     1     -12.859 -22.939  47.090  1.00  0.00     0.123 A 
HETATM    5  C3  UNL     1     -13.305 -21.631  47.277  1.00  0.00     0.051 A 
HETATM    6  C4  UNL     1     -14.467 -21.256  46.654  1.00  0.00     0.132 A 
HETATM    7  N3  UNL     1     -15.120 -22.168  45.895  1.00  0.00    -0.176 N 
ATOM      8  H3  UNL     1     -15.985 -21.885  45.435  1.00  0.00     0.186 HD
HETATM    9  N4  UNL     1     -14.730 -20.004  46.941  1.00  0.00    -0.343 N 
ATOM     10  H4  UNL     1     -15.539 -19.483  46.603  1.00  0.00     0.163 HD
HETATM   11  C5  UNL     1     -13.713 -19.477  47.797  1.00  0.00     0.334 A 
HETATM   12  C6  UNL     1     -12.792 -20.623  47.979  1.00  0.00     0.073 A 
ENDROOT
BRANCH  12  13
HETATM   13  N6  UNL     1     -11.593 -20.668  48.746  1.00  0.00    -0.377 N 
HETATM   14  C7  UNL     1     -11.485 -21.396  49.984  1.00  0.00     0.142 C 
HETATM   15  C8  UNL     1     -10.036 -21.807  50.147  1.00  0.00     0.133 C 
HETATM   16  N7  UNL     1      -9.234 -20.642  50.289  1.00  0.00    -0.418 N 
HETATM   17  C9  UNL     1      -9.447 -19.621  49.328  1.00  0.00     0.133 C 
ATOM     18  H7  UNL     1      -8.546 -20.546  51.036  1.00  0.00     0.153 HD
HETATM   19  C10 UNL     1     -10.441 -19.953  48.259  1.00  0.00     0.142 C 
ENDBRANCH  12  13
BRANCH  11  20
HETATM   20  N5  UNL     1     -13.064 -18.375  47.096  1.00  0.00    -0.053 N 
ATOM     21  H53 UNL     1     -13.373 -18.285  46.128  1.00  0.00     0.277 HD
ATOM     22  H52 UNL     1     -13.374 -17.460  47.423  1.00  0.00     0.277 HD
ATOM     23  H51 UNL     1     -12.055 -18.502  47.178  1.00  0.00     0.277 HD
ENDBRANCH  11  20
BRANCH   1  24
HETATM   24  N1  UNL     1     -15.297 -24.301  45.000  1.00  0.00    -0.234 N 
ATOM     25  H12 UNL     1     -14.822 -24.979  44.404  1.00  0.00     0.174 HD
ATOM     26  H11 UNL     1     -16.316 -24.319  45.024  1.00  0.00     0.174 HD
ENDBRANCH   1  24
TORSDOF 3
ENDMDL
MODEL 3
REMARK VINA RESULT: -5.992101111      0.120      1.191
REMARK  3 active torsions:
REMARK  status: ('A' for Active; 'I' for Inactive)
REMARK    1  A    between atoms: N1_1  and  C1_4 
REMARK    2  A    between atoms: C5_14  and  N5_15 
REMARK    3  A    between atoms: C6_19  and  N6_20 
ROOT
HETATM    1  C1  UNL     1     -14.182 -22.287  46.552  1.00  0.00     0.677 A 
HETATM    2  N2  UNL     1     -13.649 -23.005  47.555  1.00  0.00    -0.201 N 
ATOM      3  H2  UNL     1     -13.984 -23.954  47.720  1.00  0.00     0.183 HD
HETATM    4  C2  UNL     1     -12.695 -22.511  48.339  1.00  0.00     0.123 A 
HETATM    5  C3  UNL     1     -12.212 -21.218  48.143  1.00  0.00     0.051 A 
HETATM    6  C4  UNL     1     -12.753 -20.481  47.121  1.00  0.00     0.132 A 
HETATM    7  N3  UNL     1     -13.722 -21.042  46.359  1.00  0.00    -0.176 N 
ATOM      8  H3  UNL     1     -14.122 -20.490  45.600  1.00  0.00     0.186 HD
HETATM    9  N4  UNL     1     -12.183 -19.301  47.086  1.00  0.00    -0.343 N 
ATOM     10  H4  UNL     1     -12.405 -18.562  46.419  1.00  0.00     0.163 HD
HETATM   11  C5  UNL     1     -11.203 -19.203  48.124  1.00  0.00     0.334 A 
HETATM   12  C6  UNL     1     -11.278 -20.524  48.790  1.00  0.00     0.073 A 
ENDROOT
BRANCH  12  13
HETATM   13  N6  UNL     1     -10.518 -20.987  49.901  1.00  0.00    -0.377 N 
HETATM   14  C7  UNL     1     -11.063 -21.091  51.232  1.00  0.00     0.142 C 
HETATM   15  C8  UNL     1     -10.309 -22.191  51.949  1.00  0.00     0.133 C 
HETATM   16  N7  UNL     1      -8.948 -21.805  52.096  1.00  0.00    -0.418 N 
HETATM   17  C9  UNL     1      -8.309 -21.327  50.924  1.00  0.00     0.133 C 
ATOM     18  H7  UNL     1      -8.461 -21.868  52.990  1.00  0.00     0.153 HD
HETATM   19  C10 UNL     1      -9.146 -21.367  49.683  1.00  0.00     0.142 C 
ENDBRANCH  12  13
BRANCH  11  20
HETATM   20  N5  UNL     1      -9.904 -18.995  47.494  1.00  0.00    -0.053 N 
ATOM     21  H53 UNL     1      -9.951 -19.010  46.476  1.00  0.00     0.277 HD
ATOM     22  H52 UNL     1      -9.562 -18.040  47.600  1.00  0.00     0.277 HD
ATOM     23  H51 UNL     1      -9.258 -19.690  47.870  1.00  0.00     0.277 HD
ENDBRANCH  11  20
BRANCH   1  24
HETATM   24  N1  UNL     1     -15.103 -22.831  45.835  1.00  0.00    -0.234 N 
ATOM     25  H12 UNL     1     -15.511 -22.394  45.009  1.00  0.00     0.174 HD
ATOM     26  H11 UNL     1     -15.446 -23.752  46.107  1.00  0.00     0.174 HD
ENDBRANCH   1  24
TORSDOF 3
ENDMDL
MODEL 4
REMARK VINA RESULT: -5.888802902      1.578      2.138
REMARK  3 active torsions:
REMARK  status: ('A' for Active; 'I' for Inactive)
REMARK    1  A    between atoms: N1_1  and  C1_4 
REMARK    2  A    between atoms: C5_14  and  N5_15 
REMARK    3  A    between atoms: C6_19  and  N6_20 
ROOT
HETATM    1  C1  UNL     1     -12.738 -19.989  46.378  1.00  0.00     0.677 A 
HETATM    2  N2  UNL     1     -13.035 -20.988  47.227  1.00  0.00    -0.201 N 
ATOM      3  H2  UNL     1     -13.829 -21.594  47.022  1.00  0.00     0.183 HD
HETATM    4  C2  UNL     1     -12.320 -21.207  48.326  1.00  0.00     0.123 A 
HETATM    5  C3  UNL     1     -11.228 -20.398  48.637  1.00  0.00     0.051 A 
HETATM    6  C4  UNL     1     -10.921 -19.378  47.774  1.00  0.00     0.132 A 
HETATM    7  N3  UNL     1     -11.689 -19.208  46.672  1.00  0.00    -0.176 N 
ATOM      8  H3  UNL     1     -11.457 -18.447  46.033  1.00  0.00     0.186 HD
HETATM    9  N4  UNL     1      -9.874 -18.729  48.222  1.00  0.00    -0.343 N 
ATOM     10  H4  UNL     1      -9.443 -17.925  47.766  1.00  0.00     0.163 HD
HETATM   11  C5  UNL     1      -9.426 -19.315  49.448  1.00  0.00     0.334 A 
HETATM   12  C6  UNL     1     -10.380 -20.427  49.663  1.00  0.00     0.073 A 
ENDROOT
BRANCH  12  13
HETATM   13  N6  UNL     1     -10.410 -21.357  50.741  1.00  0.00    -0.377 N 
HETATM   14  C7  UNL     1     -10.023 -22.737  50.593  1.00  0.00     0.142 C 
HETATM   15  C8  UNL     1      -9.518 -23.216  51.938  1.00  0.00     0.133 C 
HETATM   16  N7  UNL     1     -10.589 -23.192  52.874  1.00  0.00    -0.418 N 
HETATM   17  C9  UNL     1     -11.340 -21.991  52.926  1.00  0.00     0.133 C 
ATOM     18  H7  UNL     1     -10.804 -23.990  53.471  1.00  0.00     0.153 HD
HETATM   19  C10 UNL     1     -10.848 -20.895  52.034  1.00  0.00     0.142 C 
ENDBRANCH  12  13
BRANCH  11  20
HETATM   20  N5  UNL     1      -8.069 -19.807  49.239  1.00  0.00    -0.053 N 
ATOM     21  H53 UNL     1      -7.926 -20.745  49.612  1.00  0.00     0.277 HD
ATOM     22  H52 UNL     1      -7.871 -20.018  48.261  1.00  0.00     0.277 HD
ATOM     23  H51 UNL     1      -7.423 -19.122  49.633  1.00  0.00     0.277 HD
ENDBRANCH  11  20
BRANCH   1  24
HETATM   24  N1  UNL     1     -13.476 -19.837  45.333  1.00  0.00    -0.234 N 
ATOM     25  H12 UNL     1     -13.579 -20.542  44.603  1.00  0.00     0.174 HD
ATOM     26  H11 UNL     1     -13.987 -18.962  45.226  1.00  0.00     0.174 HD
ENDBRANCH   1  24
TORSDOF 3
ENDMDL
MODEL 5
REMARK VINA RESULT: -5.869031935      1.684      5.578
REMARK  3 active torsions:
REMARK  status: ('A' for Active; 'I' for Inactive)
REMARK    1  A    between atoms: N1_1  and  C1_4 
REMARK    2  A    between atoms: C5_14  and  N5_15 
REMARK    3  A    between atoms: C6_19  and  N6_20 
ROOT
HETATM    1  C1  UNL     1      -8.322 -18.620  48.467  1.00  0.00     0.677 A 
HETATM    2  N2  UNL     1      -9.317 -18.524  47.568  1.00  0.00    -0.201 N 
ATOM      3  H2  UNL     1      -9.234 -17.851  46.806  1.00  0.00     0.183 HD
HETATM    4  C2  UNL     1     -10.406 -19.283  47.647  1.00  0.00     0.123 A 
HETATM    5  C3  UNL     1     -10.551 -20.212  48.676  1.00  0.00     0.051 A 
HETATM    6  C4  UNL     1      -9.539 -20.314  49.594  1.00  0.00     0.132 A 
HETATM    7  N3  UNL     1      -8.457 -19.512  49.458  1.00  0.00    -0.176 N 
ATOM      8  H3  UNL     1      -7.706 -19.590  50.145  1.00  0.00     0.186 HD
HETATM    9  N4  UNL     1      -9.846 -21.230  50.480  1.00  0.00    -0.343 N 
ATOM     10  H4  UNL     1      -9.261 -21.500  51.271  1.00  0.00     0.163 HD
HETATM   11  C5  UNL     1     -11.123 -21.796  50.173  1.00  0.00     0.334 A 
HETATM   12  C6  UNL     1     -11.535 -21.066  48.952  1.00  0.00     0.073 A 
ENDROOT
BRANCH  12  13
HETATM   13  N6  UNL     1     -12.736 -21.222  48.203  1.00  0.00    -0.377 N 
HETATM   14  C7  UNL     1     -13.094 -22.457  47.550  1.00  0.00     0.142 C 
HETATM   15  C8  UNL     1     -14.605 -22.511  47.474  1.00  0.00     0.133 C 
HETATM   16  N7  UNL     1     -15.069 -21.459  46.638  1.00  0.00    -0.418 N 
HETATM   17  C9  UNL     1     -14.543 -20.170  46.913  1.00  0.00     0.133 C 
ATOM     18  H7  UNL     1     -15.738 -21.620  45.885  1.00  0.00     0.153 HD
HETATM   19  C10 UNL     1     -13.629 -20.097  48.095  1.00  0.00     0.142 C 
ENDBRANCH  12  13
BRANCH  11  20
HETATM   20  N5  UNL     1     -10.931 -23.218  49.907  1.00  0.00    -0.053 N 
ATOM     21  H53 UNL     1     -11.212 -23.808  50.689  1.00  0.00     0.277 HD
ATOM     22  H52 UNL     1     -11.588 -23.583  49.218  1.00  0.00     0.277 HD
ATOM     23  H51 UNL     1      -9.957 -23.357  49.637  1.00  0.00     0.277 HD
ENDBRANCH  11  20
BRANCH   1  24
HETATM   24  N1  UNL     1      -7.297 -17.852  48.326  1.00  0.00    -0.234 N 
ATOM     25  H12 UNL     1      -7.348 -16.895  47.977  1.00  0.00     0.174 HD
ATOM     26  H11 UNL     1      -6.380 -18.219  48.578  1.00  0.00     0.174 HD
ENDBRANCH   1  24
TORSDOF 3
ENDMDL
