MODEL 1
REMARK VINA RESULT: -5.819916881      0.000      0.000
REMARK  9 active torsions:
REMARK  status: ('A' for Active; 'I' for Inactive)
REMARK    1  A    between atoms: N1_2  and  O1_3 
REMARK       I    between atoms: N1_2  and  C2_5 
REMARK    2  A    between atoms: C2_5  and  C3_7 
REMARK    3  A    between atoms: C3_7  and  C4_8 
REMARK    4  A    between atoms: N3_15  and  C8_16 
REMARK    5  A    between atoms: C9_19  and  C10_20 
REMARK    6  A    between atoms: C10_20  and  O4_21 
REMARK    7  A    between atoms: C10_20  and  C11_23 
REMARK    8  A    between atoms: C11_23  and  N5_24 
REMARK    9  A    between atoms: C11_23  and  O5_28 
ROOT
HETATM    1  C8  UNL     1      14.190  17.217  77.893  1.00  0.00     0.697 A 
HETATM    2  N4  UNL     1      14.229  17.634  76.621  1.00  0.00    -0.177 N 
ATOM      3  H4  UNL     1      15.016  18.204  76.312  1.00  0.00     0.185 HD
HETATM    4  C9  UNL     1      13.260  17.321  75.736  1.00  0.00     0.146 A 
HETATM    5  N6  UNL     1      12.235  16.572  76.154  1.00  0.00    -0.177 N 
ATOM      6  H6  UNL     1      11.496  16.327  75.495  1.00  0.00     0.185 HD
HETATM    7  C12 UNL     1      12.156  16.130  77.430  1.00  0.00     0.691 A 
HETATM    8  N7  UNL     1      11.199  15.415  77.865  1.00  0.00    -0.234 N 
ATOM      9  H71 UNL     1      11.139  15.082  78.827  1.00  0.00     0.174 HD
ATOM     10  H72 UNL     1      10.452  15.162  77.218  1.00  0.00     0.174 HD
HETATM   11  N8  UNL     1      13.159  16.470  78.297  1.00  0.00    -0.022 N 
ATOM     12  H8  UNL     1      13.119  16.148  79.264  1.00  0.00     0.203 HD
ENDROOT
BRANCH   1  13
HETATM   13  N3  UNL     1      15.213  17.550  78.800  1.00  0.00    -0.202 N 
HETATM   14  C4  UNL     1      16.323  18.432  78.386  1.00  0.00     0.203 C 
HETATM   15  C5  UNL     1      17.537  17.652  78.640  1.00  0.00     0.241 C 
HETATM   16  O3  UNL     1      18.453  17.607  77.800  1.00  0.00    -0.271 OA
HETATM   17  N2  UNL     1      17.676  16.941  79.854  1.00  0.00    -0.358 N 
HETATM   18  C6  UNL     1      16.558  16.842  80.754  1.00  0.00     0.143 C 
ATOM     19  H2  UNL     1      18.565  16.499  80.090  1.00  0.00     0.162 HD
HETATM   20  C7  UNL     1      15.221  17.062  80.145  1.00  0.00     0.162 C 
BRANCH  14  21
HETATM   21  C3  UNL     1      16.183  19.676  79.205  1.00  0.00     0.140 C 
BRANCH  21  22
HETATM   22  C2  UNL     1      15.323  20.710  78.595  1.00  0.00     0.245 C 
HETATM   23  N1  UNL     1      14.930  21.849  79.335  1.00  0.00    -0.233 N 
HETATM   24  C1  UNL     1      14.092  22.893  78.783  1.00  0.00     0.188 C 
HETATM   25  O2  UNL     1      14.921  20.606  77.413  1.00  0.00    -0.271 OA
BRANCH  23  26
HETATM   26  O1  UNL     1      15.350  21.987  80.624  1.00  0.00    -0.285 OA
ATOM     27  H1  UNL     1      14.701  22.211  81.280  1.00  0.00     0.245 HD
ENDBRANCH  23  26
ENDBRANCH  21  22
ENDBRANCH  14  21
ENDBRANCH   1  13
BRANCH   4  28
HETATM   28  C10 UNL     1      13.290  17.783  74.335  1.00  0.00     0.242 C 
BRANCH  28  29
HETATM   29  O4  UNL     1      13.244  16.684  73.450  1.00  0.00    -0.384 OA
ATOM     30  H4  UNL     1      14.117  16.340  73.301  1.00  0.00     0.210 HD
ENDBRANCH  28  29
BRANCH  28  31
HETATM   31  C11 UNL     1      12.100  18.647  74.076  1.00  0.00     0.352 C 
BRANCH  31  32
HETATM   32  N5  UNL     1      12.154  19.824  74.910  1.00  0.00    -0.050 N 
ATOM     33  H53 UNL     1      13.084  20.243  74.921  1.00  0.00     0.277 HD
ATOM     34  H52 UNL     1      11.644  20.607  74.500  1.00  0.00     0.277 HD
ATOM     35  H51 UNL     1      11.823  19.602  75.849  1.00  0.00     0.277 HD
ENDBRANCH  31  32
BRANCH  31  36
HETATM   36  O5  UNL     1      12.081  19.090  72.746  1.00  0.00    -0.368 OA
ATOM     37  H5  UNL     1      11.309  19.616  72.574  1.00  0.00     0.212 HD
ENDBRANCH  31  36
ENDBRANCH  28  31
ENDBRANCH   4  28
TORSDOF 9
ENDMDL
MODEL 2
REMARK VINA RESULT: -5.791531080      3.769      6.873
REMARK  9 active torsions:
REMARK  status: ('A' for Active; 'I' for Inactive)
REMARK    1  A    between atoms: N1_2  and  O1_3 
REMARK       I    between atoms: N1_2  and  C2_5 
REMARK    2  A    between atoms: C2_5  and  C3_7 
REMARK    3  A    between atoms: C3_7  and  C4_8 
REMARK    4  A    between atoms: N3_15  and  C8_16 
REMARK    5  A    between atoms: C9_19  and  C10_20 
REMARK    6  A    between atoms: C10_20  and  O4_21 
REMARK    7  A    between atoms: C10_20  and  C11_23 
REMARK    8  A    between atoms: C11_23  and  N5_24 
REMARK    9  A    between atoms: C11_23  and  O5_28 
ROOT
HETATM    1  C8  UNL     1      11.455  19.157  76.965  1.00  0.00     0.697 A 
HETATM    2  N4  UNL     1      11.898  18.293  76.043  1.00  0.00    -0.177 N 
ATOM      3  H4  UNL     1      11.256  17.594  75.671  1.00  0.00     0.185 HD
HETATM    4  C9  UNL     1      13.169  18.318  75.592  1.00  0.00     0.146 A 
HETATM    5  N6  UNL     1      14.001  19.240  76.088  1.00  0.00    -0.177 N 
ATOM      6  H6  UNL     1      14.965  19.271  75.755  1.00  0.00     0.185 HD
HETATM    7  C12 UNL     1      13.595  20.131  77.019  1.00  0.00     0.691 A 
HETATM    8  N7  UNL     1      14.355  21.023  77.514  1.00  0.00    -0.234 N 
ATOM      9  H71 UNL     1      14.049  21.695  78.217  1.00  0.00     0.174 HD
ATOM     10  H72 UNL     1      15.322  21.067  77.191  1.00  0.00     0.174 HD
HETATM   11  N8  UNL     1      12.298  20.072  77.452  1.00  0.00    -0.022 N 
ATOM     12  H8  UNL     1      11.971  20.735  78.155  1.00  0.00     0.203 HD
ENDROOT
BRANCH   1  13
HETATM   13  N3  UNL     1      10.124  19.118  77.419  1.00  0.00    -0.202 N 
HETATM   14  C4  UNL     1       9.043  18.646  76.531  1.00  0.00     0.203 C 
HETATM   15  C5  UNL     1       8.083  19.752  76.485  1.00  0.00     0.241 C 
HETATM   16  O3  UNL     1       7.584  20.119  75.407  1.00  0.00    -0.271 OA
HETATM   17  N2  UNL     1       7.716  20.414  77.679  1.00  0.00    -0.358 N 
HETATM   18  C6  UNL     1       8.412  20.118  78.903  1.00  0.00     0.143 C 
ATOM     19  H2  UNL     1       6.959  21.099  77.673  1.00  0.00     0.162 HD
HETATM   20  C7  UNL     1       9.763  19.521  78.744  1.00  0.00     0.162 C 
BRANCH  14  21
HETATM   21  C3  UNL     1       8.529  17.383  77.148  1.00  0.00     0.140 C 
BRANCH  21  22
HETATM   22  C2  UNL     1       8.247  16.306  76.178  1.00  0.00     0.245 C 
HETATM   23  N1  UNL     1       9.300  15.544  75.621  1.00  0.00    -0.233 N 
HETATM   24  C1  UNL     1       9.078  14.475  74.670  1.00  0.00     0.188 C 
HETATM   25  O2  UNL     1       7.075  16.039  75.825  1.00  0.00    -0.271 OA
BRANCH  23  26
HETATM   26  O1  UNL     1      10.585  15.814  75.984  1.00  0.00    -0.285 OA
ATOM     27  H1  UNL     1      10.901  16.703  75.869  1.00  0.00     0.245 HD
ENDBRANCH  23  26
ENDBRANCH  21  22
ENDBRANCH  14  21
ENDBRANCH   1  13
BRANCH   4  28
HETATM   28  C10 UNL     1      13.669  17.363  74.584  1.00  0.00     0.242 C 
BRANCH  28  29
HETATM   29  O4  UNL     1      13.370  16.038  74.966  1.00  0.00    -0.384 OA
ATOM     30  H4  UNL     1      12.462  15.834  74.774  1.00  0.00     0.210 HD
ENDBRANCH  28  29
BRANCH  28  31
HETATM   31  C11 UNL     1      13.006  17.638  73.275  1.00  0.00     0.352 C 
BRANCH  31  32
HETATM   32  N5  UNL     1      11.841  16.797  73.126  1.00  0.00    -0.050 N 
ATOM     33  H53 UNL     1      12.083  15.806  73.128  1.00  0.00     0.277 HD
ATOM     34  H52 UNL     1      11.253  16.808  73.959  1.00  0.00     0.277 HD
ATOM     35  H51 UNL     1      11.323  17.064  72.289  1.00  0.00     0.277 HD
ENDBRANCH  31  32
BRANCH  31  36
HETATM   36  O5  UNL     1      12.561  18.965  73.205  1.00  0.00    -0.368 OA
ATOM     37  H5  UNL     1      12.790  19.357  72.370  1.00  0.00     0.212 HD
ENDBRANCH  31  36
ENDBRANCH  28  31
ENDBRANCH   4  28
TORSDOF 9
ENDMDL
MODEL 3
REMARK VINA RESULT: -5.772988403      5.155      7.310
REMARK  9 active torsions:
REMARK  status: ('A' for Active; 'I' for Inactive)
REMARK    1  A    between atoms: N1_2  and  O1_3 
REMARK       I    between atoms: N1_2  and  C2_5 
REMARK    2  A    between atoms: C2_5  and  C3_7 
REMARK    3  A    between atoms: C3_7  and  C4_8 
REMARK    4  A    between atoms: N3_15  and  C8_16 
REMARK    5  A    between atoms: C9_19  and  C10_20 
REMARK    6  A    between atoms: C10_20  and  O4_21 
REMARK    7  A    between atoms: C10_20  and  C11_23 
REMARK    8  A    between atoms: C11_23  and  N5_24 
REMARK    9  A    between atoms: C11_23  and  O5_28 
ROOT
HETATM    1  C8  UNL     1      10.391  15.996  75.010  1.00  0.00     0.697 A 
HETATM    2  N4  UNL     1      10.360  17.274  75.410  1.00  0.00    -0.177 N 
ATOM      3  H4  UNL     1       9.642  17.568  76.071  1.00  0.00     0.185 HD
HETATM    4  C9  UNL     1      11.251  18.183  74.963  1.00  0.00     0.146 A 
HETATM    5  N6  UNL     1      12.187  17.785  74.097  1.00  0.00    -0.177 N 
ATOM      6  H6  UNL     1      12.867  18.462  73.752  1.00  0.00     0.185 HD
HETATM    7  C12 UNL     1      12.254  16.504  73.668  1.00  0.00     0.691 A 
HETATM    8  N7  UNL     1      13.130  16.086  72.846  1.00  0.00    -0.234 N 
ATOM      9  H71 UNL     1      13.180  15.121  72.522  1.00  0.00     0.174 HD
ATOM     10  H72 UNL     1      13.817  16.752  72.492  1.00  0.00     0.174 HD
HETATM   11  N8  UNL     1      11.332  15.612  74.143  1.00  0.00    -0.022 N 
ATOM     12  H8  UNL     1      11.364  14.641  73.832  1.00  0.00     0.203 HD
ENDROOT
BRANCH   1  13
HETATM   13  N3  UNL     1       9.456  15.060  75.490  1.00  0.00    -0.202 N 
HETATM   14  C4  UNL     1       9.123  15.006  76.928  1.00  0.00     0.203 C 
HETATM   15  C5  UNL     1       9.412  13.626  77.329  1.00  0.00     0.241 C 
HETATM   16  O3  UNL     1      10.026  13.383  78.383  1.00  0.00    -0.271 OA
HETATM   17  N2  UNL     1       8.990  12.553  76.512  1.00  0.00    -0.358 N 
HETATM   18  C6  UNL     1       8.437  12.821  75.211  1.00  0.00     0.143 C 
ATOM     19  H2  UNL     1       9.077  11.592  76.843  1.00  0.00     0.162 HD
HETATM   20  C7  UNL     1       8.792  14.138  74.621  1.00  0.00     0.162 C 
BRANCH  14  21
HETATM   21  C3  UNL     1       7.686  15.409  77.030  1.00  0.00     0.140 C 
BRANCH  21  22
HETATM   22  C2  UNL     1       7.456  16.864  76.920  1.00  0.00     0.245 C 
HETATM   23  N1  UNL     1       6.429  17.371  76.091  1.00  0.00    -0.233 N 
HETATM   24  C1  UNL     1       6.159  18.786  75.950  1.00  0.00     0.188 C 
HETATM   25  O2  UNL     1       8.160  17.684  77.554  1.00  0.00    -0.271 OA
BRANCH  23  26
HETATM   26  O1  UNL     1       5.649  16.503  75.386  1.00  0.00    -0.285 OA
ATOM     27  H1  UNL     1       5.139  15.868  75.876  1.00  0.00     0.245 HD
ENDBRANCH  23  26
ENDBRANCH  21  22
ENDBRANCH  14  21
ENDBRANCH   1  13
BRANCH   4  28
HETATM   28  C10 UNL     1      11.219  19.596  75.391  1.00  0.00     0.242 C 
BRANCH  28  29
HETATM   29  O4  UNL     1      11.924  20.406  74.474  1.00  0.00    -0.384 OA
ATOM     30  H4  UNL     1      12.174  19.901  73.709  1.00  0.00     0.210 HD
ENDBRANCH  28  29
BRANCH  28  31
HETATM   31  C11 UNL     1       9.802  20.064  75.439  1.00  0.00     0.352 C 
BRANCH  31  32
HETATM   32  N5  UNL     1       9.464  20.475  76.782  1.00  0.00    -0.050 N 
ATOM     33  H53 UNL     1      10.058  20.028  77.479  1.00  0.00     0.277 HD
ATOM     34  H52 UNL     1       9.725  21.444  76.962  1.00  0.00     0.277 HD
ATOM     35  H51 UNL     1       8.473  20.307  76.958  1.00  0.00     0.277 HD
ENDBRANCH  31  32
BRANCH  31  36
HETATM   36  O5  UNL     1       9.612  21.179  74.612  1.00  0.00    -0.368 OA
ATOM     37  H5  UNL     1       9.013  21.800  75.010  1.00  0.00     0.212 HD
ENDBRANCH  31  36
ENDBRANCH  28  31
ENDBRANCH   4  28
TORSDOF 9
ENDMDL
MODEL 4
REMARK VINA RESULT: -5.700064053      4.115      6.209
REMARK  9 active torsions:
REMARK  status: ('A' for Active; 'I' for Inactive)
REMARK    1  A    between atoms: N1_2  and  O1_3 
REMARK       I    between atoms: N1_2  and  C2_5 
REMARK    2  A    between atoms: C2_5  and  C3_7 
REMARK    3  A    between atoms: C3_7  and  C4_8 
REMARK    4  A    between atoms: N3_15  and  C8_16 
REMARK    5  A    between atoms: C9_19  and  C10_20 
REMARK    6  A    between atoms: C10_20  and  O4_21 
REMARK    7  A    between atoms: C10_20  and  C11_23 
REMARK    8  A    between atoms: C11_23  and  N5_24 
REMARK    9  A    between atoms: C11_23  and  O5_28 
ROOT
HETATM    1  C8  UNL     1       9.544  20.128  76.207  1.00  0.00     0.697 A 
HETATM    2  N4  UNL     1       9.127  20.974  75.256  1.00  0.00    -0.177 N 
ATOM      3  H4  UNL     1       9.444  20.836  74.297  1.00  0.00     0.185 HD
HETATM    4  C9  UNL     1       8.299  22.004  75.529  1.00  0.00     0.146 A 
HETATM    5  N6  UNL     1       7.890  22.174  76.790  1.00  0.00    -0.177 N 
ATOM      6  H6  UNL     1       7.264  22.948  77.011  1.00  0.00     0.185 HD
HETATM    7  C12 UNL     1       8.287  21.343  77.780  1.00  0.00     0.691 A 
HETATM    8  N7  UNL     1       7.919  21.470  78.991  1.00  0.00    -0.234 N 
ATOM      9  H71 UNL     1       8.219  20.844  79.738  1.00  0.00     0.174 HD
ATOM     10  H72 UNL     1       7.293  22.239  79.227  1.00  0.00     0.174 HD
HETATM   11  N8  UNL     1       9.128  20.310  77.463  1.00  0.00    -0.022 N 
ATOM     12  H8  UNL     1       9.440  19.672  78.195  1.00  0.00     0.203 HD
ENDROOT
BRANCH   1  13
HETATM   13  N3  UNL     1      10.404  19.057  75.902  1.00  0.00    -0.202 N 
HETATM   14  C4  UNL     1      11.752  19.311  75.355  1.00  0.00     0.203 C 
HETATM   15  C5  UNL     1      11.791  18.570  74.091  1.00  0.00     0.241 C 
HETATM   16  O3  UNL     1      12.258  19.089  73.062  1.00  0.00    -0.271 OA
HETATM   17  N2  UNL     1      11.294  17.248  74.035  1.00  0.00    -0.358 N 
HETATM   18  C6  UNL     1      10.595  16.700  75.167  1.00  0.00     0.143 C 
ATOM     19  H2  UNL     1      11.430  16.685  73.195  1.00  0.00     0.162 HD
HETATM   20  C7  UNL     1      10.020  17.694  76.110  1.00  0.00     0.162 C 
BRANCH  14  21
HETATM   21  C3  UNL     1      12.712  18.837  76.400  1.00  0.00     0.140 C 
BRANCH  21  22
HETATM   22  C2  UNL     1      13.623  19.884  76.904  1.00  0.00     0.245 C 
HETATM   23  N1  UNL     1      13.251  20.698  77.999  1.00  0.00    -0.233 N 
HETATM   24  C1  UNL     1      14.107  21.735  78.534  1.00  0.00     0.188 C 
HETATM   25  O2  UNL     1      14.745  20.079  76.380  1.00  0.00    -0.271 OA
BRANCH  23  26
HETATM   26  O1  UNL     1      12.035  20.511  78.587  1.00  0.00    -0.285 OA
ATOM     27  H1  UNL     1      11.276  20.437  78.021  1.00  0.00     0.245 HD
ENDBRANCH  23  26
ENDBRANCH  21  22
ENDBRANCH  14  21
ENDBRANCH   1  13
BRANCH   4  28
HETATM   28  C10 UNL     1       7.842  22.947  74.490  1.00  0.00     0.242 C 
BRANCH  28  29
HETATM   29  O4  UNL     1       8.707  22.911  73.375  1.00  0.00    -0.384 OA
ATOM     30  H4  UNL     1       8.208  22.949  72.567  1.00  0.00     0.210 HD
ENDBRANCH  28  29
BRANCH  28  31
HETATM   31  C11 UNL     1       6.474  22.556  74.039  1.00  0.00     0.352 C 
BRANCH  31  32
HETATM   32  N5  UNL     1       6.306  22.875  72.640  1.00  0.00    -0.050 N 
ATOM     33  H53 UNL     1       5.798  23.749  72.506  1.00  0.00     0.277 HD
ATOM     34  H52 UNL     1       7.186  23.146  72.201  1.00  0.00     0.277 HD
ATOM     35  H51 UNL     1       5.861  22.095  72.156  1.00  0.00     0.277 HD
ENDBRANCH  31  32
BRANCH  31  36
HETATM   36  O5  UNL     1       6.277  21.175  74.168  1.00  0.00    -0.368 OA
ATOM     37  H5  UNL     1       6.284  20.749  73.318  1.00  0.00     0.212 HD
ENDBRANCH  31  36
ENDBRANCH  28  31
ENDBRANCH   4  28
TORSDOF 9
ENDMDL
MODEL 5
REMARK VINA RESULT: -5.678788381      4.069      6.320
REMARK  9 active torsions:
REMARK  status: ('A' for Active; 'I' for Inactive)
REMARK    1  A    between atoms: N1_2  and  O1_3 
REMARK       I    between atoms: N1_2  and  C2_5 
REMARK    2  A    between atoms: C2_5  and  C3_7 
REMARK    3  A    between atoms: C3_7  and  C4_8 
REMARK    4  A    between atoms: N3_15  and  C8_16 
REMARK    5  A    between atoms: C9_19  and  C10_20 
REMARK    6  A    between atoms: C10_20  and  O4_21 
REMARK    7  A    between atoms: C10_20  and  C11_23 
REMARK    8  A    between atoms: C11_23  and  N5_24 
REMARK    9  A    between atoms: C11_23  and  O5_28 
ROOT
HETATM    1  C8  UNL     1      11.434  19.826  77.100  1.00  0.00     0.697 A 
HETATM    2  N4  UNL     1      11.276  19.285  75.885  1.00  0.00    -0.177 N 
ATOM      3  H4  UNL     1      10.334  19.088  75.551  1.00  0.00     0.185 HD
HETATM    4  C9  UNL     1      12.327  18.993  75.091  1.00  0.00     0.146 A 
HETATM    5  N6  UNL     1      13.557  19.258  75.541  1.00  0.00    -0.177 N 
ATOM      6  H6  UNL     1      14.361  19.042  74.951  1.00  0.00     0.185 HD
HETATM    7  C12 UNL     1      13.761  19.804  76.761  1.00  0.00     0.691 A 
HETATM    8  N7  UNL     1      14.915  20.071  77.224  1.00  0.00    -0.234 N 
ATOM      9  H71 UNL     1      15.069  20.483  78.144  1.00  0.00     0.174 HD
ATOM     10  H72 UNL     1      15.728  19.862  76.645  1.00  0.00     0.174 HD
HETATM   11  N8  UNL     1      12.670  20.085  77.537  1.00  0.00    -0.022 N 
ATOM     12  H8  UNL     1      12.801  20.497  78.461  1.00  0.00     0.203 HD
ENDROOT
BRANCH   1  13
HETATM   13  N3  UNL     1      10.326  20.129  77.912  1.00  0.00    -0.202 N 
HETATM   14  C4  UNL     1       9.666  21.447  77.818  1.00  0.00     0.203 C 
HETATM   15  C5  UNL     1       9.716  21.991  79.177  1.00  0.00     0.241 C 
HETATM   16  O3  UNL     1      10.042  23.174  79.380  1.00  0.00    -0.271 OA
HETATM   17  N2  UNL     1       9.389  21.165  80.278  1.00  0.00    -0.358 N 
HETATM   18  C6  UNL     1       9.181  19.756  80.076  1.00  0.00     0.143 C 
ATOM     19  H2  UNL     1       9.301  21.567  81.211  1.00  0.00     0.162 HD
HETATM   20  C7  UNL     1       9.791  19.186  78.847  1.00  0.00     0.162 C 
BRANCH  14  21
HETATM   21  C3  UNL     1       8.291  21.178  77.290  1.00  0.00     0.140 C 
BRANCH  21  22
HETATM   22  C2  UNL     1       7.835  22.143  76.270  1.00  0.00     0.245 C 
HETATM   23  N1  UNL     1       8.385  22.129  74.967  1.00  0.00    -0.233 N 
HETATM   24  C1  UNL     1       7.971  23.050  73.930  1.00  0.00     0.188 C 
HETATM   25  O2  UNL     1       6.952  22.995  76.528  1.00  0.00    -0.271 OA
BRANCH  23  26
HETATM   26  O1  UNL     1       9.349  21.216  74.659  1.00  0.00    -0.285 OA
ATOM     27  H1  UNL     1       9.699  21.222  73.776  1.00  0.00     0.245 HD
ENDBRANCH  23  26
ENDBRANCH  21  22
ENDBRANCH  14  21
ENDBRANCH   1  13
BRANCH   4  28
HETATM   28  C10 UNL     1      12.163  18.387  73.755  1.00  0.00     0.242 C 
BRANCH  28  29
HETATM   29  O4  UNL     1      13.190  18.818  72.888  1.00  0.00    -0.384 OA
ATOM     30  H4  UNL     1      13.558  19.640  73.190  1.00  0.00     0.210 HD
ENDBRANCH  28  29
BRANCH  28  31
HETATM   31  C11 UNL     1      12.241  16.901  73.875  1.00  0.00     0.352 C 
BRANCH  31  32
HETATM   32  N5  UNL     1      13.282  16.390  73.014  1.00  0.00    -0.050 N 
ATOM     33  H53 UNL     1      13.591  17.085  72.335  1.00  0.00     0.277 HD
ATOM     34  H52 UNL     1      14.164  16.266  73.512  1.00  0.00     0.277 HD
ATOM     35  H51 UNL     1      12.971  15.528  72.566  1.00  0.00     0.277 HD
ENDBRANCH  31  32
BRANCH  31  36
HETATM   36  O5  UNL     1      12.571  16.520  75.183  1.00  0.00    -0.368 OA
ATOM     37  H5  UNL     1      11.792  16.302  75.681  1.00  0.00     0.212 HD
ENDBRANCH  31  36
ENDBRANCH  28  31
ENDBRANCH   4  28
TORSDOF 9
ENDMDL
