MODEL 1
REMARK VINA RESULT: -5.780186856      0.000      0.000
REMARK  10 active torsions:
REMARK  status: ('A' for Active; 'I' for Inactive)
REMARK    1  A    between atoms: C4_7  and  O2_8 
REMARK    2  A    between atoms: C6_14  and  N3_15 
REMARK    3  A    between atoms: N3_15  and  C7_17 
REMARK    4  A    between atoms: C7_17  and  C8_18 
REMARK    5  A    between atoms: N6_23  and  C9_24 
REMARK    6  A    between atoms: C9_24  and  C10_25 
REMARK    7  A    between atoms: C10_25  and  C11_27 
REMARK    8  A    between atoms: C11_27  and  O5_28 
REMARK    9  A    between atoms: C11_27  and  O6_30 
REMARK   10  A    between atoms: C12_32  and  O7_33 
ROOT
HETATM    1  C8  UNL     1      14.503  16.306  78.728  1.00  0.00     0.116 A 
HETATM    2  N4  UNL     1      13.648  15.572  78.030  1.00  0.00    -0.281 N 
ATOM      3  H4  UNL     1      13.380  14.614  78.254  1.00  0.00     0.188 HD
HETATM    4  N5  UNL     1      13.193  16.266  76.996  1.00  0.00    -0.238 N 
ATOM      5  H5  UNL     1      12.524  15.935  76.301  1.00  0.00     0.208 HD
HETATM    6  N6  UNL     1      13.752  17.448  77.022  1.00  0.00    -0.247 N 
HETATM    7  C12 UNL     1      14.585  17.513  78.097  1.00  0.00     0.189 A 
ENDROOT
BRANCH   1   8
HETATM    8  C7  UNL     1      15.244  15.899  79.970  1.00  0.00     0.119 C 
BRANCH   8   9
HETATM    9  N3  UNL     1      16.490  16.465  80.093  1.00  0.00    -0.384 N 
ATOM     10  H3  UNL     1      16.521  17.327  80.637  1.00  0.00     0.159 HD
BRANCH   9  11
HETATM   11  C6  UNL     1      17.688  16.053  79.600  1.00  0.00     0.183 C 
HETATM   12  C2  UNL     1      18.707  15.784  80.696  1.00  0.00     0.129 C 
HETATM   13  C1  UNL     1      18.276  14.836  81.720  1.00  0.00     0.066 C 
HETATM   14  N1  UNL     1      19.029  17.116  81.124  1.00  0.00    -0.330 N 
HETATM   15  N2  UNL     1      19.812  15.337  79.864  1.00  0.00    -0.330 N 
HETATM   16  C3  UNL     1      18.990  17.936  79.960  1.00  0.00     0.266 C 
ATOM     17  H1  UNL     1      19.244  17.415  82.074  1.00  0.00     0.165 HD
HETATM   18  O1  UNL     1      19.271  19.166  80.007  1.00  0.00    -0.269 OA
HETATM   19  C4  UNL     1      18.588  17.054  78.871  1.00  0.00     0.244 C 
HETATM   20  C5  UNL     1      19.763  16.114  78.660  1.00  0.00     0.266 C 
HETATM   21  O3  UNL     1      20.514  16.036  77.666  1.00  0.00    -0.269 OA
ATOM     22  H2  UNL     1      20.491  14.611  80.092  1.00  0.00     0.165 HD
BRANCH  19  23
HETATM   23  O2  UNL     1      18.089  17.596  77.763  1.00  0.00    -0.370 OA
ATOM     24  H2  UNL     1      17.186  17.412  77.533  1.00  0.00     0.212 HD
ENDBRANCH  19  23
ENDBRANCH   9  11
ENDBRANCH   8   9
ENDBRANCH   1   8
BRANCH   7  25
HETATM   25  O7  UNL     1      15.374  18.576  78.505  1.00  0.00    -0.343 OA
ATOM     26  H7  UNL     1      15.098  19.485  78.531  1.00  0.00     0.219 HD
ENDBRANCH   7  25
BRANCH   6  27
HETATM   27  C9  UNL     1      13.591  18.590  76.113  1.00  0.00     0.236 C 
BRANCH  27  28
HETATM   28  C10 UNL     1      13.018  18.153  74.834  1.00  0.00     0.200 C 
HETATM   29  O4  UNL     1      13.367  17.120  74.263  1.00  0.00    -0.291 OA
BRANCH  28  30
HETATM   30  C11 UNL     1      11.969  18.964  74.162  1.00  0.00     0.327 C 
BRANCH  30  31
HETATM   31  O5  UNL     1      11.887  20.259  74.695  1.00  0.00    -0.365 OA
ATOM     32  H5  UNL     1      12.157  20.284  75.605  1.00  0.00     0.213 HD
ENDBRANCH  30  31
BRANCH  30  33
HETATM   33  O6  UNL     1      12.167  19.057  72.790  1.00  0.00    -0.365 OA
ATOM     34  H6  UNL     1      12.059  18.222  72.351  1.00  0.00     0.213 HD
ENDBRANCH  30  33
ENDBRANCH  28  30
ENDBRANCH  27  28
ENDBRANCH   6  27
TORSDOF 10
ENDMDL
MODEL 2
REMARK VINA RESULT: -5.630054910      3.961      5.349
REMARK  10 active torsions:
REMARK  status: ('A' for Active; 'I' for Inactive)
REMARK    1  A    between atoms: C4_7  and  O2_8 
REMARK    2  A    between atoms: C6_14  and  N3_15 
REMARK    3  A    between atoms: N3_15  and  C7_17 
REMARK    4  A    between atoms: C7_17  and  C8_18 
REMARK    5  A    between atoms: N6_23  and  C9_24 
REMARK    6  A    between atoms: C9_24  and  C10_25 
REMARK    7  A    between atoms: C10_25  and  C11_27 
REMARK    8  A    between atoms: C11_27  and  O5_28 
REMARK    9  A    between atoms: C11_27  and  O6_30 
REMARK   10  A    between atoms: C12_32  and  O7_33 
ROOT
HETATM    1  C8  UNL     1      14.517  17.999  77.302  1.00  0.00     0.116 A 
HETATM    2  N4  UNL     1      14.105  16.756  77.510  1.00  0.00    -0.281 N 
ATOM      3  H4  UNL     1      14.482  16.125  78.217  1.00  0.00     0.188 HD
HETATM    4  N5  UNL     1      13.131  16.454  76.664  1.00  0.00    -0.238 N 
ATOM      5  H5  UNL     1      12.638  15.562  76.612  1.00  0.00     0.208 HD
HETATM    6  N6  UNL     1      12.911  17.498  75.907  1.00  0.00    -0.247 N 
HETATM    7  C12 UNL     1      13.764  18.492  76.277  1.00  0.00     0.189 A 
ENDROOT
BRANCH   1   8
HETATM    8  C7  UNL     1      15.601  18.731  78.043  1.00  0.00     0.119 C 
BRANCH   8   9
HETATM    9  N3  UNL     1      15.138  19.667  78.936  1.00  0.00    -0.384 N 
ATOM     10  H3  UNL     1      14.851  19.294  79.841  1.00  0.00     0.159 HD
BRANCH   9  11
HETATM   11  C6  UNL     1      15.003  21.012  78.800  1.00  0.00     0.183 C 
HETATM   12  C2  UNL     1      15.610  21.779  79.964  1.00  0.00     0.129 C 
HETATM   13  C1  UNL     1      17.014  21.478  80.237  1.00  0.00     0.066 C 
HETATM   14  N1  UNL     1      14.664  21.513  81.010  1.00  0.00    -0.330 N 
HETATM   15  N2  UNL     1      15.345  23.131  79.499  1.00  0.00    -0.330 N 
HETATM   16  C3  UNL     1      13.381  21.462  80.392  1.00  0.00     0.266 C 
ATOM     17  H1  UNL     1      14.869  21.385  82.000  1.00  0.00     0.165 HD
HETATM   18  O1  UNL     1      12.329  21.282  81.066  1.00  0.00    -0.269 OA
HETATM   19  C4  UNL     1      13.623  21.653  78.968  1.00  0.00     0.244 C 
HETATM   20  C5  UNL     1      14.080  23.095  78.827  1.00  0.00     0.266 C 
HETATM   21  O3  UNL     1      13.490  24.035  78.256  1.00  0.00    -0.269 OA
ATOM     22  H2  UNL     1      15.944  23.946  79.627  1.00  0.00     0.165 HD
BRANCH  19  23
HETATM   23  O2  UNL     1      12.687  21.267  78.104  1.00  0.00    -0.370 OA
ATOM     24  H2  UNL     1      12.166  21.933  77.671  1.00  0.00     0.212 HD
ENDBRANCH  19  23
ENDBRANCH   9  11
ENDBRANCH   8   9
ENDBRANCH   1   8
BRANCH   7  25
HETATM   25  O7  UNL     1      13.875  19.766  75.744  1.00  0.00    -0.343 OA
ATOM     26  H7  UNL     1      13.662  20.006  74.850  1.00  0.00     0.219 HD
ENDBRANCH   7  25
BRANCH   6  27
HETATM   27  C9  UNL     1      11.942  17.690  74.820  1.00  0.00     0.236 C 
BRANCH  27  28
HETATM   28  C10 UNL     1      10.737  18.364  75.317  1.00  0.00     0.200 C 
HETATM   29  O4  UNL     1       9.824  17.768  75.890  1.00  0.00    -0.291 OA
BRANCH  28  30
HETATM   30  C11 UNL     1      10.567  19.831  75.142  1.00  0.00     0.327 C 
BRANCH  30  31
HETATM   31  O5  UNL     1      10.767  20.527  76.343  1.00  0.00    -0.365 OA
ATOM     32  H5  UNL     1      10.156  21.248  76.441  1.00  0.00     0.213 HD
ENDBRANCH  30  31
BRANCH  30  33
HETATM   33  O6  UNL     1      11.418  20.353  74.176  1.00  0.00    -0.365 OA
ATOM     34  H6  UNL     1      11.078  21.148  73.785  1.00  0.00     0.213 HD
ENDBRANCH  30  33
ENDBRANCH  28  30
ENDBRANCH  27  28
ENDBRANCH   6  27
TORSDOF 10
ENDMDL
MODEL 3
REMARK VINA RESULT: -5.589962000      1.814      7.253
REMARK  10 active torsions:
REMARK  status: ('A' for Active; 'I' for Inactive)
REMARK    1  A    between atoms: C4_7  and  O2_8 
REMARK    2  A    between atoms: C6_14  and  N3_15 
REMARK    3  A    between atoms: N3_15  and  C7_17 
REMARK    4  A    between atoms: C7_17  and  C8_18 
REMARK    5  A    between atoms: N6_23  and  C9_24 
REMARK    6  A    between atoms: C9_24  and  C10_25 
REMARK    7  A    between atoms: C10_25  and  C11_27 
REMARK    8  A    between atoms: C11_27  and  O5_28 
REMARK    9  A    between atoms: C11_27  and  O6_30 
REMARK   10  A    between atoms: C12_32  and  O7_33 
ROOT
HETATM    1  C8  UNL     1      15.043  17.517  79.390  1.00  0.00     0.116 A 
HETATM    2  N4  UNL     1      15.553  16.840  80.409  1.00  0.00    -0.281 N 
ATOM      3  H4  UNL     1      15.008  16.399  81.150  1.00  0.00     0.188 HD
HETATM    4  N5  UNL     1      16.875  16.821  80.326  1.00  0.00    -0.238 N 
ATOM      5  H5  UNL     1      17.510  16.367  80.982  1.00  0.00     0.208 HD
HETATM    6  N6  UNL     1      17.224  17.485  79.254  1.00  0.00    -0.247 N 
HETATM    7  C12 UNL     1      16.100  17.940  78.637  1.00  0.00     0.189 A 
ENDROOT
BRANCH   1   8
HETATM    8  C7  UNL     1      13.590  17.776  79.109  1.00  0.00     0.119 C 
BRANCH   8   9
HETATM    9  N3  UNL     1      13.177  17.368  77.863  1.00  0.00    -0.384 N 
ATOM     10  H3  UNL     1      13.538  16.463  77.564  1.00  0.00     0.159 HD
BRANCH   9  11
HETATM   11  C6  UNL     1      12.362  17.987  76.968  1.00  0.00     0.183 C 
HETATM   12  C2  UNL     1      11.345  17.038  76.354  1.00  0.00     0.129 C 
HETATM   13  C1  UNL     1      10.516  16.315  77.316  1.00  0.00     0.066 C 
HETATM   14  N1  UNL     1      12.172  16.256  75.478  1.00  0.00    -0.330 N 
HETATM   15  N2  UNL     1      10.635  17.989  75.515  1.00  0.00    -0.330 N 
HETATM   16  C3  UNL     1      13.168  17.137  74.969  1.00  0.00     0.266 C 
ATOM     17  H1  UNL     1      12.067  15.265  75.264  1.00  0.00     0.165 HD
HETATM   18  O1  UNL     1      14.030  16.749  74.132  1.00  0.00    -0.269 OA
HETATM   19  C4  UNL     1      12.923  18.422  75.613  1.00  0.00     0.244 C 
HETATM   20  C5  UNL     1      11.611  18.920  75.030  1.00  0.00     0.266 C 
HETATM   21  O3  UNL     1      11.425  19.912  74.297  1.00  0.00    -0.269 OA
ATOM     22  H2  UNL     1       9.636  17.992  75.310  1.00  0.00     0.165 HD
BRANCH  19  23
HETATM   23  O2  UNL     1      13.907  19.318  75.643  1.00  0.00    -0.370 OA
ATOM     24  H2  UNL     1      13.782  20.145  75.194  1.00  0.00     0.212 HD
ENDBRANCH  19  23
ENDBRANCH   9  11
ENDBRANCH   8   9
ENDBRANCH   1   8
BRANCH   7  25
HETATM   25  O7  UNL     1      16.005  18.687  77.474  1.00  0.00    -0.343 OA
ATOM     26  H7  UNL     1      16.545  18.569  76.701  1.00  0.00     0.219 HD
ENDBRANCH   7  25
BRANCH   6  27
HETATM   27  C9  UNL     1      18.559  17.759  78.705  1.00  0.00     0.236 C 
BRANCH  27  28
HETATM   28  C10 UNL     1      19.333  16.517  78.588  1.00  0.00     0.200 C 
HETATM   29  O4  UNL     1      18.889  15.418  78.922  1.00  0.00    -0.291 OA
BRANCH  28  30
HETATM   30  C11 UNL     1      20.718  16.539  78.048  1.00  0.00     0.327 C 
BRANCH  30  31
HETATM   31  O5  UNL     1      20.920  15.539  77.086  1.00  0.00    -0.365 OA
ATOM     32  H5  UNL     1      21.191  15.902  76.251  1.00  0.00     0.213 HD
ENDBRANCH  30  31
BRANCH  30  33
HETATM   33  O6  UNL     1      21.051  17.768  77.493  1.00  0.00    -0.365 OA
ATOM     34  H6  UNL     1      21.163  18.444  78.151  1.00  0.00     0.213 HD
ENDBRANCH  30  33
ENDBRANCH  28  30
ENDBRANCH  27  28
ENDBRANCH   6  27
TORSDOF 10
ENDMDL
MODEL 4
REMARK VINA RESULT: -5.564431868      1.796      2.593
REMARK  10 active torsions:
REMARK  status: ('A' for Active; 'I' for Inactive)
REMARK    1  A    between atoms: C4_7  and  O2_8 
REMARK    2  A    between atoms: C6_14  and  N3_15 
REMARK    3  A    between atoms: N3_15  and  C7_17 
REMARK    4  A    between atoms: C7_17  and  C8_18 
REMARK    5  A    between atoms: N6_23  and  C9_24 
REMARK    6  A    between atoms: C9_24  and  C10_25 
REMARK    7  A    between atoms: C10_25  and  C11_27 
REMARK    8  A    between atoms: C11_27  and  O5_28 
REMARK    9  A    between atoms: C11_27  and  O6_30 
REMARK   10  A    between atoms: C12_32  and  O7_33 
ROOT
HETATM    1  C8  UNL     1      14.658  18.433  78.126  1.00  0.00     0.116 A 
HETATM    2  N4  UNL     1      14.269  17.199  78.416  1.00  0.00    -0.281 N 
ATOM      3  H4  UNL     1      14.383  16.748  79.324  1.00  0.00     0.188 HD
HETATM    4  N5  UNL     1      13.710  16.638  77.353  1.00  0.00    -0.238 N 
ATOM      5  H5  UNL     1      13.327  15.694  77.307  1.00  0.00     0.208 HD
HETATM    6  N6  UNL     1      13.737  17.505  76.374  1.00  0.00    -0.247 N 
HETATM    7  C12 UNL     1      14.327  18.648  76.820  1.00  0.00     0.189 A 
ENDROOT
BRANCH   1   8
HETATM    8  C7  UNL     1      15.334  19.411  79.045  1.00  0.00     0.119 C 
BRANCH   8   9
HETATM    9  N3  UNL     1      16.685  19.208  79.188  1.00  0.00    -0.384 N 
ATOM     10  H3  UNL     1      17.266  19.658  78.481  1.00  0.00     0.159 HD
BRANCH   9  11
HETATM   11  C6  UNL     1      17.367  18.499  80.126  1.00  0.00     0.183 C 
HETATM   12  C2  UNL     1      18.761  19.052  80.374  1.00  0.00     0.129 C 
HETATM   13  C1  UNL     1      18.810  20.467  80.735  1.00  0.00     0.066 C 
HETATM   14  N1  UNL     1      19.447  18.654  79.177  1.00  0.00    -0.330 N 
HETATM   15  N2  UNL     1      19.181  18.131  81.417  1.00  0.00    -0.330 N 
HETATM   16  C3  UNL     1      18.913  17.386  78.807  1.00  0.00     0.266 C 
ATOM     17  H1  UNL     1      20.172  19.176  78.687  1.00  0.00     0.165 HD
HETATM   18  O1  UNL     1      19.347  16.751  77.806  1.00  0.00    -0.269 OA
HETATM   19  C4  UNL     1      17.875  17.096  79.788  1.00  0.00     0.244 C 
HETATM   20  C5  UNL     1      18.612  16.856  81.095  1.00  0.00     0.266 C 
HETATM   21  O3  UNL     1      18.702  15.792  81.741  1.00  0.00    -0.269 OA
ATOM     22  H2  UNL     1      19.767  18.351  82.223  1.00  0.00     0.165 HD
BRANCH  19  23
HETATM   23  O2  UNL     1      16.947  16.191  79.486  1.00  0.00    -0.370 OA
ATOM     24  H2  UNL     1      17.223  15.366  79.104  1.00  0.00     0.212 HD
ENDBRANCH  19  23
ENDBRANCH   9  11
ENDBRANCH   8   9
ENDBRANCH   1   8
BRANCH   7  25
HETATM   25  O7  UNL     1      14.560  19.819  76.118  1.00  0.00    -0.343 OA
ATOM     26  H7  UNL     1      15.310  19.982  75.558  1.00  0.00     0.219 HD
ENDBRANCH   7  25
BRANCH   6  27
HETATM   27  C9  UNL     1      13.247  17.388  74.995  1.00  0.00     0.236 C 
BRANCH  27  28
HETATM   28  C10 UNL     1      11.879  17.908  74.888  1.00  0.00     0.200 C 
HETATM   29  O4  UNL     1      10.918  17.383  75.450  1.00  0.00    -0.291 OA
BRANCH  28  30
HETATM   30  C11 UNL     1      11.594  19.119  74.074  1.00  0.00     0.327 C 
BRANCH  30  31
HETATM   31  O5  UNL     1      12.010  20.292  74.720  1.00  0.00    -0.365 OA
ATOM     32  H5  UNL     1      12.904  20.521  74.496  1.00  0.00     0.213 HD
ENDBRANCH  30  31
BRANCH  30  33
HETATM   33  O6  UNL     1      12.185  19.066  72.818  1.00  0.00    -0.365 OA
ATOM     34  H6  UNL     1      13.134  19.092  72.862  1.00  0.00     0.213 HD
ENDBRANCH  30  33
ENDBRANCH  28  30
ENDBRANCH  27  28
ENDBRANCH   6  27
TORSDOF 10
ENDMDL
MODEL 5
REMARK VINA RESULT: -5.544794502      1.991      2.606
REMARK  10 active torsions:
REMARK  status: ('A' for Active; 'I' for Inactive)
REMARK    1  A    between atoms: C4_7  and  O2_8 
REMARK    2  A    between atoms: C6_14  and  N3_15 
REMARK    3  A    between atoms: N3_15  and  C7_17 
REMARK    4  A    between atoms: C7_17  and  C8_18 
REMARK    5  A    between atoms: N6_23  and  C9_24 
REMARK    6  A    between atoms: C9_24  and  C10_25 
REMARK    7  A    between atoms: C10_25  and  C11_27 
REMARK    8  A    between atoms: C11_27  and  O5_28 
REMARK    9  A    between atoms: C11_27  and  O6_30 
REMARK   10  A    between atoms: C12_32  and  O7_33 
ROOT
HETATM    1  C8  UNL     1      15.381  19.761  78.337  1.00  0.00     0.116 A 
HETATM    2  N4  UNL     1      14.934  20.736  77.557  1.00  0.00    -0.281 N 
ATOM      3  H4  UNL     1      15.056  21.732  77.738  1.00  0.00     0.188 HD
HETATM    4  N5  UNL     1      14.305  20.225  76.509  1.00  0.00    -0.238 N 
ATOM      5  H5  UNL     1      13.868  20.757  75.756  1.00  0.00     0.208 HD
HETATM    6  N6  UNL     1      14.343  18.921  76.607  1.00  0.00    -0.247 N 
HETATM    7  C12 UNL     1      15.011  18.589  77.745  1.00  0.00     0.189 A 
ENDROOT
BRANCH   1   8
HETATM    8  C7  UNL     1      16.146  19.906  79.623  1.00  0.00     0.119 C 
BRANCH   8   9
HETATM    9  N3  UNL     1      17.465  19.532  79.538  1.00  0.00    -0.384 N 
ATOM     10  H3  UNL     1      18.079  20.216  79.096  1.00  0.00     0.159 HD
BRANCH   9  11
HETATM   11  C6  UNL     1      18.077  18.391  79.952  1.00  0.00     0.183 C 
HETATM   12  C2  UNL     1      19.247  18.664  80.884  1.00  0.00     0.129 C 
HETATM   13  C1  UNL     1      18.927  19.472  82.058  1.00  0.00     0.066 C 
HETATM   14  N1  UNL     1      20.226  19.185  79.972  1.00  0.00    -0.330 N 
HETATM   15  N2  UNL     1      19.631  17.290  81.163  1.00  0.00    -0.330 N 
HETATM   16  C3  UNL     1      20.053  18.482  78.746  1.00  0.00     0.266 C 
ATOM     17  H1  UNL     1      20.911  19.916  80.165  1.00  0.00     0.165 HD
HETATM   18  O1  UNL     1      20.802  18.691  77.751  1.00  0.00    -0.269 OA
HETATM   19  C4  UNL     1      18.923  17.588  78.962  1.00  0.00     0.244 C 
HETATM   20  C5  UNL     1      19.416  16.548  79.955  1.00  0.00     0.266 C 
HETATM   21  O3  UNL     1      19.594  15.328  79.764  1.00  0.00    -0.269 OA
ATOM     22  H2  UNL     1      19.985  16.924  82.047  1.00  0.00     0.165 HD
BRANCH  19  23
HETATM   23  O2  UNL     1      18.283  17.100  77.902  1.00  0.00    -0.370 OA
ATOM     24  H2  UNL     1      17.406  17.414  77.716  1.00  0.00     0.212 HD
ENDBRANCH  19  23
ENDBRANCH   9  11
ENDBRANCH   8   9
ENDBRANCH   1   8
BRANCH   7  25
HETATM   25  O7  UNL     1      15.283  17.323  78.238  1.00  0.00    -0.343 OA
ATOM     26  H7  UNL     1      15.405  17.107  79.155  1.00  0.00     0.219 HD
ENDBRANCH   7  25
BRANCH   6  27
HETATM   27  C9  UNL     1      13.801  17.890  75.713  1.00  0.00     0.236 C 
BRANCH  27  28
HETATM   28  C10 UNL     1      12.375  18.130  75.455  1.00  0.00     0.200 C 
HETATM   29  O4  UNL     1      11.482  17.702  76.186  1.00  0.00    -0.291 OA
BRANCH  28  30
HETATM   30  C11 UNL     1      11.946  18.919  74.270  1.00  0.00     0.327 C 
BRANCH  30  31
HETATM   31  O5  UNL     1      11.837  20.286  74.563  1.00  0.00    -0.365 OA
ATOM     32  H5  UNL     1      11.075  20.676  74.152  1.00  0.00     0.213 HD
ENDBRANCH  30  31
BRANCH  30  33
HETATM   33  O6  UNL     1      12.802  18.760  73.188  1.00  0.00    -0.365 OA
ATOM     34  H6  UNL     1      12.693  19.442  72.536  1.00  0.00     0.213 HD
ENDBRANCH  30  33
ENDBRANCH  28  30
ENDBRANCH  27  28
ENDBRANCH   6  27
TORSDOF 10
ENDMDL
