MODEL 1
REMARK VINA RESULT: -5.063271652      0.000      0.000
REMARK  10 active torsions:
REMARK  status: ('A' for Active; 'I' for Inactive)
REMARK    1  A    between atoms: N1_1  and  C1_5 
REMARK    2  A    between atoms: C1_5  and  C2_6 
REMARK    3  A    between atoms: C2_6  and  S1_7 
REMARK    4  A    between atoms: S1_7  and  C3_8 
REMARK    5  A    between atoms: N4_17  and  C7_19 
REMARK    6  A    between atoms: C7_19  and  O2_20 
REMARK    7  A    between atoms: C7_19  and  C8_22 
REMARK    8  A    between atoms: N6_25  and  N7_26 
REMARK    9  A    between atoms: C9_29  and  N8_30 
REMARK   10  A    between atoms: N8_30  and  N9_32 
ROOT
HETATM    1  C3  UNL     1      16.899  20.180  80.012  1.00  0.00     0.190 A 
HETATM    2  N2  UNL     1      17.375  18.946  79.740  1.00  0.00    -0.296 N 
ATOM      3  H2  UNL     1      18.148  18.587  80.301  1.00  0.00     0.171 HD
HETATM    4  C4  UNL     1      16.877  18.168  78.763  1.00  0.00     0.278 A 
HETATM    5  O1  UNL     1      17.302  17.017  78.490  1.00  0.00    -0.266 OA
HETATM    6  C5  UNL     1      15.816  18.695  78.015  1.00  0.00     0.155 A 
HETATM    7  N3  UNL     1      15.251  18.013  77.031  1.00  0.00    -0.182 N 
ATOM      8  H3  UNL     1      15.600  17.079  76.814  1.00  0.00     0.184 HD
HETATM    9  C6  UNL     1      14.196  18.528  76.280  1.00  0.00     0.704 A 
HETATM   10  N4  UNL     1      13.729  17.812  75.379  1.00  0.00    -0.189 N 
ATOM     11  H4  UNL     1      14.203  16.911  75.311  1.00  0.00     0.181 HD
HETATM   12  N6  UNL     1      13.774  19.765  76.609  1.00  0.00    -0.072 N 
HETATM   13  C9  UNL     1      14.309  20.507  77.601  1.00  0.00     0.195 A 
HETATM   14  C10 UNL     1      15.368  19.951  78.329  1.00  0.00     0.159 A 
HETATM   15  O4  UNL     1      15.891  20.667  79.293  1.00  0.00    -0.281 OA
ENDROOT
BRANCH  10  16
HETATM   16  C7  UNL     1      12.713  17.950  74.441  1.00  0.00     0.325 C 
BRANCH  16  17
HETATM   17  O2  UNL     1      13.049  18.804  73.360  1.00  0.00    -0.368 OA
ATOM     18  H2  UNL     1      12.329  18.961  72.760  1.00  0.00     0.212 HD
ENDBRANCH  16  17
BRANCH  16  19
HETATM   19  C8  UNL     1      12.369  16.624  73.786  1.00  0.00     0.280 C 
HETATM   20  N5  UNL     1      13.418  15.727  73.519  1.00  0.00    -0.058 NA
HETATM   21  O3  UNL     1      11.174  16.351  73.496  1.00  0.00    -0.272 OA
ENDBRANCH  16  19
ENDBRANCH  10  16
BRANCH  12  22
HETATM   22  N7  UNL     1      12.714  20.376  75.902  1.00  0.00    -0.322 N 
ATOM     23  H72 UNL     1      12.212  19.767  75.256  1.00  0.00     0.178 HD
ATOM     24  H71 UNL     1      12.488  21.360  76.052  1.00  0.00     0.178 HD
ENDBRANCH  12  22
BRANCH  13  25
HETATM   25  N8  UNL     1      13.892  21.670  77.899  1.00  0.00    -0.288 N 
ATOM     26  H8  UNL     1      14.042  22.421  77.226  1.00  0.00     0.188 HD
BRANCH  25  27
HETATM   27  N9  UNL     1      13.251  21.971  79.073  1.00  0.00    -0.343 N 
ATOM     28  H92 UNL     1      12.434  22.580  79.013  1.00  0.00     0.176 HD
ATOM     29  H91 UNL     1      13.545  21.622  79.985  1.00  0.00     0.176 HD
ENDBRANCH  25  27
ENDBRANCH  13  25
BRANCH   1  30
HETATM   30  S1  UNL     1      17.629  21.135  81.331  1.00  0.00    -0.085 SA
BRANCH  30  31
HETATM   31  C2  UNL     1      19.410  21.355  81.056  1.00  0.00     0.110 C 
BRANCH  31  32
HETATM   32  C1  UNL     1      19.930  22.586  81.768  1.00  0.00     0.240 C 
BRANCH  32  33
HETATM   33  N1  UNL     1      20.188  23.634  80.803  1.00  0.00    -0.079 N 
ATOM     34  H13 UNL     1      19.389  23.799  80.191  1.00  0.00     0.274 HD
ATOM     35  H12 UNL     1      20.232  24.557  81.237  1.00  0.00     0.274 HD
ATOM     36  H11 UNL     1      21.035  23.415  80.279  1.00  0.00     0.274 HD
ENDBRANCH  32  33
ENDBRANCH  31  32
ENDBRANCH  30  31
ENDBRANCH   1  30
TORSDOF 10
ENDMDL
MODEL 2
REMARK VINA RESULT: -4.988670487      1.175      1.317
REMARK  10 active torsions:
REMARK  status: ('A' for Active; 'I' for Inactive)
REMARK    1  A    between atoms: N1_1  and  C1_5 
REMARK    2  A    between atoms: C1_5  and  C2_6 
REMARK    3  A    between atoms: C2_6  and  S1_7 
REMARK    4  A    between atoms: S1_7  and  C3_8 
REMARK    5  A    between atoms: N4_17  and  C7_19 
REMARK    6  A    between atoms: C7_19  and  O2_20 
REMARK    7  A    between atoms: C7_19  and  C8_22 
REMARK    8  A    between atoms: N6_25  and  N7_26 
REMARK    9  A    between atoms: C9_29  and  N8_30 
REMARK   10  A    between atoms: N8_30  and  N9_32 
ROOT
HETATM    1  C3  UNL     1      16.678  20.307  80.043  1.00  0.00     0.190 A 
HETATM    2  N2  UNL     1      17.238  19.117  79.736  1.00  0.00    -0.296 N 
ATOM      3  H2  UNL     1      18.027  18.791  80.295  1.00  0.00     0.171 HD
HETATM    4  C4  UNL     1      16.803  18.342  78.727  1.00  0.00     0.278 A 
HETATM    5  O1  UNL     1      17.306  17.230  78.422  1.00  0.00    -0.266 OA
HETATM    6  C5  UNL     1      15.718  18.822  77.983  1.00  0.00     0.155 A 
HETATM    7  N3  UNL     1      15.210  18.139  76.970  1.00  0.00    -0.182 N 
ATOM      8  H3  UNL     1      15.622  17.237  76.727  1.00  0.00     0.184 HD
HETATM    9  C6  UNL     1      14.132  18.608  76.223  1.00  0.00     0.704 A 
HETATM   10  N4  UNL     1      13.723  17.894  75.292  1.00  0.00    -0.189 N 
ATOM     11  H4  UNL     1      14.256  17.029  75.201  1.00  0.00     0.181 HD
HETATM   12  N6  UNL     1      13.625  19.803  76.587  1.00  0.00    -0.072 N 
HETATM   13  C9  UNL     1      14.099  20.545  77.610  1.00  0.00     0.195 A 
HETATM   14  C10 UNL     1      15.184  20.035  78.333  1.00  0.00     0.159 A 
HETATM   15  O4  UNL     1      15.648  20.750  79.327  1.00  0.00    -0.281 OA
ENDROOT
BRANCH  10  16
HETATM   16  C7  UNL     1      12.710  17.997  74.346  1.00  0.00     0.325 C 
BRANCH  16  17
HETATM   17  O2  UNL     1      13.046  18.819  73.241  1.00  0.00    -0.368 OA
ATOM     18  H2  UNL     1      13.025  18.364  72.407  1.00  0.00     0.212 HD
ENDBRANCH  16  17
BRANCH  16  19
HETATM   19  C8  UNL     1      12.378  16.649  73.731  1.00  0.00     0.280 C 
HETATM   20  N5  UNL     1      13.435  15.757  73.482  1.00  0.00    -0.058 NA
HETATM   21  O3  UNL     1      11.183  16.354  73.456  1.00  0.00    -0.272 OA
ENDBRANCH  16  19
ENDBRANCH  10  16
BRANCH  12  22
HETATM   22  N7  UNL     1      12.535  20.367  75.886  1.00  0.00    -0.322 N 
ATOM     23  H72 UNL     1      12.785  20.958  75.093  1.00  0.00     0.178 HD
ATOM     24  H71 UNL     1      11.576  20.174  76.174  1.00  0.00     0.178 HD
ENDBRANCH  12  22
BRANCH  13  25
HETATM   25  N8  UNL     1      13.602  21.666  77.940  1.00  0.00    -0.288 N 
ATOM     26  H8  UNL     1      13.751  22.460  77.317  1.00  0.00     0.188 HD
BRANCH  25  27
HETATM   27  N9  UNL     1      12.878  21.870  79.087  1.00  0.00    -0.343 N 
ATOM     28  H92 UNL     1      13.366  22.298  79.874  1.00  0.00     0.176 HD
ATOM     29  H91 UNL     1      11.895  21.620  79.187  1.00  0.00     0.176 HD
ENDBRANCH  25  27
ENDBRANCH  13  25
BRANCH   1  30
HETATM   30  S1  UNL     1      17.329  21.263  81.402  1.00  0.00    -0.085 SA
BRANCH  30  31
HETATM   31  C2  UNL     1      17.667  22.970  80.883  1.00  0.00     0.110 C 
BRANCH  31  32
HETATM   32  C1  UNL     1      16.414  23.819  80.932  1.00  0.00     0.240 C 
BRANCH  32  33
HETATM   33  N1  UNL     1      15.823  23.889  79.612  1.00  0.00    -0.079 N 
ATOM     34  H13 UNL     1      16.172  24.684  79.076  1.00  0.00     0.274 HD
ATOM     35  H12 UNL     1      16.155  23.143  79.000  1.00  0.00     0.274 HD
ATOM     36  H11 UNL     1      14.806  23.897  79.693  1.00  0.00     0.274 HD
ENDBRANCH  32  33
ENDBRANCH  31  32
ENDBRANCH  30  31
ENDBRANCH   1  30
TORSDOF 10
ENDMDL
MODEL 3
REMARK VINA RESULT: -4.944435390      2.844      7.677
REMARK  10 active torsions:
REMARK  status: ('A' for Active; 'I' for Inactive)
REMARK    1  A    between atoms: N1_1  and  C1_5 
REMARK    2  A    between atoms: C1_5  and  C2_6 
REMARK    3  A    between atoms: C2_6  and  S1_7 
REMARK    4  A    between atoms: S1_7  and  C3_8 
REMARK    5  A    between atoms: N4_17  and  C7_19 
REMARK    6  A    between atoms: C7_19  and  O2_20 
REMARK    7  A    between atoms: C7_19  and  C8_22 
REMARK    8  A    between atoms: N6_25  and  N7_26 
REMARK    9  A    between atoms: C9_29  and  N8_30 
REMARK   10  A    between atoms: N8_30  and  N9_32 
ROOT
HETATM    1  C3  UNL     1      13.369  19.917  76.750  1.00  0.00     0.190 A 
HETATM    2  N2  UNL     1      14.340  18.990  76.896  1.00  0.00    -0.296 N 
ATOM      3  H2  UNL     1      14.277  18.129  76.353  1.00  0.00     0.171 HD
HETATM    4  C4  UNL     1      15.387  19.151  77.724  1.00  0.00     0.278 A 
HETATM    5  O1  UNL     1      16.304  18.304  77.876  1.00  0.00    -0.266 OA
HETATM    6  C5  UNL     1      15.440  20.346  78.452  1.00  0.00     0.155 A 
HETATM    7  N3  UNL     1      16.427  20.607  79.295  1.00  0.00    -0.182 N 
ATOM      8  H3  UNL     1      17.169  19.916  79.415  1.00  0.00     0.184 HD
HETATM    9  C6  UNL     1      16.488  21.792  80.024  1.00  0.00     0.704 A 
HETATM   10  N4  UNL     1      17.456  21.947  80.788  1.00  0.00    -0.189 N 
ATOM     11  H4  UNL     1      18.095  21.153  80.774  1.00  0.00     0.181 HD
HETATM   12  N6  UNL     1      15.484  22.670  79.828  1.00  0.00    -0.072 N 
HETATM   13  C9  UNL     1      14.453  22.461  78.983  1.00  0.00     0.195 A 
HETATM   14  C10 UNL     1      14.431  21.256  78.270  1.00  0.00     0.159 A 
HETATM   15  O4  UNL     1      13.433  21.048  77.449  1.00  0.00    -0.281 OA
ENDROOT
BRANCH  10  16
HETATM   16  C7  UNL     1      17.871  22.949  81.658  1.00  0.00     0.325 C 
BRANCH  16  17
HETATM   17  O2  UNL     1      18.653  22.474  82.741  1.00  0.00    -0.368 OA
ATOM     18  H2  UNL     1      18.558  22.989  83.534  1.00  0.00     0.212 HD
ENDBRANCH  16  17
BRANCH  16  19
HETATM   19  C8  UNL     1      18.760  23.964  80.961  1.00  0.00     0.280 C 
HETATM   20  N5  UNL     1      20.114  23.637  80.775  1.00  0.00    -0.058 NA
HETATM   21  O3  UNL     1      18.283  25.062  80.568  1.00  0.00    -0.272 OA
ENDBRANCH  16  19
ENDBRANCH  10  16
BRANCH  12  22
HETATM   22  N7  UNL     1      15.453  23.897  80.527  1.00  0.00    -0.322 N 
ATOM     23  H72 UNL     1      16.340  24.399  80.567  1.00  0.00     0.178 HD
ATOM     24  H71 UNL     1      14.587  24.234  80.948  1.00  0.00     0.178 HD
ENDBRANCH  12  22
BRANCH  13  25
HETATM   25  N8  UNL     1      13.520  23.305  78.807  1.00  0.00    -0.288 N 
ATOM     26  H8  UNL     1      13.723  24.139  78.257  1.00  0.00     0.188 HD
BRANCH  25  27
HETATM   27  N9  UNL     1      12.254  23.158  79.315  1.00  0.00    -0.343 N 
ATOM     28  H92 UNL     1      11.850  22.221  79.290  1.00  0.00     0.176 HD
ATOM     29  H91 UNL     1      11.710  23.924  79.709  1.00  0.00     0.176 HD
ENDBRANCH  25  27
ENDBRANCH  13  25
BRANCH   1  30
HETATM   30  S1  UNL     1      12.019  19.610  75.624  1.00  0.00    -0.085 SA
BRANCH  30  31
HETATM   31  C2  UNL     1      11.850  17.833  75.294  1.00  0.00     0.110 C 
BRANCH  31  32
HETATM   32  C1  UNL     1      12.098  17.519  73.834  1.00  0.00     0.240 C 
BRANCH  32  33
HETATM   33  N1  UNL     1      12.997  18.505  73.270  1.00  0.00    -0.079 N 
ATOM     34  H13 UNL     1      13.566  18.959  73.984  1.00  0.00     0.274 HD
ATOM     35  H12 UNL     1      13.751  18.076  72.732  1.00  0.00     0.274 HD
ATOM     36  H11 UNL     1      12.464  19.177  72.718  1.00  0.00     0.274 HD
ENDBRANCH  32  33
ENDBRANCH  31  32
ENDBRANCH  30  31
ENDBRANCH   1  30
TORSDOF 10
ENDMDL
MODEL 4
REMARK VINA RESULT: -4.751469172      1.716      3.136
REMARK  10 active torsions:
REMARK  status: ('A' for Active; 'I' for Inactive)
REMARK    1  A    between atoms: N1_1  and  C1_5 
REMARK    2  A    between atoms: C1_5  and  C2_6 
REMARK    3  A    between atoms: C2_6  and  S1_7 
REMARK    4  A    between atoms: S1_7  and  C3_8 
REMARK    5  A    between atoms: N4_17  and  C7_19 
REMARK    6  A    between atoms: C7_19  and  O2_20 
REMARK    7  A    between atoms: C7_19  and  C8_22 
REMARK    8  A    between atoms: N6_25  and  N7_26 
REMARK    9  A    between atoms: C9_29  and  N8_30 
REMARK   10  A    between atoms: N8_30  and  N9_32 
ROOT
HETATM    1  C3  UNL     1      16.530  21.618  79.965  1.00  0.00     0.190 A 
HETATM    2  N2  UNL     1      15.666  22.596  79.619  1.00  0.00    -0.296 N 
ATOM      3  H2  UNL     1      15.806  23.530  80.005  1.00  0.00     0.171 HD
HETATM    4  C4  UNL     1      14.628  22.395  78.788  1.00  0.00     0.278 A 
HETATM    5  O1  UNL     1      13.811  23.288  78.449  1.00  0.00    -0.266 OA
HETATM    6  C5  UNL     1      14.468  21.100  78.278  1.00  0.00     0.155 A 
HETATM    7  N3  UNL     1      13.480  20.793  77.451  1.00  0.00    -0.182 N 
ATOM      8  H3  UNL     1      12.820  21.522  77.180  1.00  0.00     0.184 HD
HETATM    9  C6  UNL     1      13.312  19.509  76.940  1.00  0.00     0.704 A 
HETATM   10  N4  UNL     1      12.357  19.318  76.168  1.00  0.00    -0.189 N 
ATOM     11  H4  UNL     1      11.807  20.163  76.011  1.00  0.00     0.181 HD
HETATM   12  N6  UNL     1      14.213  18.585  77.330  1.00  0.00    -0.072 N 
HETATM   13  C9  UNL     1      15.239  18.837  78.169  1.00  0.00     0.195 A 
HETATM   14  C10 UNL     1      15.371  20.142  78.659  1.00  0.00     0.159 A 
HETATM   15  O4  UNL     1      16.365  20.393  79.473  1.00  0.00    -0.281 OA
ENDROOT
BRANCH  10  16
HETATM   16  C7  UNL     1      11.861  18.225  75.469  1.00  0.00     0.325 C 
BRANCH  16  17
HETATM   17  O2  UNL     1      10.451  18.233  75.324  1.00  0.00    -0.368 OA
ATOM     18  H2  UNL     1      10.157  18.516  74.466  1.00  0.00     0.212 HD
ENDBRANCH  16  17
BRANCH  16  19
HETATM   19  C8  UNL     1      12.390  18.182  74.046  1.00  0.00     0.280 C 
HETATM   20  N5  UNL     1      13.366  17.221  73.732  1.00  0.00    -0.058 NA
HETATM   21  O3  UNL     1      11.956  18.992  73.183  1.00  0.00    -0.272 OA
ENDBRANCH  16  19
ENDBRANCH  10  16
BRANCH  12  22
HETATM   22  N7  UNL     1      14.122  17.251  76.870  1.00  0.00    -0.322 N 
ATOM     23  H72 UNL     1      15.009  16.753  76.799  1.00  0.00     0.178 HD
ATOM     24  H71 UNL     1      13.216  16.842  76.639  1.00  0.00     0.178 HD
ENDBRANCH  12  22
BRANCH  13  25
HETATM   25  N8  UNL     1      16.081  17.953  78.519  1.00  0.00    -0.288 N 
ATOM     26  H8  UNL     1      15.746  17.161  79.068  1.00  0.00     0.188 HD
BRANCH  25  27
HETATM   27  N9  UNL     1      17.414  18.001  78.199  1.00  0.00    -0.343 N 
ATOM     28  H92 UNL     1      18.074  17.703  78.918  1.00  0.00     0.176 HD
ATOM     29  H91 UNL     1      17.769  18.314  77.296  1.00  0.00     0.176 HD
ENDBRANCH  25  27
ENDBRANCH  13  25
BRANCH   1  30
HETATM   30  S1  UNL     1      17.878  21.986  81.076  1.00  0.00    -0.085 SA
BRANCH  30  31
HETATM   31  C2  UNL     1      18.780  20.472  81.514  1.00  0.00     0.110 C 
BRANCH  31  32
HETATM   32  C1  UNL     1      19.827  20.135  80.474  1.00  0.00     0.240 C 
BRANCH  32  33
HETATM   33  N1  UNL     1      21.127  20.585  80.928  1.00  0.00    -0.079 N 
ATOM     34  H13 UNL     1      21.311  21.554  80.668  1.00  0.00     0.274 HD
ATOM     35  H12 UNL     1      21.163  20.696  81.942  1.00  0.00     0.274 HD
ATOM     36  H11 UNL     1      21.848  19.951  80.584  1.00  0.00     0.274 HD
ENDBRANCH  32  33
ENDBRANCH  31  32
ENDBRANCH  30  31
ENDBRANCH   1  30
TORSDOF 10
ENDMDL
MODEL 5
REMARK VINA RESULT: -4.724075093      1.818      3.329
REMARK  10 active torsions:
REMARK  status: ('A' for Active; 'I' for Inactive)
REMARK    1  A    between atoms: N1_1  and  C1_5 
REMARK    2  A    between atoms: C1_5  and  C2_6 
REMARK    3  A    between atoms: C2_6  and  S1_7 
REMARK    4  A    between atoms: S1_7  and  C3_8 
REMARK    5  A    between atoms: N4_17  and  C7_19 
REMARK    6  A    between atoms: C7_19  and  O2_20 
REMARK    7  A    between atoms: C7_19  and  C8_22 
REMARK    8  A    between atoms: N6_25  and  N7_26 
REMARK    9  A    between atoms: C9_29  and  N8_30 
REMARK   10  A    between atoms: N8_30  and  N9_32 
ROOT
HETATM    1  C3  UNL     1      17.386  21.224  80.500  1.00  0.00     0.190 A 
HETATM    2  N2  UNL     1      16.626  22.316  80.270  1.00  0.00    -0.296 N 
ATOM      3  H2  UNL     1      16.861  23.183  80.754  1.00  0.00     0.171 HD
HETATM    4  C4  UNL     1      15.575  22.314  79.433  1.00  0.00     0.278 A 
HETATM    5  O1  UNL     1      14.853  23.317  79.201  1.00  0.00    -0.266 OA
HETATM    6  C5  UNL     1      15.284  21.105  78.788  1.00  0.00     0.155 A 
HETATM    7  N3  UNL     1      14.271  20.992  77.942  1.00  0.00    -0.182 N 
ATOM      8  H3  UNL     1      13.689  21.810  77.758  1.00  0.00     0.184 HD
HETATM    9  C6  UNL     1      13.973  19.795  77.295  1.00  0.00     0.704 A 
HETATM   10  N4  UNL     1      13.004  19.788  76.517  1.00  0.00    -0.189 N 
ATOM     11  H4  UNL     1      12.544  20.696  76.459  1.00  0.00     0.181 HD
HETATM   12  N6  UNL     1      14.775  18.747  77.574  1.00  0.00    -0.072 N 
HETATM   13  C9  UNL     1      15.821  18.801  78.425  1.00  0.00     0.195 A 
HETATM   14  C10 UNL     1      16.084  20.024  79.053  1.00  0.00     0.159 A 
HETATM   15  O4  UNL     1      17.098  20.083  79.880  1.00  0.00    -0.281 OA
ENDROOT
BRANCH  10  16
HETATM   16  C7  UNL     1      12.401  18.833  75.708  1.00  0.00     0.325 C 
BRANCH  16  17
HETATM   17  O2  UNL     1      11.524  17.966  76.408  1.00  0.00    -0.368 OA
ATOM     18  H2  UNL     1      11.205  18.326  77.228  1.00  0.00     0.212 HD
ENDBRANCH  16  17
BRANCH  16  19
HETATM   19  C8  UNL     1      11.531  19.471  74.639  1.00  0.00     0.280 C 
HETATM   20  N5  UNL     1      10.475  20.300  75.054  1.00  0.00    -0.058 NA
HETATM   21  O3  UNL     1      11.764  19.253  73.420  1.00  0.00    -0.272 OA
ENDBRANCH  16  19
ENDBRANCH  10  16
BRANCH  12  22
HETATM   22  N7  UNL     1      14.549  17.488  76.973  1.00  0.00    -0.322 N 
ATOM     23  H72 UNL     1      15.196  17.239  76.226  1.00  0.00     0.178 HD
ATOM     24  H71 UNL     1      13.785  16.890  77.291  1.00  0.00     0.178 HD
ENDBRANCH  12  22
BRANCH  13  25
HETATM   25  N8  UNL     1      16.567  17.803  78.668  1.00  0.00    -0.288 N 
ATOM     26  H8  UNL     1      16.154  16.997  79.138  1.00  0.00     0.188 HD
BRANCH  25  27
HETATM   27  N9  UNL     1      17.896  17.747  78.335  1.00  0.00    -0.343 N 
ATOM     28  H92 UNL     1      18.247  18.465  77.701  1.00  0.00     0.176 HD
ATOM     29  H91 UNL     1      18.538  17.037  78.685  1.00  0.00     0.176 HD
ENDBRANCH  25  27
ENDBRANCH  13  25
BRANCH   1  30
HETATM   30  S1  UNL     1      18.763  21.329  81.631  1.00  0.00    -0.085 SA
BRANCH  30  31
HETATM   31  C2  UNL     1      18.694  22.873  82.584  1.00  0.00     0.110 C 
BRANCH  31  32
HETATM   32  C1  UNL     1      19.826  23.805  82.205  1.00  0.00     0.240 C 
BRANCH  32  33
HETATM   33  N1  UNL     1      20.185  23.593  80.817  1.00  0.00    -0.079 N 
ATOM     34  H13 UNL     1      20.970  22.949  80.718  1.00  0.00     0.274 HD
ATOM     35  H12 UNL     1      19.484  23.047  80.317  1.00  0.00     0.274 HD
ATOM     36  H11 UNL     1      20.365  24.492  80.370  1.00  0.00     0.274 HD
ENDBRANCH  32  33
ENDBRANCH  31  32
ENDBRANCH  30  31
ENDBRANCH   1  30
TORSDOF 10
ENDMDL
