MODEL 1
REMARK VINA RESULT: -5.340969722      0.000      0.000
REMARK  9 active torsions:
REMARK  status: ('A' for Active; 'I' for Inactive)
REMARK    1  A    between atoms: C3_4  and  O2_5 
REMARK    2  A    between atoms: C6_12  and  O4_13 
REMARK    3  A    between atoms: C6_12  and  N2_15 
REMARK    4  A    between atoms: N2_15  and  S1_17 
REMARK    5  A    between atoms: S1_17  and  O7_20 
REMARK    6  A    between atoms: O7_20  and  C7_21 
REMARK    7  A    between atoms: C7_21  and  C8_22 
REMARK    8  A    between atoms: C8_22  and  C9_23 
REMARK    9  A    between atoms: C9_23  and  O8_24 
ROOT
HETATM    1  O1  UNL     1      13.783  21.862  77.588  1.00  0.00    -0.287 OA
HETATM    2  C1  UNL     1      14.694  21.241  78.192  1.00  0.00     0.196 A 
HETATM    3  C2  UNL     1      15.459  21.861  79.264  1.00  0.00     0.112 A 
HETATM    4  C3  UNL     1      16.426  21.239  79.925  1.00  0.00     0.146 A 
HETATM    5  N1  UNL     1      16.792  19.889  79.621  1.00  0.00    -0.303 N 
ATOM      6  H1  UNL     1      17.540  19.431  80.142  1.00  0.00     0.171 HD
HETATM    7  C4  UNL     1      16.106  19.189  78.591  1.00  0.00     0.266 A 
HETATM    8  O3  UNL     1      16.423  17.990  78.315  1.00  0.00    -0.267 OA
HETATM    9  C5  UNL     1      15.040  19.849  77.850  1.00  0.00     0.133 A 
HETATM   10  C6  UNL     1      14.362  19.240  76.872  1.00  0.00     0.171 C 
ENDROOT
BRANCH  10  11
HETATM   11  O4  UNL     1      14.737  17.926  76.597  1.00  0.00    -0.345 OA
ATOM     12  H4  UNL     1      14.026  17.309  76.467  1.00  0.00     0.219 HD
ENDBRANCH  10  11
BRANCH  10  13
HETATM   13  N2  UNL     1      13.326  19.898  76.162  1.00  0.00    -0.240 N 
ATOM     14  H2  UNL     1      13.546  20.684  75.551  1.00  0.00     0.183 HD
BRANCH  13  15
HETATM   15  S1  UNL     1      11.712  19.374  76.331  1.00  0.00     0.363 S 
HETATM   16  O5  UNL     1      11.699  18.253  77.332  1.00  0.00    -0.175 OA
HETATM   17  O6  UNL     1      10.822  20.465  76.890  1.00  0.00    -0.175 OA
BRANCH  15  18
HETATM   18  O7  UNL     1      11.054  18.818  74.904  1.00  0.00    -0.256 OA
BRANCH  18  19
HETATM   19  C7  UNL     1      12.080  18.312  74.112  1.00  0.00     0.241 C 
BRANCH  19  20
HETATM   20  C8  UNL     1      12.109  16.816  74.087  1.00  0.00     0.178 C 
HETATM   21  N3  UNL     1      13.185  16.312  74.921  1.00  0.00    -0.096 NA
HETATM   22  N4  UNL     1      14.031  16.474  73.793  1.00  0.00    -0.035 NA
HETATM   23  N5  UNL     1      12.876  16.228  73.009  1.00  0.00    -0.096 NA
BRANCH  20  24
HETATM   24  C9  UNL     1      10.784  16.144  74.371  1.00  0.00     0.214 C 
BRANCH  24  25
HETATM   25  O8  UNL     1      10.603  15.917  75.728  1.00  0.00    -0.397 OA
ATOM     26  H8  UNL     1      10.056  16.583  76.127  1.00  0.00     0.209 HD
ENDBRANCH  24  25
ENDBRANCH  20  24
ENDBRANCH  19  20
ENDBRANCH  18  19
ENDBRANCH  15  18
ENDBRANCH  13  15
ENDBRANCH  10  13
BRANCH   4  27
HETATM   27  O2  UNL     1      17.091  21.929  80.929  1.00  0.00    -0.346 OA
ATOM     28  H2  UNL     1      18.041  21.941  80.919  1.00  0.00     0.219 HD
ENDBRANCH   4  27
TORSDOF 9
ENDMDL
MODEL 2
REMARK VINA RESULT: -5.033037902      2.004      2.883
REMARK  9 active torsions:
REMARK  status: ('A' for Active; 'I' for Inactive)
REMARK    1  A    between atoms: C3_4  and  O2_5 
REMARK    2  A    between atoms: C6_12  and  O4_13 
REMARK    3  A    between atoms: C6_12  and  N2_15 
REMARK    4  A    between atoms: N2_15  and  S1_17 
REMARK    5  A    between atoms: S1_17  and  O7_20 
REMARK    6  A    between atoms: O7_20  and  C7_21 
REMARK    7  A    between atoms: C7_21  and  C8_22 
REMARK    8  A    between atoms: C8_22  and  C9_23 
REMARK    9  A    between atoms: C9_23  and  O8_24 
ROOT
HETATM    1  O1  UNL     1      16.607  19.098  78.947  1.00  0.00    -0.287 OA
HETATM    2  C1  UNL     1      16.191  20.266  79.155  1.00  0.00     0.196 A 
HETATM    3  C2  UNL     1      16.826  21.139  80.132  1.00  0.00     0.112 A 
HETATM    4  C3  UNL     1      16.417  22.376  80.379  1.00  0.00     0.146 A 
HETATM    5  N1  UNL     1      15.302  22.948  79.688  1.00  0.00    -0.303 N 
ATOM      6  H1  UNL     1      15.005  23.902  79.895  1.00  0.00     0.171 HD
HETATM    7  C4  UNL     1      14.611  22.181  78.711  1.00  0.00     0.266 A 
HETATM    8  O3  UNL     1      13.620  22.681  78.091  1.00  0.00    -0.267 OA
HETATM    9  C5  UNL     1      15.039  20.820  78.421  1.00  0.00     0.133 A 
HETATM   10  C6  UNL     1      14.427  20.052  77.513  1.00  0.00     0.171 C 
ENDROOT
BRANCH  10  11
HETATM   11  O4  UNL     1      13.345  20.633  76.853  1.00  0.00    -0.345 OA
ATOM     12  H4  UNL     1      12.770  20.035  76.390  1.00  0.00     0.219 HD
ENDBRANCH  10  11
BRANCH  10  13
HETATM   13  N2  UNL     1      14.858  18.729  77.243  1.00  0.00    -0.240 N 
ATOM     14  H2  UNL     1      15.816  18.557  76.938  1.00  0.00     0.183 HD
BRANCH  13  15
HETATM   15  S1  UNL     1      13.775  17.425  77.429  1.00  0.00     0.363 S 
HETATM   16  O5  UNL     1      14.399  16.448  78.387  1.00  0.00    -0.175 OA
HETATM   17  O6  UNL     1      12.466  17.866  78.051  1.00  0.00    -0.175 OA
BRANCH  15  18
HETATM   18  O7  UNL     1      13.454  16.633  75.998  1.00  0.00    -0.256 OA
BRANCH  18  19
HETATM   19  C7  UNL     1      13.391  17.576  74.976  1.00  0.00     0.241 C 
BRANCH  19  20
HETATM   20  C8  UNL     1      12.008  17.749  74.432  1.00  0.00     0.178 C 
HETATM   21  N3  UNL     1      11.982  18.789  73.421  1.00  0.00    -0.096 NA
HETATM   22  N4  UNL     1      11.818  19.713  74.485  1.00  0.00    -0.035 NA
HETATM   23  N5  UNL     1      11.160  18.662  75.172  1.00  0.00    -0.096 NA
BRANCH  20  24
HETATM   24  C9  UNL     1      11.333  16.474  73.979  1.00  0.00     0.214 C 
BRANCH  24  25
HETATM   25  O8  UNL     1      12.251  15.458  73.755  1.00  0.00    -0.397 OA
ATOM     26  H8  UNL     1      12.062  14.983  72.954  1.00  0.00     0.209 HD
ENDBRANCH  24  25
ENDBRANCH  20  24
ENDBRANCH  19  20
ENDBRANCH  18  19
ENDBRANCH  15  18
ENDBRANCH  13  15
ENDBRANCH  10  13
BRANCH   4  27
HETATM   27  O2  UNL     1      17.097  23.119  81.334  1.00  0.00    -0.346 OA
ATOM     28  H2  UNL     1      16.592  23.570  82.002  1.00  0.00     0.219 HD
ENDBRANCH   4  27
TORSDOF 9
ENDMDL
MODEL 3
REMARK VINA RESULT: -4.860172181      1.846      2.986
REMARK  9 active torsions:
REMARK  status: ('A' for Active; 'I' for Inactive)
REMARK    1  A    between atoms: C3_4  and  O2_5 
REMARK    2  A    between atoms: C6_12  and  O4_13 
REMARK    3  A    between atoms: C6_12  and  N2_15 
REMARK    4  A    between atoms: N2_15  and  S1_17 
REMARK    5  A    between atoms: S1_17  and  O7_20 
REMARK    6  A    between atoms: O7_20  and  C7_21 
REMARK    7  A    between atoms: C7_21  and  C8_22 
REMARK    8  A    between atoms: C8_22  and  C9_23 
REMARK    9  A    between atoms: C9_23  and  O8_24 
ROOT
HETATM    1  O1  UNL     1      16.773  19.836  79.485  1.00  0.00    -0.287 OA
HETATM    2  C1  UNL     1      16.303  20.995  79.606  1.00  0.00     0.196 A 
HETATM    3  C2  UNL     1      16.860  21.950  80.554  1.00  0.00     0.112 A 
HETATM    4  C3  UNL     1      16.392  23.181  80.711  1.00  0.00     0.146 A 
HETATM    5  N1  UNL     1      15.284  23.663  79.945  1.00  0.00    -0.303 N 
ATOM      6  H1  UNL     1      14.940  24.613  80.083  1.00  0.00     0.171 HD
HETATM    7  C4  UNL     1      14.665  22.812  78.989  1.00  0.00     0.266 A 
HETATM    8  O3  UNL     1      13.681  23.232  78.304  1.00  0.00    -0.267 OA
HETATM    9  C5  UNL     1      15.160  21.456  78.797  1.00  0.00     0.133 A 
HETATM   10  C6  UNL     1      14.617  20.612  77.913  1.00  0.00     0.171 C 
ENDROOT
BRANCH  10  11
HETATM   11  O4  UNL     1      13.540  21.106  77.180  1.00  0.00    -0.345 OA
ATOM     12  H4  UNL     1      12.728  20.619  77.254  1.00  0.00     0.219 HD
ENDBRANCH  10  11
BRANCH  10  13
HETATM   13  N2  UNL     1      15.113  19.295  77.740  1.00  0.00    -0.240 N 
ATOM     14  H2  UNL     1      16.117  19.132  77.672  1.00  0.00     0.183 HD
BRANCH  13  15
HETATM   15  S1  UNL     1      14.029  17.982  77.645  1.00  0.00     0.363 S 
HETATM   16  O5  UNL     1      14.332  17.057  78.791  1.00  0.00    -0.175 OA
HETATM   17  O6  UNL     1      12.590  18.426  77.817  1.00  0.00    -0.175 OA
BRANCH  15  18
HETATM   18  O7  UNL     1      14.163  17.125  76.221  1.00  0.00    -0.256 OA
BRANCH  18  19
HETATM   19  C7  UNL     1      12.885  16.884  75.728  1.00  0.00     0.241 C 
BRANCH  19  20
HETATM   20  C8  UNL     1      12.755  17.202  74.272  1.00  0.00     0.178 C 
HETATM   21  N3  UNL     1      12.058  16.137  73.575  1.00  0.00    -0.096 NA
HETATM   22  N4  UNL     1      13.318  15.495  73.454  1.00  0.00    -0.035 NA
HETATM   23  N5  UNL     1      13.876  16.799  73.447  1.00  0.00    -0.096 NA
BRANCH  20  24
HETATM   24  C9  UNL     1      12.193  18.571  73.962  1.00  0.00     0.214 C 
BRANCH  24  25
HETATM   25  O8  UNL     1      12.556  19.506  74.922  1.00  0.00    -0.397 OA
ATOM     26  H8  UNL     1      12.559  19.131  75.794  1.00  0.00     0.209 HD
ENDBRANCH  24  25
ENDBRANCH  20  24
ENDBRANCH  19  20
ENDBRANCH  18  19
ENDBRANCH  15  18
ENDBRANCH  13  15
ENDBRANCH  10  13
BRANCH   4  27
HETATM   27  O2  UNL     1      17.001  24.006  81.646  1.00  0.00    -0.346 OA
ATOM     28  H2  UNL     1      16.700  24.905  81.721  1.00  0.00     0.219 HD
ENDBRANCH   4  27
TORSDOF 9
ENDMDL
MODEL 4
REMARK VINA RESULT: -4.838864914      2.164      3.504
REMARK  9 active torsions:
REMARK  status: ('A' for Active; 'I' for Inactive)
REMARK    1  A    between atoms: C3_4  and  O2_5 
REMARK    2  A    between atoms: C6_12  and  O4_13 
REMARK    3  A    between atoms: C6_12  and  N2_15 
REMARK    4  A    between atoms: N2_15  and  S1_17 
REMARK    5  A    between atoms: S1_17  and  O7_20 
REMARK    6  A    between atoms: O7_20  and  C7_21 
REMARK    7  A    between atoms: C7_21  and  C8_22 
REMARK    8  A    between atoms: C8_22  and  C9_23 
REMARK    9  A    between atoms: C9_23  and  O8_24 
ROOT
HETATM    1  O1  UNL     1      16.145  18.035  77.989  1.00  0.00    -0.287 OA
HETATM    2  C1  UNL     1      15.929  19.201  78.407  1.00  0.00     0.196 A 
HETATM    3  C2  UNL     1      16.664  19.756  79.535  1.00  0.00     0.112 A 
HETATM    4  C3  UNL     1      16.465  20.980  80.004  1.00  0.00     0.146 A 
HETATM    5  N1  UNL     1      15.495  21.856  79.422  1.00  0.00    -0.303 N 
ATOM      6  H1  UNL     1      15.358  22.793  79.800  1.00  0.00     0.171 HD
HETATM    7  C4  UNL     1      14.722  21.414  78.314  1.00  0.00     0.266 A 
HETATM    8  O3  UNL     1      13.858  22.185  77.790  1.00  0.00    -0.267 OA
HETATM    9  C5  UNL     1      14.921  20.074  77.779  1.00  0.00     0.133 A 
HETATM   10  C6  UNL     1      14.223  19.605  76.739  1.00  0.00     0.171 C 
ENDROOT
BRANCH  10  11
HETATM   11  O4  UNL     1      13.285  20.478  76.190  1.00  0.00    -0.345 OA
ATOM     12  H4  UNL     1      13.271  20.530  75.242  1.00  0.00     0.219 HD
ENDBRANCH  10  11
BRANCH  10  13
HETATM   13  N2  UNL     1      14.430  18.297  76.231  1.00  0.00    -0.240 N 
ATOM     14  H2  UNL     1      15.368  17.898  76.218  1.00  0.00     0.183 HD
BRANCH  13  15
HETATM   15  S1  UNL     1      13.110  17.392  75.644  1.00  0.00     0.363 S 
HETATM   16  O5  UNL     1      13.638  16.433  74.613  1.00  0.00    -0.175 OA
HETATM   17  O6  UNL     1      12.474  16.552  76.732  1.00  0.00    -0.175 OA
BRANCH  15  18
HETATM   18  O7  UNL     1      11.934  18.338  74.934  1.00  0.00    -0.256 OA
BRANCH  18  19
HETATM   19  C7  UNL     1      10.702  17.992  75.479  1.00  0.00     0.241 C 
BRANCH  19  20
HETATM   20  C8  UNL     1      10.014  19.147  76.136  1.00  0.00     0.178 C 
HETATM   21  N3  UNL     1      10.730  19.557  77.331  1.00  0.00    -0.096 NA
HETATM   22  N4  UNL     1       9.993  18.560  78.021  1.00  0.00    -0.035 NA
HETATM   23  N5  UNL     1       8.966  18.794  77.072  1.00  0.00    -0.096 NA
BRANCH  20  24
HETATM   24  C9  UNL     1       9.690  20.306  75.221  1.00  0.00     0.214 C 
BRANCH  24  25
HETATM   25  O8  UNL     1      10.750  20.607  74.377  1.00  0.00    -0.397 OA
ATOM     26  H8  UNL     1      10.692  21.493  74.040  1.00  0.00     0.209 HD
ENDBRANCH  24  25
ENDBRANCH  20  24
ENDBRANCH  19  20
ENDBRANCH  18  19
ENDBRANCH  15  18
ENDBRANCH  13  15
ENDBRANCH  10  13
BRANCH   4  27
HETATM   27  O2  UNL     1      17.223  21.405  81.086  1.00  0.00    -0.346 OA
ATOM     28  H2  UNL     1      17.703  22.222  81.011  1.00  0.00     0.219 HD
ENDBRANCH   4  27
TORSDOF 9
ENDMDL
MODEL 5
REMARK VINA RESULT: -4.838513509      4.189      6.870
REMARK  9 active torsions:
REMARK  status: ('A' for Active; 'I' for Inactive)
REMARK    1  A    between atoms: C3_4  and  O2_5 
REMARK    2  A    between atoms: C6_12  and  O4_13 
REMARK    3  A    between atoms: C6_12  and  N2_15 
REMARK    4  A    between atoms: N2_15  and  S1_17 
REMARK    5  A    between atoms: S1_17  and  O7_20 
REMARK    6  A    between atoms: O7_20  and  C7_21 
REMARK    7  A    between atoms: C7_21  and  C8_22 
REMARK    8  A    between atoms: C8_22  and  C9_23 
REMARK    9  A    between atoms: C9_23  and  O8_24 
ROOT
HETATM    1  O1  UNL     1       9.723  21.022  76.032  1.00  0.00    -0.287 OA
HETATM    2  C1  UNL     1       8.612  21.092  75.449  1.00  0.00     0.196 A 
HETATM    3  C2  UNL     1       8.297  22.180  74.533  1.00  0.00     0.112 A 
HETATM    4  C3  UNL     1       7.137  22.288  73.900  1.00  0.00     0.146 A 
HETATM    5  N1  UNL     1       6.094  21.325  74.078  1.00  0.00    -0.303 N 
ATOM      6  H1  UNL     1       5.210  21.429  73.582  1.00  0.00     0.171 HD
HETATM    7  C4  UNL     1       6.297  20.221  74.951  1.00  0.00     0.266 A 
HETATM    8  O3  UNL     1       5.377  19.359  75.115  1.00  0.00    -0.267 OA
HETATM    9  C5  UNL     1       7.562  20.078  75.658  1.00  0.00     0.133 A 
HETATM   10  C6  UNL     1       7.809  19.061  76.491  1.00  0.00     0.171 C 
ENDROOT
BRANCH  10  11
HETATM   11  O4  UNL     1       6.778  18.136  76.646  1.00  0.00    -0.345 OA
ATOM     12  H4  UNL     1       6.862  17.539  77.380  1.00  0.00     0.219 HD
ENDBRANCH  10  11
BRANCH  10  13
HETATM   13  N2  UNL     1       9.047  18.938  77.170  1.00  0.00    -0.240 N 
ATOM     14  H2  UNL     1       9.374  19.691  77.775  1.00  0.00     0.183 HD
BRANCH  13  15
HETATM   15  S1  UNL     1       9.989  17.530  76.977  1.00  0.00     0.363 S 
HETATM   16  O5  UNL     1       9.944  16.770  78.273  1.00  0.00    -0.175 OA
HETATM   17  O6  UNL     1       9.417  16.612  75.916  1.00  0.00    -0.175 OA
BRANCH  15  18
HETATM   18  O7  UNL     1      11.582  17.855  76.608  1.00  0.00    -0.256 OA
BRANCH  18  19
HETATM   19  C7  UNL     1      12.061  16.841  75.785  1.00  0.00     0.241 C 
BRANCH  19  20
HETATM   20  C8  UNL     1      12.474  17.336  74.435  1.00  0.00     0.178 C 
HETATM   21  N3  UNL     1      12.031  16.423  73.397  1.00  0.00    -0.096 NA
HETATM   22  N4  UNL     1      13.225  15.694  73.636  1.00  0.00    -0.035 NA
HETATM   23  N5  UNL     1      13.798  16.937  74.006  1.00  0.00    -0.096 NA
BRANCH  20  24
HETATM   24  C9  UNL     1      12.113  18.775  74.142  1.00  0.00     0.214 C 
BRANCH  24  25
HETATM   25  O8  UNL     1      12.184  19.057  72.785  1.00  0.00    -0.397 OA
ATOM     26  H8  UNL     1      13.082  19.091  72.479  1.00  0.00     0.209 HD
ENDBRANCH  24  25
ENDBRANCH  20  24
ENDBRANCH  19  20
ENDBRANCH  18  19
ENDBRANCH  15  18
ENDBRANCH  13  15
ENDBRANCH  10  13
BRANCH   4  27
HETATM   27  O2  UNL     1       6.946  23.369  73.050  1.00  0.00    -0.346 OA
ATOM     28  H2  UNL     1       6.719  24.210  73.430  1.00  0.00     0.219 HD
ENDBRANCH   4  27
TORSDOF 9
ENDMDL
