MODEL 1
REMARK VINA RESULT: -7.117696189      0.000      0.000
REMARK  7 active torsions:
REMARK  status: ('A' for Active; 'I' for Inactive)
REMARK    1  A    between atoms: C2_2  and  N1_3 
REMARK    2  A    between atoms: N1_3  and  C3_4 
REMARK    3  A    between atoms: N1_3  and  C12_19 
REMARK    4  A    between atoms: C3_4  and  C4_5 
REMARK    5  A    between atoms: C4_5  and  C5_6 
REMARK    6  A    between atoms: C5_6  and  N2_7 
REMARK       I    between atoms: N2_7  and  C6_9 
REMARK       I    between atoms: C6_9  and  N3_10 
REMARK       I    between atoms: C6_9  and  N5_13 
REMARK    7  A    between atoms: C12_19  and  C13_20 
ROOT
HETATM    1  N2  UNL     1       9.041   8.952  21.743  1.00  0.00    -0.350 N 
ATOM      2  H2  UNL     1       9.913   8.424  21.693  1.00  0.00     0.163 HD
HETATM    3  C6  UNL     1       8.327   8.980  23.003  1.00  0.00     0.265 C 
HETATM    4  N3  UNL     1       7.185   9.292  23.139  1.00  0.00    -0.294 NA
HETATM    5  C7  UNL     1       5.974   9.599  23.457  1.00  0.00     0.271 C 
HETATM    6  N4  UNL     1       4.898   9.868  23.764  1.00  0.00    -0.156 NA
HETATM    7  N5  UNL     1       9.123   8.578  24.169  1.00  0.00    -0.337 N 
HETATM    8  C8  UNL     1      10.502   8.968  24.248  1.00  0.00     0.153 C 
HETATM    9  C9  UNL     1      10.811   9.425  25.648  1.00  0.00     0.187 C 
HETATM   10  O1  UNL     1      10.340   8.471  26.547  1.00  0.00    -0.388 OA
HETATM   11  C10 UNL     1       8.931   8.443  26.541  1.00  0.00     0.187 C 
HETATM   12  C11 UNL     1       8.552   7.794  25.232  1.00  0.00     0.153 C 
ENDROOT
BRANCH   1  13
HETATM   13  C5  UNL     1       8.587   9.627  20.555  1.00  0.00     0.125 C 
BRANCH  13  14
HETATM   14  C4  UNL     1       8.073   8.589  19.585  1.00  0.00     0.050 C 
BRANCH  14  15
HETATM   15  C3  UNL     1       6.657   8.210  19.776  1.00  0.00     0.274 C 
BRANCH  15  16
HETATM   16  N1  UNL     1       6.433   6.751  19.780  1.00  0.00     0.093 N 
BRANCH  16  17
HETATM   17  C2  UNL     1       6.593   6.240  21.119  1.00  0.00     0.268 C 
HETATM   18  C1  UNL     1       5.319   6.289  21.920  1.00  0.00     0.037 C 
ENDBRANCH  16  17
BRANCH  16  19
HETATM   19  C12 UNL     1       7.590   6.304  18.974  1.00  0.00     0.329 C 
BRANCH  19  20
HETATM   20  C13 UNL     1       7.680   4.907  18.658  1.00  0.00     0.039 A 
HETATM   21  C14 UNL     1       8.728   4.044  18.739  1.00  0.00     0.048 A 
HETATM   22  C15 UNL     1       8.340   2.762  18.328  1.00  0.00     0.046 A 
HETATM   23 BR1  UNL     1       9.391   1.177  18.222  1.00  0.00    -0.048 Br
HETATM   24  C16 UNL     1       7.005   2.909  17.999  1.00  0.00     0.097 A 
HETATM   25 BR2  UNL     1       5.919   1.470  17.356  1.00  0.00    -0.030 Br
HETATM   26  N6  UNL     1       6.616   4.179  18.196  1.00  0.00    -0.351 N 
ATOM     27  H6  UNL     1       5.679   4.543  18.028  1.00  0.00     0.166 HD
ENDBRANCH  19  20
ENDBRANCH  16  19
ENDBRANCH  15  16
ENDBRANCH  14  15
ENDBRANCH  13  14
ENDBRANCH   1  13
TORSDOF 7
ENDMDL
MODEL 2
REMARK VINA RESULT: -7.048063031      0.587      1.268
REMARK  7 active torsions:
REMARK  status: ('A' for Active; 'I' for Inactive)
REMARK    1  A    between atoms: C2_2  and  N1_3 
REMARK    2  A    between atoms: N1_3  and  C3_4 
REMARK    3  A    between atoms: N1_3  and  C12_19 
REMARK    4  A    between atoms: C3_4  and  C4_5 
REMARK    5  A    between atoms: C4_5  and  C5_6 
REMARK    6  A    between atoms: C5_6  and  N2_7 
REMARK       I    between atoms: N2_7  and  C6_9 
REMARK       I    between atoms: C6_9  and  N3_10 
REMARK       I    between atoms: C6_9  and  N5_13 
REMARK    7  A    between atoms: C12_19  and  C13_20 
ROOT
HETATM    1  N2  UNL     1       9.065   8.923  21.776  1.00  0.00    -0.350 N 
ATOM      2  H2  UNL     1       9.935   8.391  21.730  1.00  0.00     0.163 HD
HETATM    3  C6  UNL     1       8.349   8.958  23.035  1.00  0.00     0.265 C 
HETATM    4  N3  UNL     1       7.208   9.276  23.166  1.00  0.00    -0.294 NA
HETATM    5  C7  UNL     1       5.997   9.589  23.481  1.00  0.00     0.271 C 
HETATM    6  N4  UNL     1       4.922   9.864  23.784  1.00  0.00    -0.156 NA
HETATM    7  N5  UNL     1       9.139   8.556  24.204  1.00  0.00    -0.337 N 
HETATM    8  C8  UNL     1      10.520   8.940  24.285  1.00  0.00     0.153 C 
HETATM    9  C9  UNL     1      10.827   9.399  25.684  1.00  0.00     0.187 C 
HETATM   10  O1  UNL     1      10.350   8.450  26.585  1.00  0.00    -0.388 OA
HETATM   11  C10 UNL     1       8.940   8.428  26.575  1.00  0.00     0.187 C 
HETATM   12  C11 UNL     1       8.562   7.777  25.267  1.00  0.00     0.153 C 
ENDROOT
BRANCH   1  13
HETATM   13  C5  UNL     1       8.617   9.597  20.585  1.00  0.00     0.125 C 
BRANCH  13  14
HETATM   14  C4  UNL     1       8.136   8.555  19.602  1.00  0.00     0.050 C 
BRANCH  14  15
HETATM   15  C3  UNL     1       6.723   8.153  19.768  1.00  0.00     0.274 C 
BRANCH  15  16
HETATM   16  N1  UNL     1       6.527   6.690  19.801  1.00  0.00     0.093 N 
BRANCH  16  17
HETATM   17  C2  UNL     1       6.579   6.226  21.166  1.00  0.00     0.268 C 
HETATM   18  C1  UNL     1       5.253   6.335  21.871  1.00  0.00     0.037 C 
ENDBRANCH  16  17
BRANCH  16  19
HETATM   19  C12 UNL     1       7.759   6.243  19.115  1.00  0.00     0.329 C 
BRANCH  19  20
HETATM   20  C13 UNL     1       7.804   4.888  18.647  1.00  0.00     0.039 A 
HETATM   21  C14 UNL     1       6.815   4.072  18.192  1.00  0.00     0.048 A 
HETATM   22  C15 UNL     1       7.336   2.823  17.832  1.00  0.00     0.046 A 
HETATM   23 BR1  UNL     1       6.417   1.300  17.151  1.00  0.00    -0.048 Br
HETATM   24  C16 UNL     1       8.688   2.939  18.096  1.00  0.00     0.097 A 
HETATM   25 BR2  UNL     1       9.940   1.522  17.801  1.00  0.00    -0.030 Br
HETATM   26  N6  UNL     1       8.963   4.162  18.578  1.00  0.00    -0.351 N 
ATOM     27  H6  UNL     1       9.887   4.497  18.849  1.00  0.00     0.166 HD
ENDBRANCH  19  20
ENDBRANCH  16  19
ENDBRANCH  15  16
ENDBRANCH  14  15
ENDBRANCH  13  14
ENDBRANCH   1  13
TORSDOF 7
ENDMDL
MODEL 3
REMARK VINA RESULT: -6.974101908      2.134      3.683
REMARK  7 active torsions:
REMARK  status: ('A' for Active; 'I' for Inactive)
REMARK    1  A    between atoms: C2_2  and  N1_3 
REMARK    2  A    between atoms: N1_3  and  C3_4 
REMARK    3  A    between atoms: N1_3  and  C12_19 
REMARK    4  A    between atoms: C3_4  and  C4_5 
REMARK    5  A    between atoms: C4_5  and  C5_6 
REMARK    6  A    between atoms: C5_6  and  N2_7 
REMARK       I    between atoms: N2_7  and  C6_9 
REMARK       I    between atoms: C6_9  and  N3_10 
REMARK       I    between atoms: C6_9  and  N5_13 
REMARK    7  A    between atoms: C12_19  and  C13_20 
ROOT
HETATM    1  N2  UNL     1       7.148   7.871  25.649  1.00  0.00    -0.350 N 
ATOM      2  H2  UNL     1       7.067   7.959  26.662  1.00  0.00     0.163 HD
HETATM    3  C6  UNL     1       8.431   8.153  25.036  1.00  0.00     0.265 C 
HETATM    4  N3  UNL     1       8.604   8.376  23.878  1.00  0.00    -0.294 NA
HETATM    5  C7  UNL     1       8.963   8.634  22.667  1.00  0.00     0.271 C 
HETATM    6  N4  UNL     1       9.305   8.866  21.593  1.00  0.00    -0.156 NA
HETATM    7  N5  UNL     1       9.568   8.155  25.964  1.00  0.00    -0.337 N 
HETATM    8  C8  UNL     1       9.607   7.196  27.031  1.00  0.00     0.153 C 
HETATM    9  C9  UNL     1      11.001   6.641  27.150  1.00  0.00     0.187 C 
HETATM   10  O1  UNL     1      11.906   7.700  27.178  1.00  0.00    -0.388 OA
HETATM   11  C10 UNL     1      11.943   8.347  25.926  1.00  0.00     0.187 C 
HETATM   12  C11 UNL     1      10.640   9.105  25.832  1.00  0.00     0.153 C 
ENDROOT
BRANCH   1  13
HETATM   13  C5  UNL     1       5.981   7.472  24.905  1.00  0.00     0.125 C 
BRANCH  13  14
HETATM   14  C4  UNL     1       5.115   8.691  24.693  1.00  0.00     0.050 C 
BRANCH  14  15
HETATM   15  C3  UNL     1       4.517   8.799  23.345  1.00  0.00     0.274 C 
BRANCH  15  16
HETATM   16  N1  UNL     1       5.480   8.554  22.252  1.00  0.00     0.093 N 
BRANCH  16  17
HETATM   17  C2  UNL     1       5.537   9.709  21.391  1.00  0.00     0.268 C 
HETATM   18  C1  UNL     1       6.086  10.928  22.083  1.00  0.00     0.037 C 
ENDBRANCH  16  17
BRANCH  16  19
HETATM   19  C12 UNL     1       4.783   7.470  21.525  1.00  0.00     0.329 C 
BRANCH  19  20
HETATM   20  C13 UNL     1       5.581   6.393  21.015  1.00  0.00     0.039 A 
HETATM   21  C14 UNL     1       6.458   6.351  19.977  1.00  0.00     0.048 A 
HETATM   22  C15 UNL     1       7.015   5.071  19.856  1.00  0.00     0.046 A 
HETATM   23 BR1  UNL     1       8.281   4.439  18.581  1.00  0.00    -0.048 Br
HETATM   24  C16 UNL     1       6.423   4.354  20.878  1.00  0.00     0.097 A 
HETATM   25 BR2  UNL     1       6.796   2.507  21.217  1.00  0.00    -0.030 Br
HETATM   26  N6  UNL     1       5.575   5.138  21.564  1.00  0.00    -0.351 N 
ATOM     27  H6  UNL     1       5.016   4.845  22.365  1.00  0.00     0.166 HD
ENDBRANCH  19  20
ENDBRANCH  16  19
ENDBRANCH  15  16
ENDBRANCH  14  15
ENDBRANCH  13  14
ENDBRANCH   1  13
TORSDOF 7
ENDMDL
MODEL 4
REMARK VINA RESULT: -6.956597242      1.577      2.131
REMARK  7 active torsions:
REMARK  status: ('A' for Active; 'I' for Inactive)
REMARK    1  A    between atoms: C2_2  and  N1_3 
REMARK    2  A    between atoms: N1_3  and  C3_4 
REMARK    3  A    between atoms: N1_3  and  C12_19 
REMARK    4  A    between atoms: C3_4  and  C4_5 
REMARK    5  A    between atoms: C4_5  and  C5_6 
REMARK    6  A    between atoms: C5_6  and  N2_7 
REMARK       I    between atoms: N2_7  and  C6_9 
REMARK       I    between atoms: C6_9  and  N3_10 
REMARK       I    between atoms: C6_9  and  N5_13 
REMARK    7  A    between atoms: C12_19  and  C13_20 
ROOT
HETATM    1  N2  UNL     1       8.348  10.141  22.486  1.00  0.00    -0.350 N 
ATOM      2  H2  UNL     1       9.237   9.817  22.106  1.00  0.00     0.163 HD
HETATM    3  C6  UNL     1       7.909   9.601  23.757  1.00  0.00     0.265 C 
HETATM    4  N3  UNL     1       6.794   9.651  24.176  1.00  0.00    -0.294 NA
HETATM    5  C7  UNL     1       5.651   9.619  24.771  1.00  0.00     0.271 C 
HETATM    6  N4  UNL     1       4.640   9.580  25.319  1.00  0.00    -0.156 NA
HETATM    7  N5  UNL     1       8.962   8.948  24.545  1.00  0.00    -0.337 N 
HETATM    8  C8  UNL     1      10.284   9.507  24.551  1.00  0.00     0.153 C 
HETATM    9  C9  UNL     1      10.828   9.481  25.953  1.00  0.00     0.187 C 
HETATM   10  O1  UNL     1      10.646   8.206  26.484  1.00  0.00    -0.388 OA
HETATM   11  C10 UNL     1       9.274   7.949  26.685  1.00  0.00     0.187 C 
HETATM   12  C11 UNL     1       8.699   7.754  25.303  1.00  0.00     0.153 C 
ENDROOT
BRANCH   1  13
HETATM   13  C5  UNL     1       7.597  11.109  21.730  1.00  0.00     0.125 C 
BRANCH  13  14
HETATM   14  C4  UNL     1       7.613  10.693  20.278  1.00  0.00     0.050 C 
BRANCH  14  15
HETATM   15  C3  UNL     1       8.258   9.389  20.014  1.00  0.00     0.274 C 
BRANCH  15  16
HETATM   16  N1  UNL     1       7.394   8.443  19.281  1.00  0.00     0.093 N 
BRANCH  16  17
HETATM   17  C2  UNL     1       6.188   9.114  18.862  1.00  0.00     0.268 C 
HETATM   18  C1  UNL     1       5.434   8.353  17.804  1.00  0.00     0.037 C 
ENDBRANCH  16  17
BRANCH  16  19
HETATM   19  C12 UNL     1       7.045   7.506  20.372  1.00  0.00     0.329 C 
BRANCH  19  20
HETATM   20  C13 UNL     1       7.303   6.111  20.158  1.00  0.00     0.039 A 
HETATM   21  C14 UNL     1       7.978   5.475  19.162  1.00  0.00     0.048 A 
HETATM   22  C15 UNL     1       7.980   4.091  19.377  1.00  0.00     0.046 A 
HETATM   23 BR1  UNL     1       8.756   2.721  18.306  1.00  0.00    -0.048 Br
HETATM   24  C16 UNL     1       7.271   3.937  20.554  1.00  0.00     0.097 A 
HETATM   25 BR2  UNL     1       6.937   2.235  21.362  1.00  0.00    -0.030 Br
HETATM   26  N6  UNL     1       6.872   5.134  21.015  1.00  0.00    -0.351 N 
ATOM     27  H6  UNL     1       6.334   5.290  21.867  1.00  0.00     0.166 HD
ENDBRANCH  19  20
ENDBRANCH  16  19
ENDBRANCH  15  16
ENDBRANCH  14  15
ENDBRANCH  13  14
ENDBRANCH   1  13
TORSDOF 7
ENDMDL
MODEL 5
REMARK VINA RESULT: -6.876974362      2.137      3.766
REMARK  7 active torsions:
REMARK  status: ('A' for Active; 'I' for Inactive)
REMARK    1  A    between atoms: C2_2  and  N1_3 
REMARK    2  A    between atoms: N1_3  and  C3_4 
REMARK    3  A    between atoms: N1_3  and  C12_19 
REMARK    4  A    between atoms: C3_4  and  C4_5 
REMARK    5  A    between atoms: C4_5  and  C5_6 
REMARK    6  A    between atoms: C5_6  and  N2_7 
REMARK       I    between atoms: N2_7  and  C6_9 
REMARK       I    between atoms: C6_9  and  N3_10 
REMARK       I    between atoms: C6_9  and  N5_13 
REMARK    7  A    between atoms: C12_19  and  C13_20 
ROOT
HETATM    1  N2  UNL     1       6.856   7.986  25.429  1.00  0.00    -0.350 N 
ATOM      2  H2  UNL     1       6.846   8.298  26.401  1.00  0.00     0.163 HD
HETATM    3  C6  UNL     1       8.093   8.107  24.684  1.00  0.00     0.265 C 
HETATM    4  N3  UNL     1       8.185   8.066  23.496  1.00  0.00    -0.294 NA
HETATM    5  C7  UNL     1       8.458   8.044  22.237  1.00  0.00     0.271 C 
HETATM    6  N4  UNL     1       8.724   8.028  21.117  1.00  0.00    -0.156 NA
HETATM    7  N5  UNL     1       9.291   8.299  25.508  1.00  0.00    -0.337 N 
HETATM    8  C8  UNL     1       9.406   7.600  26.756  1.00  0.00     0.153 C 
HETATM    9  C9  UNL     1      10.805   7.066  26.901  1.00  0.00     0.187 C 
HETATM   10  O1  UNL     1      11.708   8.092  26.631  1.00  0.00    -0.388 OA
HETATM   11  C10 UNL     1      11.657   8.445  25.267  1.00  0.00     0.187 C 
HETATM   12  C11 UNL     1      10.351   9.181  25.096  1.00  0.00     0.153 C 
ENDROOT
BRANCH   1  13
HETATM   13  C5  UNL     1       5.641   7.449  24.874  1.00  0.00     0.125 C 
BRANCH  13  14
HETATM   14  C4  UNL     1       4.662   8.585  24.687  1.00  0.00     0.050 C 
BRANCH  14  15
HETATM   15  C3  UNL     1       4.078   8.682  23.333  1.00  0.00     0.274 C 
BRANCH  15  16
HETATM   16  N1  UNL     1       5.087   8.683  22.255  1.00  0.00     0.093 N 
BRANCH  16  17
HETATM   17  C2  UNL     1       5.104   9.973  21.610  1.00  0.00     0.268 C 
HETATM   18  C1  UNL     1       6.134  10.904  22.194  1.00  0.00     0.037 C 
ENDBRANCH  16  17
BRANCH  16  19
HETATM   19  C12 UNL     1       4.477   7.710  21.322  1.00  0.00     0.329 C 
BRANCH  19  20
HETATM   20  C13 UNL     1       5.244   6.548  20.979  1.00  0.00     0.039 A 
HETATM   21  C14 UNL     1       5.266   5.304  21.531  1.00  0.00     0.048 A 
HETATM   22  C15 UNL     1       6.175   4.483  20.852  1.00  0.00     0.046 A 
HETATM   23 BR1  UNL     1       6.623   2.664  21.196  1.00  0.00    -0.048 Br
HETATM   24  C16 UNL     1       6.692   5.303  19.867  1.00  0.00     0.097 A 
HETATM   25 BR2  UNL     1       8.008   4.724  18.604  1.00  0.00    -0.030 Br
HETATM   26  N6  UNL     1       6.139   6.525  19.943  1.00  0.00    -0.351 N 
ATOM     27  H6  UNL     1       6.352   7.309  19.328  1.00  0.00     0.166 HD
ENDBRANCH  19  20
ENDBRANCH  16  19
ENDBRANCH  15  16
ENDBRANCH  14  15
ENDBRANCH  13  14
ENDBRANCH   1  13
TORSDOF 7
ENDMDL
