MODEL 1
REMARK VINA RESULT: -8.441403300      0.000      0.000
REMARK  10 active torsions:
REMARK  status: ('A' for Active; 'I' for Inactive)
REMARK    1  A    between atoms: N1_8  and  C7_9 
REMARK    2  A    between atoms: C7_9  and  O1_10 
REMARK    3  A    between atoms: C7_9  and  C8_12 
REMARK       I    between atoms: C8_12  and  N2_14 
REMARK    4  A    between atoms: N2_14  and  C9_16 
REMARK    5  A    between atoms: C9_16  and  C10_17 
REMARK    6  A    between atoms: C10_17  and  C11_18 
REMARK    7  A    between atoms: C11_18  and  N3_19 
REMARK    8  A    between atoms: N3_19  and  C13_21 
REMARK    9  A    between atoms: C13_21  and  C14_22 
REMARK       I    between atoms: C14_22  and  N4_24 
REMARK   10  A    between atoms: N4_24  and  C15_26 
ROOT
HETATM    1  C11 UNL     1       4.330   5.528  19.624  1.00  0.00     0.065 C 
ENDROOT
BRANCH   1   2
HETATM    2  C10 UNL     1       4.967   6.812  19.258  1.00  0.00     0.064 C 
BRANCH   2   3
HETATM    3  C9  UNL     1       6.429   6.770  19.049  1.00  0.00     0.128 C 
BRANCH   3   4
HETATM    4  N2  UNL     1       7.208   7.818  19.611  1.00  0.00    -0.354 N 
HETATM    5  C8  UNL     1       7.941   7.480  20.837  1.00  0.00     0.292 C 
HETATM    6  O2  UNL     1       7.814   6.332  21.246  1.00  0.00    -0.264 OA
ATOM      7  H2  UNL     1       7.255   8.746  19.189  1.00  0.00     0.162 HD
BRANCH   5   8
HETATM    8  C7  UNL     1       8.736   8.486  21.463  1.00  0.00     0.208 C 
BRANCH   8   9
HETATM    9  N1  UNL     1       8.550   9.069  22.700  1.00  0.00    -0.352 N 
HETATM   10  C2  UNL     1       9.184   8.903  23.964  1.00  0.00     0.082 C 
HETATM   11  C1  UNL     1      10.637   8.804  24.058  1.00  0.00     0.032 C 
HETATM   12  C3  UNL     1       8.404   7.813  24.691  1.00  0.00     0.026 C 
HETATM   13  C4  UNL     1       6.952   7.970  24.220  1.00  0.00     0.024 C 
HETATM   14  C5  UNL     1       6.594   9.425  23.969  1.00  0.00     0.100 C 
HETATM   15 CL1  UNL     1       4.862   9.498  23.624  1.00  0.00    -0.123 Cl
HETATM   16  C6  UNL     1       7.366  10.002  22.790  1.00  0.00     0.145 C 
ENDBRANCH   8   9
BRANCH   8  17
HETATM   17  O1  UNL     1       9.773   8.932  20.795  1.00  0.00    -0.342 OA
ATOM     18  H1  UNL     1       9.614   9.721  20.291  1.00  0.00     0.219 HD
ENDBRANCH   8  17
ENDBRANCH   5   8
ENDBRANCH   3   4
ENDBRANCH   2   3
ENDBRANCH   1   2
BRANCH   1  19
HETATM   19  N3  UNL     1       4.337   5.185  20.988  1.00  0.00    -0.370 N 
HETATM   20  C12 UNL     1       4.124   6.296  21.891  1.00  0.00     0.154 C 
BRANCH  19  21
HETATM   21  C13 UNL     1       5.211   4.179  21.432  1.00  0.00     0.164 C 
BRANCH  21  22
HETATM   22  C14 UNL     1       5.793   3.253  20.473  1.00  0.00     0.257 C 
HETATM   23  O3  UNL     1       5.102   2.220  20.143  1.00  0.00    -0.267 OA
HETATM   24  N4  UNL     1       7.047   3.362  19.860  1.00  0.00    -0.347 N 
ATOM     25  H4  UNL     1       7.600   4.177  20.121  1.00  0.00     0.163 HD
BRANCH  24  26
HETATM   26  C15 UNL     1       7.649   2.476  18.915  1.00  0.00     0.034 C 
HETATM   27  C16 UNL     1       9.014   3.056  18.502  1.00  0.00     0.035 C 
HETATM   28  C17 UNL     1       9.749   2.163  17.565  1.00  0.00    -0.012 C 
HETATM   29  C18 UNL     1       8.958   2.066  16.286  1.00  0.00     0.009 C 
HETATM   30  C22 UNL     1       9.941   0.825  18.249  1.00  0.00     0.009 C 
HETATM   31  C19 UNL     1       7.594   1.522  16.633  1.00  0.00    -0.012 C 
HETATM   32  C20 UNL     1       7.795   0.122  17.152  1.00  0.00     0.009 C 
HETATM   33  C24 UNL     1       6.865   2.411  17.598  1.00  0.00     0.035 C 
HETATM   34  C21 UNL     1       8.586   0.222  18.435  1.00  0.00    -0.012 C 
HETATM   35  C23 UNL     1       7.823   1.083  19.432  1.00  0.00     0.035 C 
ENDBRANCH  24  26
ENDBRANCH  21  22
ENDBRANCH  19  21
ENDBRANCH   1  19
TORSDOF 10
ENDMDL
MODEL 2
REMARK VINA RESULT: -8.354794556      1.312      2.002
REMARK  10 active torsions:
REMARK  status: ('A' for Active; 'I' for Inactive)
REMARK    1  A    between atoms: N1_8  and  C7_9 
REMARK    2  A    between atoms: C7_9  and  O1_10 
REMARK    3  A    between atoms: C7_9  and  C8_12 
REMARK       I    between atoms: C8_12  and  N2_14 
REMARK    4  A    between atoms: N2_14  and  C9_16 
REMARK    5  A    between atoms: C9_16  and  C10_17 
REMARK    6  A    between atoms: C10_17  and  C11_18 
REMARK    7  A    between atoms: C11_18  and  N3_19 
REMARK    8  A    between atoms: N3_19  and  C13_21 
REMARK    9  A    between atoms: C13_21  and  C14_22 
REMARK       I    between atoms: C14_22  and  N4_24 
REMARK   10  A    between atoms: N4_24  and  C15_26 
ROOT
HETATM    1  C11 UNL     1       4.495   4.204  20.789  1.00  0.00     0.065 C 
ENDROOT
BRANCH   1   2
HETATM    2  C10 UNL     1       5.267   5.318  21.381  1.00  0.00     0.064 C 
BRANCH   2   3
HETATM    3  C9  UNL     1       6.679   5.421  20.957  1.00  0.00     0.128 C 
BRANCH   3   4
HETATM    4  N2  UNL     1       7.517   6.325  21.664  1.00  0.00    -0.354 N 
HETATM    5  C8  UNL     1       7.888   7.548  20.940  1.00  0.00     0.292 C 
HETATM    6  O2  UNL     1       7.433   7.668  19.808  1.00  0.00    -0.264 OA
ATOM      7  H2  UNL     1       7.840   6.138  22.613  1.00  0.00     0.162 HD
BRANCH   5   8
HETATM    8  C7  UNL     1       8.735   8.499  21.584  1.00  0.00     0.208 C 
BRANCH   8   9
HETATM    9  N1  UNL     1       8.587   9.058  22.836  1.00  0.00    -0.352 N 
HETATM   10  C2  UNL     1       9.287   8.903  24.065  1.00  0.00     0.082 C 
HETATM   11  C1  UNL     1      10.747   8.862  24.088  1.00  0.00     0.032 C 
HETATM   12  C3  UNL     1       8.589   7.773  24.814  1.00  0.00     0.026 C 
HETATM   13  C4  UNL     1       7.111   7.877  24.416  1.00  0.00     0.024 C 
HETATM   14  C5  UNL     1       6.682   9.318  24.203  1.00  0.00     0.100 C 
HETATM   15 CL1  UNL     1       4.934   9.324  23.944  1.00  0.00    -0.123 Cl
HETATM   16  C6  UNL     1       7.372   9.940  22.996  1.00  0.00     0.145 C 
ENDBRANCH   8   9
BRANCH   8  17
HETATM   17  O1  UNL     1       9.788   8.910  20.918  1.00  0.00    -0.342 OA
ATOM     18  H1  UNL     1       9.749   8.764  19.980  1.00  0.00     0.219 HD
ENDBRANCH   8  17
ENDBRANCH   5   8
ENDBRANCH   3   4
ENDBRANCH   2   3
ENDBRANCH   1   2
BRANCH   1  19
HETATM   19  N3  UNL     1       4.106   3.170  21.661  1.00  0.00    -0.370 N 
HETATM   20  C12 UNL     1       3.687   3.615  22.974  1.00  0.00     0.154 C 
BRANCH  19  21
HETATM   21  C13 UNL     1       4.782   1.941  21.604  1.00  0.00     0.164 C 
BRANCH  21  22
HETATM   22  C14 UNL     1       5.996   1.820  20.813  1.00  0.00     0.257 C 
HETATM   23  O3  UNL     1       7.120   2.016  21.406  1.00  0.00    -0.267 OA
HETATM   24  N4  UNL     1       6.079   1.510  19.450  1.00  0.00    -0.347 N 
ATOM     25  H4  UNL     1       5.191   1.357  18.973  1.00  0.00     0.163 HD
BRANCH  24  26
HETATM   26  C15 UNL     1       7.250   1.381  18.643  1.00  0.00     0.034 C 
HETATM   27  C16 UNL     1       6.891   0.565  17.388  1.00  0.00     0.035 C 
HETATM   28  C17 UNL     1       8.039   0.435  16.449  1.00  0.00    -0.012 C 
HETATM   29  C18 UNL     1       9.125  -0.353  17.136  1.00  0.00     0.009 C 
HETATM   30  C22 UNL     1       8.476   1.829  16.050  1.00  0.00     0.009 C 
HETATM   31  C19 UNL     1       9.504   0.391  18.393  1.00  0.00    -0.012 C 
HETATM   32  C20 UNL     1      10.097   1.709  17.964  1.00  0.00     0.009 C 
HETATM   33  C24 UNL     1       8.339   0.544  19.326  1.00  0.00     0.035 C 
HETATM   34  C21 UNL     1       9.005   2.497  17.278  1.00  0.00    -0.012 C 
HETATM   35  C23 UNL     1       7.845   2.695  18.242  1.00  0.00     0.035 C 
ENDBRANCH  24  26
ENDBRANCH  21  22
ENDBRANCH  19  21
ENDBRANCH   1  19
TORSDOF 10
ENDMDL
MODEL 3
REMARK VINA RESULT: -8.200788070      2.031      3.090
REMARK  10 active torsions:
REMARK  status: ('A' for Active; 'I' for Inactive)
REMARK    1  A    between atoms: N1_8  and  C7_9 
REMARK    2  A    between atoms: C7_9  and  O1_10 
REMARK    3  A    between atoms: C7_9  and  C8_12 
REMARK       I    between atoms: C8_12  and  N2_14 
REMARK    4  A    between atoms: N2_14  and  C9_16 
REMARK    5  A    between atoms: C9_16  and  C10_17 
REMARK    6  A    between atoms: C10_17  and  C11_18 
REMARK    7  A    between atoms: C11_18  and  N3_19 
REMARK    8  A    between atoms: N3_19  and  C13_21 
REMARK    9  A    between atoms: C13_21  and  C14_22 
REMARK       I    between atoms: C14_22  and  N4_24 
REMARK   10  A    between atoms: N4_24  and  C15_26 
ROOT
HETATM    1  C11 UNL     1       4.316   4.733  21.451  1.00  0.00     0.065 C 
ENDROOT
BRANCH   1   2
HETATM    2  C10 UNL     1       3.425   5.186  22.542  1.00  0.00     0.064 C 
BRANCH   2   3
HETATM    3  C9  UNL     1       3.896   6.354  23.316  1.00  0.00     0.128 C 
BRANCH   3   4
HETATM    4  N2  UNL     1       5.274   6.404  23.664  1.00  0.00    -0.354 N 
HETATM    5  C8  UNL     1       6.017   7.565  23.157  1.00  0.00     0.292 C 
HETATM    6  O2  UNL     1       5.376   8.373  22.495  1.00  0.00    -0.264 OA
ATOM      7  H2  UNL     1       5.718   5.680  24.229  1.00  0.00     0.162 HD
BRANCH   5   8
HETATM    8  C7  UNL     1       7.407   7.676  23.458  1.00  0.00     0.208 C 
BRANCH   8   9
HETATM    9  N1  UNL     1       8.036   8.639  24.220  1.00  0.00    -0.352 N 
HETATM   10  C2  UNL     1       8.740   9.834  23.899  1.00  0.00     0.082 C 
HETATM   11  C1  UNL     1       8.222  10.752  22.889  1.00  0.00     0.032 C 
HETATM   12  C3  UNL     1      10.203   9.435  23.732  1.00  0.00     0.026 C 
HETATM   13  C4  UNL     1      10.422   8.281  24.719  1.00  0.00     0.024 C 
HETATM   14  C5  UNL     1       9.594   8.451  25.981  1.00  0.00     0.100 C 
HETATM   15 CL1  UNL     1      10.073   7.179  27.111  1.00  0.00    -0.123 Cl
HETATM   16  C6  UNL     1       8.102   8.335  25.697  1.00  0.00     0.145 C 
ENDBRANCH   8   9
BRANCH   8  17
HETATM   17  O1  UNL     1       8.205   6.765  22.953  1.00  0.00    -0.342 OA
ATOM     18  H1  UNL     1       7.816   5.903  22.859  1.00  0.00     0.219 HD
ENDBRANCH   8  17
ENDBRANCH   5   8
ENDBRANCH   3   4
ENDBRANCH   2   3
ENDBRANCH   1   2
BRANCH   1  19
HETATM   19  N3  UNL     1       4.419   5.575  20.328  1.00  0.00    -0.370 N 
HETATM   20  C12 UNL     1       3.401   5.363  19.320  1.00  0.00     0.154 C 
BRANCH  19  21
HETATM   21  C13 UNL     1       5.694   5.935  19.862  1.00  0.00     0.164 C 
BRANCH  21  22
HETATM   22  C14 UNL     1       6.447   5.010  19.030  1.00  0.00     0.257 C 
HETATM   23  O3  UNL     1       6.814   5.413  17.866  1.00  0.00    -0.267 OA
HETATM   24  N4  UNL     1       6.822   3.702  19.362  1.00  0.00    -0.347 N 
ATOM     25  H4  UNL     1       6.530   3.376  20.283  1.00  0.00     0.163 HD
BRANCH  24  26
HETATM   26  C15 UNL     1       7.561   2.768  18.575  1.00  0.00     0.034 C 
HETATM   27  C16 UNL     1       7.632   1.433  19.338  1.00  0.00     0.035 C 
HETATM   28  C17 UNL     1       8.330   0.372  18.562  1.00  0.00    -0.012 C 
HETATM   29  C18 UNL     1       9.764   0.793  18.369  1.00  0.00     0.009 C 
HETATM   30  C22 UNL     1       7.584   0.182  17.257  1.00  0.00     0.009 C 
HETATM   31  C19 UNL     1       9.758   2.116  17.641  1.00  0.00    -0.012 C 
HETATM   32  C20 UNL     1       9.168   1.866  16.277  1.00  0.00     0.009 C 
HETATM   33  C24 UNL     1       9.031   3.177  18.414  1.00  0.00     0.035 C 
HETATM   34  C21 UNL     1       7.729   1.446  16.474  1.00  0.00    -0.012 C 
HETATM   35  C23 UNL     1       6.980   2.545  17.214  1.00  0.00     0.035 C 
ENDBRANCH  24  26
ENDBRANCH  21  22
ENDBRANCH  19  21
ENDBRANCH   1  19
TORSDOF 10
ENDMDL
MODEL 4
REMARK VINA RESULT: -8.174077374      1.905      2.849
REMARK  10 active torsions:
REMARK  status: ('A' for Active; 'I' for Inactive)
REMARK    1  A    between atoms: N1_8  and  C7_9 
REMARK    2  A    between atoms: C7_9  and  O1_10 
REMARK    3  A    between atoms: C7_9  and  C8_12 
REMARK       I    between atoms: C8_12  and  N2_14 
REMARK    4  A    between atoms: N2_14  and  C9_16 
REMARK    5  A    between atoms: C9_16  and  C10_17 
REMARK    6  A    between atoms: C10_17  and  C11_18 
REMARK    7  A    between atoms: C11_18  and  N3_19 
REMARK    8  A    between atoms: N3_19  and  C13_21 
REMARK    9  A    between atoms: C13_21  and  C14_22 
REMARK       I    between atoms: C14_22  and  N4_24 
REMARK   10  A    between atoms: N4_24  and  C15_26 
ROOT
HETATM    1  C11 UNL     1       5.257   5.986  19.878  1.00  0.00     0.065 C 
ENDROOT
BRANCH   1   2
HETATM    2  C10 UNL     1       5.131   7.429  20.176  1.00  0.00     0.064 C 
BRANCH   2   3
HETATM    3  C9  UNL     1       6.363   8.102  20.640  1.00  0.00     0.128 C 
BRANCH   3   4
HETATM    4  N2  UNL     1       6.515   8.312  22.038  1.00  0.00    -0.354 N 
HETATM    5  C8  UNL     1       7.543   7.496  22.696  1.00  0.00     0.292 C 
HETATM    6  O2  UNL     1       8.168   6.725  21.977  1.00  0.00    -0.264 OA
ATOM      7  H2  UNL     1       5.947   8.986  22.550  1.00  0.00     0.162 HD
BRANCH   5   8
HETATM    8  C7  UNL     1       7.745   7.646  24.101  1.00  0.00     0.208 C 
BRANCH   8   9
HETATM    9  N1  UNL     1       8.534   8.572  24.751  1.00  0.00    -0.352 N 
HETATM   10  C2  UNL     1       9.266   9.712  24.313  1.00  0.00     0.082 C 
HETATM   11  C1  UNL     1       8.678  10.652  23.363  1.00  0.00     0.032 C 
HETATM   12  C3  UNL     1      10.663   9.211  23.961  1.00  0.00     0.026 C 
HETATM   13  C4  UNL     1      10.936   8.057  24.934  1.00  0.00     0.024 C 
HETATM   14  C5  UNL     1      10.300   8.298  26.291  1.00  0.00     0.100 C 
HETATM   15 CL1  UNL     1      10.841   7.010  27.373  1.00  0.00    -0.123 Cl
HETATM   16  C6  UNL     1       8.778   8.282  26.212  1.00  0.00     0.145 C 
ENDBRANCH   8   9
BRANCH   8  17
HETATM   17  O1  UNL     1       7.118   6.806  24.890  1.00  0.00    -0.342 OA
ATOM     18  H1  UNL     1       6.661   6.104  24.441  1.00  0.00     0.219 HD
ENDBRANCH   8  17
ENDBRANCH   5   8
ENDBRANCH   3   4
ENDBRANCH   2   3
ENDBRANCH   1   2
BRANCH   1  19
HETATM   19  N3  UNL     1       4.580   5.101  20.738  1.00  0.00    -0.370 N 
HETATM   20  C12 UNL     1       3.617   5.732  21.616  1.00  0.00     0.154 C 
BRANCH  19  21
HETATM   21  C13 UNL     1       5.273   3.997  21.261  1.00  0.00     0.164 C 
BRANCH  21  22
HETATM   22  C14 UNL     1       6.380   3.419  20.516  1.00  0.00     0.257 C 
HETATM   23  O3  UNL     1       7.571   3.622  20.957  1.00  0.00    -0.267 OA
HETATM   24  N4  UNL     1       6.293   2.654  19.346  1.00  0.00    -0.347 N 
ATOM     25  H4  UNL     1       5.351   2.493  18.990  1.00  0.00     0.163 HD
BRANCH  24  26
HETATM   26  C15 UNL     1       7.354   2.070  18.590  1.00  0.00     0.034 C 
HETATM   27  C16 UNL     1       6.759   1.436  17.320  1.00  0.00     0.035 C 
HETATM   28  C17 UNL     1       7.804   0.858  16.432  1.00  0.00    -0.012 C 
HETATM   29  C18 UNL     1       8.472  -0.277  17.164  1.00  0.00     0.009 C 
HETATM   30  C22 UNL     1       8.762   1.969  16.054  1.00  0.00     0.009 C 
HETATM   31  C19 UNL     1       9.058   0.283  18.437  1.00  0.00    -0.012 C 
HETATM   32  C20 UNL     1      10.131   1.262  18.037  1.00  0.00     0.009 C 
HETATM   33  C24 UNL     1       8.006   0.888  19.320  1.00  0.00     0.035 C 
HETATM   34  C21 UNL     1       9.458   2.400  17.304  1.00  0.00    -0.012 C 
HETATM   35  C23 UNL     1       8.426   3.045  18.218  1.00  0.00     0.035 C 
ENDBRANCH  24  26
ENDBRANCH  21  22
ENDBRANCH  19  21
ENDBRANCH   1  19
TORSDOF 10
ENDMDL
MODEL 5
REMARK VINA RESULT: -8.076997910      1.802      2.622
REMARK  10 active torsions:
REMARK  status: ('A' for Active; 'I' for Inactive)
REMARK    1  A    between atoms: N1_8  and  C7_9 
REMARK    2  A    between atoms: C7_9  and  O1_10 
REMARK    3  A    between atoms: C7_9  and  C8_12 
REMARK       I    between atoms: C8_12  and  N2_14 
REMARK    4  A    between atoms: N2_14  and  C9_16 
REMARK    5  A    between atoms: C9_16  and  C10_17 
REMARK    6  A    between atoms: C10_17  and  C11_18 
REMARK    7  A    between atoms: C11_18  and  N3_19 
REMARK    8  A    between atoms: N3_19  and  C13_21 
REMARK    9  A    between atoms: C13_21  and  C14_22 
REMARK       I    between atoms: C14_22  and  N4_24 
REMARK   10  A    between atoms: N4_24  and  C15_26 
ROOT
HETATM    1  C11 UNL     1       4.472   4.176  20.789  1.00  0.00     0.065 C 
ENDROOT
BRANCH   1   2
HETATM    2  C10 UNL     1       5.191   5.341  21.350  1.00  0.00     0.064 C 
BRANCH   2   3
HETATM    3  C9  UNL     1       6.571   5.543  20.862  1.00  0.00     0.128 C 
BRANCH   3   4
HETATM    4  N2  UNL     1       7.268   6.698  21.309  1.00  0.00    -0.354 N 
HETATM    5  C8  UNL     1       7.746   7.601  20.254  1.00  0.00     0.292 C 
HETATM    6  O2  UNL     1       7.491   7.272  19.102  1.00  0.00    -0.264 OA
ATOM      7  H2  UNL     1       7.425   6.889  22.299  1.00  0.00     0.162 HD
BRANCH   5   8
HETATM    8  C7  UNL     1       8.463   8.777  20.628  1.00  0.00     0.208 C 
BRANCH   8   9
HETATM    9  N1  UNL     1       7.975   9.908  21.249  1.00  0.00    -0.352 N 
HETATM   10  C2  UNL     1       7.587  10.197  22.588  1.00  0.00     0.082 C 
HETATM   11  C1  UNL     1       8.404   9.746  23.711  1.00  0.00     0.032 C 
HETATM   12  C3  UNL     1       6.102   9.865  22.683  1.00  0.00     0.026 C 
HETATM   13  C4  UNL     1       5.527  10.183  21.297  1.00  0.00     0.024 C 
HETATM   14  C5  UNL     1       6.222  11.371  20.655  1.00  0.00     0.100 C 
HETATM   15 CL1  UNL     1       5.354  11.759  19.165  1.00  0.00    -0.123 Cl
HETATM   16  C6  UNL     1       7.677  11.062  20.323  1.00  0.00     0.145 C 
ENDBRANCH   8   9
BRANCH   8  17
HETATM   17  O1  UNL     1       9.745   8.812  20.350  1.00  0.00    -0.342 OA
ATOM     18  H1  UNL     1      10.203   7.989  20.478  1.00  0.00     0.219 HD
ENDBRANCH   8  17
ENDBRANCH   5   8
ENDBRANCH   3   4
ENDBRANCH   2   3
ENDBRANCH   1   2
BRANCH   1  19
HETATM   19  N3  UNL     1       4.117   3.157  21.693  1.00  0.00    -0.370 N 
HETATM   20  C12 UNL     1       3.684   3.627  22.992  1.00  0.00     0.154 C 
BRANCH  19  21
HETATM   21  C13 UNL     1       4.835   1.950  21.672  1.00  0.00     0.164 C 
BRANCH  21  22
HETATM   22  C14 UNL     1       6.035   1.837  20.860  1.00  0.00     0.257 C 
HETATM   23  O3  UNL     1       7.167   2.055  21.429  1.00  0.00    -0.267 OA
HETATM   24  N4  UNL     1       6.097   1.512  19.499  1.00  0.00    -0.347 N 
ATOM     25  H4  UNL     1       5.202   1.341  19.042  1.00  0.00     0.163 HD
BRANCH  24  26
HETATM   26  C15 UNL     1       7.253   1.389  18.671  1.00  0.00     0.034 C 
HETATM   27  C16 UNL     1       6.888   0.534  17.444  1.00  0.00     0.035 C 
HETATM   28  C17 UNL     1       8.020   0.406  16.486  1.00  0.00    -0.012 C 
HETATM   29  C18 UNL     1       9.137  -0.339  17.168  1.00  0.00     0.009 C 
HETATM   30  C22 UNL     1       8.416   1.800  16.044  1.00  0.00     0.009 C 
HETATM   31  C19 UNL     1       9.524   0.445  18.398  1.00  0.00    -0.012 C 
HETATM   32  C20 UNL     1      10.078   1.764  17.926  1.00  0.00     0.009 C 
HETATM   33  C24 UNL     1       8.375   0.594  19.352  1.00  0.00     0.035 C 
HETATM   34  C21 UNL     1       8.955   2.510  17.243  1.00  0.00    -0.012 C 
HETATM   35  C23 UNL     1       7.809   2.705  18.226  1.00  0.00     0.035 C 
ENDBRANCH  24  26
ENDBRANCH  21  22
ENDBRANCH  19  21
ENDBRANCH   1  19
TORSDOF 10
ENDMDL
