MODEL 1
REMARK VINA RESULT: -9.961903747      0.000      0.000
REMARK  9 active torsions:
REMARK  status: ('A' for Active; 'I' for Inactive)
REMARK    1  A    between atoms: C1_2  and  C2_3 
REMARK       I    between atoms: C1_2  and  N1_16 
REMARK    2  A    between atoms: C2_3  and  C3_4 
REMARK    3  A    between atoms: C10_11  and  C11_12 
REMARK    4  A    between atoms: N1_16  and  C13_18 
REMARK    5  A    between atoms: C13_18  and  C14_19 
REMARK    6  A    between atoms: N2_22  and  C17_23 
REMARK    7  A    between atoms: C17_23  and  C18_24 
REMARK    8  A    between atoms: C18_24  and  O4_25 
REMARK    9  A    between atoms: C18_24  and  N3_27 
ROOT
HETATM    1  C14 UNL     1       6.790   7.637  20.647  1.00  0.00     0.007 C 
HETATM    2  C15 UNL     1       8.272   7.859  20.395  1.00  0.00     0.036 C 
HETATM    3  C16 UNL     1       8.820   8.482  21.633  1.00  0.00     0.273 C 
HETATM    4  N2  UNL     1       8.412   9.886  21.778  1.00  0.00     0.096 N 
HETATM    5  C24 UNL     1       7.174  10.092  21.002  1.00  0.00     0.273 C 
HETATM    6  C25 UNL     1       6.197   8.955  21.134  1.00  0.00     0.036 C 
ENDROOT
BRANCH   1   7
HETATM    7  C13 UNL     1       6.604   6.559  21.686  1.00  0.00     0.127 C 
BRANCH   7   8
HETATM    8  N1  UNL     1       7.302   5.364  21.291  1.00  0.00    -0.361 N 
HETATM    9  C1  UNL     1       6.604   4.267  20.744  1.00  0.00     0.218 C 
HETATM   10  O1  UNL     1       5.374   4.332  20.593  1.00  0.00    -0.274 OA
ATOM     11  H1  UNL     1       8.313   5.310  21.408  1.00  0.00     0.162 HD
BRANCH   9  12
HETATM   12  C2  UNL     1       7.374   3.064  20.369  1.00  0.00     0.112 C 
BRANCH  12  13
HETATM   13  C3  UNL     1       7.506   2.908  18.851  1.00  0.00     0.034 C 
HETATM   14  C4  UNL     1       8.895   3.194  18.469  1.00  0.00     0.014 C 
HETATM   15  C5  UNL     1       9.651   2.135  17.737  1.00  0.00    -0.013 C 
HETATM   16  C6  UNL     1       9.226   1.883  16.335  1.00  0.00     0.005 C 
HETATM   17  C12 UNL     1       9.706   0.832  18.492  1.00  0.00     0.013 C 
HETATM   18  C7  UNL     1       8.937   0.394  16.263  1.00  0.00     0.009 C 
HETATM   19  C8  UNL     1       8.717   0.003  17.739  1.00  0.00     0.009 C 
HETATM   20  C9  UNL     1       7.351   0.457  18.042  1.00  0.00    -0.008 C 
HETATM   21  C10 UNL     1       6.916   1.621  18.481  1.00  0.00     0.020 C 
BRANCH  21  22
HETATM   22  C11 UNL     1       5.446   1.642  18.603  1.00  0.00     0.205 C 
HETATM   23  O2  UNL     1       4.829   1.023  19.481  1.00  0.00    -0.644 OA
HETATM   24  O3  UNL     1       4.699   2.383  17.702  1.00  0.00    -0.644 OA
ENDBRANCH  21  22
ENDBRANCH  12  13
ENDBRANCH   9  12
ENDBRANCH   7   8
ENDBRANCH   1   7
BRANCH   4  25
HETATM   25  C17 UNL     1       8.172  10.148  23.159  1.00  0.00     0.355 C 
BRANCH  25  26
HETATM   26  C18 UNL     1       9.331  10.056  24.046  1.00  0.00     0.142 C 
BRANCH  26  27
HETATM   27  O4  UNL     1      10.103  11.127  24.033  1.00  0.00    -0.348 OA
ATOM     28  H4  UNL     1      10.925  11.006  23.571  1.00  0.00     0.219 HD
ENDBRANCH  26  27
BRANCH  26  29
HETATM   29  N3  UNL     1       9.769   9.064  24.897  1.00  0.00    -0.364 N 
HETATM   30  C19 UNL     1      11.131   9.170  25.475  1.00  0.00     0.130 C 
HETATM   31  C20 UNL     1      11.680   7.795  25.785  1.00  0.00     0.099 C 
HETATM   32  C21 UNL     1      10.855   7.139  26.880  1.00  0.00     0.246 C 
HETATM   33  F1  UNL     1      11.349   7.566  28.120  1.00  0.00    -0.206 F 
HETATM   34  F2  UNL     1      10.916   5.787  26.735  1.00  0.00    -0.206 F 
HETATM   35  C22 UNL     1       9.426   7.605  26.821  1.00  0.00     0.099 C 
HETATM   36  C23 UNL     1       9.023   7.927  25.362  1.00  0.00     0.130 C 
ENDBRANCH  26  29
ENDBRANCH  25  26
ENDBRANCH   4  25
TORSDOF 9
ENDMDL
MODEL 2
REMARK VINA RESULT: -9.792531819      1.459      2.139
REMARK  9 active torsions:
REMARK  status: ('A' for Active; 'I' for Inactive)
REMARK    1  A    between atoms: C1_2  and  C2_3 
REMARK       I    between atoms: C1_2  and  N1_16 
REMARK    2  A    between atoms: C2_3  and  C3_4 
REMARK    3  A    between atoms: C10_11  and  C11_12 
REMARK    4  A    between atoms: N1_16  and  C13_18 
REMARK    5  A    between atoms: C13_18  and  C14_19 
REMARK    6  A    between atoms: N2_22  and  C17_23 
REMARK    7  A    between atoms: C17_23  and  C18_24 
REMARK    8  A    between atoms: C18_24  and  O4_25 
REMARK    9  A    between atoms: C18_24  and  N3_27 
ROOT
HETATM    1  C14 UNL     1       4.860   7.733  22.102  1.00  0.00     0.007 C 
HETATM    2  C15 UNL     1       4.697   9.241  22.201  1.00  0.00     0.036 C 
HETATM    3  C16 UNL     1       6.069   9.817  22.112  1.00  0.00     0.273 C 
HETATM    4  N2  UNL     1       6.845   9.601  23.341  1.00  0.00     0.096 N 
HETATM    5  C24 UNL     1       6.277   8.438  24.049  1.00  0.00     0.273 C 
HETATM    6  C25 UNL     1       5.905   7.308  23.126  1.00  0.00     0.036 C 
ENDROOT
BRANCH   1   7
HETATM    7  C13 UNL     1       5.303   7.357  20.709  1.00  0.00     0.127 C 
BRANCH   7   8
HETATM    8  N1  UNL     1       6.008   6.103  20.734  1.00  0.00    -0.361 N 
HETATM    9  C1  UNL     1       7.148   5.899  19.929  1.00  0.00     0.218 C 
HETATM   10  O1  UNL     1       7.556   6.811  19.195  1.00  0.00    -0.274 OA
ATOM     11  H1  UNL     1       5.679   5.353  21.342  1.00  0.00     0.162 HD
BRANCH   9  12
HETATM   12  C2  UNL     1       7.822   4.585  19.991  1.00  0.00     0.112 C 
BRANCH  12  13
HETATM   13  C3  UNL     1       7.230   3.582  18.995  1.00  0.00     0.034 C 
HETATM   14  C4  UNL     1       7.983   3.670  17.738  1.00  0.00     0.014 C 
HETATM   15  C5  UNL     1       8.630   2.427  17.223  1.00  0.00    -0.013 C 
HETATM   16  C6  UNL     1       7.711   1.382  16.700  1.00  0.00     0.005 C 
HETATM   17  C12 UNL     1       9.584   1.813  18.216  1.00  0.00     0.013 C 
HETATM   18  C7  UNL     1       8.066   0.117  17.461  1.00  0.00     0.009 C 
HETATM   19  C8  UNL     1       8.794   0.647  18.713  1.00  0.00     0.009 C 
HETATM   20  C9  UNL     1       7.715   1.115  19.598  1.00  0.00    -0.008 C 
HETATM   21  C10 UNL     1       7.124   2.290  19.674  1.00  0.00     0.020 C 
BRANCH  21  22
HETATM   22  C11 UNL     1       6.053   2.295  20.688  1.00  0.00     0.205 C 
HETATM   23  O2  UNL     1       6.110   1.641  21.739  1.00  0.00    -0.644 OA
HETATM   24  O3  UNL     1       4.918   3.062  20.477  1.00  0.00    -0.644 OA
ENDBRANCH  21  22
ENDBRANCH  12  13
ENDBRANCH   9  12
ENDBRANCH   7   8
ENDBRANCH   1   7
BRANCH   4  25
HETATM   25  C17 UNL     1       8.200   9.342  22.983  1.00  0.00     0.355 C 
BRANCH  25  26
HETATM   26  C18 UNL     1       9.211   9.698  23.978  1.00  0.00     0.142 C 
BRANCH  26  27
HETATM   27  O4  UNL     1       9.586  10.963  23.934  1.00  0.00    -0.348 OA
ATOM     28  H4  UNL     1      10.482  11.111  24.216  1.00  0.00     0.219 HD
ENDBRANCH  26  27
BRANCH  26  29
HETATM   29  N3  UNL     1       9.843   8.964  24.959  1.00  0.00    -0.364 N 
HETATM   30  C19 UNL     1       9.148   7.784  25.527  1.00  0.00     0.130 C 
HETATM   31  C20 UNL     1       9.609   7.533  26.945  1.00  0.00     0.099 C 
HETATM   32  C21 UNL     1      11.079   7.146  26.954  1.00  0.00     0.246 C 
HETATM   33  F1  UNL     1      11.173   5.767  26.727  1.00  0.00    -0.206 F 
HETATM   34  F2  UNL     1      11.631   7.515  28.143  1.00  0.00    -0.206 F 
HETATM   35  C22 UNL     1      11.809   7.803  25.815  1.00  0.00     0.099 C 
HETATM   36  C23 UNL     1      11.167   9.171  25.479  1.00  0.00     0.130 C 
ENDBRANCH  26  29
ENDBRANCH  25  26
ENDBRANCH   4  25
TORSDOF 9
ENDMDL
MODEL 3
REMARK VINA RESULT: -9.521756472      1.649      1.974
REMARK  9 active torsions:
REMARK  status: ('A' for Active; 'I' for Inactive)
REMARK    1  A    between atoms: C1_2  and  C2_3 
REMARK       I    between atoms: C1_2  and  N1_16 
REMARK    2  A    between atoms: C2_3  and  C3_4 
REMARK    3  A    between atoms: C10_11  and  C11_12 
REMARK    4  A    between atoms: N1_16  and  C13_18 
REMARK    5  A    between atoms: C13_18  and  C14_19 
REMARK    6  A    between atoms: N2_22  and  C17_23 
REMARK    7  A    between atoms: C17_23  and  C18_24 
REMARK    8  A    between atoms: C18_24  and  O4_25 
REMARK    9  A    between atoms: C18_24  and  N3_27 
ROOT
HETATM    1  C14 UNL     1       6.968   8.825  18.857  1.00  0.00     0.007 C 
HETATM    2  C15 UNL     1       8.290   8.714  19.598  1.00  0.00     0.036 C 
HETATM    3  C16 UNL     1       7.952   8.633  21.048  1.00  0.00     0.273 C 
HETATM    4  N2  UNL     1       7.507   9.924  21.589  1.00  0.00     0.096 N 
HETATM    5  C24 UNL     1       6.998  10.744  20.474  1.00  0.00     0.273 C 
HETATM    6  C25 UNL     1       6.170   9.958  19.492  1.00  0.00     0.036 C 
ENDROOT
BRANCH   1   7
HETATM    7  C13 UNL     1       6.212   7.523  18.962  1.00  0.00     0.127 C 
BRANCH   7   8
HETATM    8  N1  UNL     1       7.125   6.413  18.901  1.00  0.00    -0.361 N 
HETATM    9  C1  UNL     1       6.958   5.293  19.742  1.00  0.00     0.218 C 
HETATM   10  O1  UNL     1       6.009   5.257  20.540  1.00  0.00    -0.274 OA
ATOM     11  H1  UNL     1       7.903   6.437  18.242  1.00  0.00     0.162 HD
BRANCH   9  12
HETATM   12  C2  UNL     1       7.936   4.190  19.642  1.00  0.00     0.112 C 
BRANCH  12  13
HETATM   13  C3  UNL     1       7.476   3.093  18.677  1.00  0.00     0.034 C 
HETATM   14  C4  UNL     1       8.171   3.273  17.397  1.00  0.00     0.014 C 
HETATM   15  C5  UNL     1       8.986   2.134  16.877  1.00  0.00    -0.013 C 
HETATM   16  C6  UNL     1       8.222   0.954  16.395  1.00  0.00     0.005 C 
HETATM   17  C12 UNL     1      10.050   1.689  17.848  1.00  0.00     0.013 C 
HETATM   18  C7  UNL     1       8.787  -0.230  17.160  1.00  0.00     0.009 C 
HETATM   19  C8  UNL     1       9.461   0.425  18.383  1.00  0.00     0.009 C 
HETATM   20  C9  UNL     1       8.348   0.738  19.294  1.00  0.00    -0.008 C 
HETATM   21  C10 UNL     1       7.588   1.810  19.374  1.00  0.00     0.020 C 
BRANCH  21  22
HETATM   22  C11 UNL     1       6.557   1.670  20.420  1.00  0.00     0.205 C 
HETATM   23  O2  UNL     1       5.353   1.518  20.170  1.00  0.00    -0.644 OA
HETATM   24  O3  UNL     1       6.930   1.707  21.754  1.00  0.00    -0.644 OA
ENDBRANCH  21  22
ENDBRANCH  12  13
ENDBRANCH   9  12
ENDBRANCH   7   8
ENDBRANCH   1   7
BRANCH   4  25
HETATM   25  C17 UNL     1       6.468   9.685  22.535  1.00  0.00     0.355 C 
BRANCH  25  26
HETATM   26  C18 UNL     1       6.894   9.379  23.900  1.00  0.00     0.142 C 
BRANCH  26  27
HETATM   27  O4  UNL     1       5.933   9.486  24.800  1.00  0.00    -0.348 OA
ATOM     28  H4  UNL     1       6.121  10.107  25.495  1.00  0.00     0.219 HD
ENDBRANCH  26  27
BRANCH  26  29
HETATM   29  N3  UNL     1       8.108   8.994  24.427  1.00  0.00    -0.364 N 
HETATM   30  C19 UNL     1       9.297   9.845  24.177  1.00  0.00     0.130 C 
HETATM   31  C20 UNL     1      10.558   9.011  24.205  1.00  0.00     0.099 C 
HETATM   32  C21 UNL     1      10.781   8.451  25.600  1.00  0.00     0.246 C 
HETATM   33  F1  UNL     1      11.457   9.415  26.360  1.00  0.00    -0.206 F 
HETATM   34  F2  UNL     1      11.476   7.284  25.506  1.00  0.00    -0.206 F 
HETATM   35  C22 UNL     1       9.468   8.220  26.297  1.00  0.00     0.099 C 
HETATM   36  C23 UNL     1       8.367   7.859  25.270  1.00  0.00     0.130 C 
ENDBRANCH  26  29
ENDBRANCH  25  26
ENDBRANCH   4  25
TORSDOF 9
ENDMDL
MODEL 4
REMARK VINA RESULT: -9.485386137      1.326      1.994
REMARK  9 active torsions:
REMARK  status: ('A' for Active; 'I' for Inactive)
REMARK    1  A    between atoms: C1_2  and  C2_3 
REMARK       I    between atoms: C1_2  and  N1_16 
REMARK    2  A    between atoms: C2_3  and  C3_4 
REMARK    3  A    between atoms: C10_11  and  C11_12 
REMARK    4  A    between atoms: N1_16  and  C13_18 
REMARK    5  A    between atoms: C13_18  and  C14_19 
REMARK    6  A    between atoms: N2_22  and  C17_23 
REMARK    7  A    between atoms: C17_23  and  C18_24 
REMARK    8  A    between atoms: C18_24  and  O4_25 
REMARK    9  A    between atoms: C18_24  and  N3_27 
ROOT
HETATM    1  C14 UNL     1       4.876   8.055  21.743  1.00  0.00     0.007 C 
HETATM    2  C15 UNL     1       4.832   9.573  21.803  1.00  0.00     0.036 C 
HETATM    3  C16 UNL     1       6.249  10.034  21.823  1.00  0.00     0.273 C 
HETATM    4  N2  UNL     1       6.898   9.784  23.118  1.00  0.00     0.096 N 
HETATM    5  C24 UNL     1       6.177   8.687  23.794  1.00  0.00     0.273 C 
HETATM    6  C25 UNL     1       5.792   7.570  22.861  1.00  0.00     0.036 C 
ENDROOT
BRANCH   1   7
HETATM    7  C13 UNL     1       5.402   7.612  20.400  1.00  0.00     0.127 C 
BRANCH   7   8
HETATM    8  N1  UNL     1       5.917   6.272  20.487  1.00  0.00    -0.361 N 
HETATM    9  C1  UNL     1       6.635   5.701  19.415  1.00  0.00     0.218 C 
HETATM   10  O1  UNL     1       6.834   6.363  18.385  1.00  0.00    -0.274 OA
ATOM     11  H1  UNL     1       5.762   5.727  21.335  1.00  0.00     0.162 HD
BRANCH   9  12
HETATM   12  C2  UNL     1       7.129   4.316  19.560  1.00  0.00     0.112 C 
BRANCH  12  13
HETATM   13  C3  UNL     1       7.607   3.728  18.229  1.00  0.00     0.034 C 
HETATM   14  C4  UNL     1       9.030   3.387  18.353  1.00  0.00     0.014 C 
HETATM   15  C5  UNL     1       9.435   1.973  18.089  1.00  0.00    -0.013 C 
HETATM   16  C6  UNL     1       9.362   1.529  16.673  1.00  0.00     0.005 C 
HETATM   17  C12 UNL     1       8.711   0.987  18.969  1.00  0.00     0.013 C 
HETATM   18  C7  UNL     1       8.499   0.280  16.688  1.00  0.00     0.009 C 
HETATM   19  C8  UNL     1       7.723   0.399  18.015  1.00  0.00     0.009 C 
HETATM   20  C9  UNL     1       6.658   1.375  17.735  1.00  0.00    -0.008 C 
HETATM   21  C10 UNL     1       6.657   2.688  17.833  1.00  0.00     0.020 C 
BRANCH  21  22
HETATM   22  C11 UNL     1       5.370   3.265  17.402  1.00  0.00     0.205 C 
HETATM   23  O2  UNL     1       4.294   3.022  17.967  1.00  0.00    -0.644 OA
HETATM   24  O3  UNL     1       5.337   4.122  16.314  1.00  0.00    -0.644 OA
ENDBRANCH  21  22
ENDBRANCH  12  13
ENDBRANCH   9  12
ENDBRANCH   7   8
ENDBRANCH   1   7
BRANCH   4  25
HETATM   25  C17 UNL     1       8.252   9.406  22.882  1.00  0.00     0.355 C 
BRANCH  25  26
HETATM   26  C18 UNL     1       9.212   9.756  23.929  1.00  0.00     0.142 C 
BRANCH  26  27
HETATM   27  O4  UNL     1       9.564  11.029  23.930  1.00  0.00    -0.348 OA
ATOM     28  H4  UNL     1      10.501  11.171  23.848  1.00  0.00     0.219 HD
ENDBRANCH  26  27
BRANCH  26  29
HETATM   29  N3  UNL     1       9.815   9.011  24.919  1.00  0.00    -0.364 N 
HETATM   30  C19 UNL     1       9.088   7.845  25.477  1.00  0.00     0.130 C 
HETATM   31  C20 UNL     1       9.523   7.585  26.902  1.00  0.00     0.099 C 
HETATM   32  C21 UNL     1      10.984   7.169  26.933  1.00  0.00     0.246 C 
HETATM   33  F1  UNL     1      11.054   5.788  26.708  1.00  0.00    -0.206 F 
HETATM   34  F2  UNL     1      11.525   7.527  28.130  1.00  0.00    -0.206 F 
HETATM   35  C22 UNL     1      11.744   7.810  25.804  1.00  0.00     0.099 C 
HETATM   36  C23 UNL     1      11.134   9.191  25.459  1.00  0.00     0.130 C 
ENDBRANCH  26  29
ENDBRANCH  25  26
ENDBRANCH   4  25
TORSDOF 9
ENDMDL
MODEL 5
REMARK VINA RESULT: -9.439866469      2.101      2.794
REMARK  9 active torsions:
REMARK  status: ('A' for Active; 'I' for Inactive)
REMARK    1  A    between atoms: C1_2  and  C2_3 
REMARK       I    between atoms: C1_2  and  N1_16 
REMARK    2  A    between atoms: C2_3  and  C3_4 
REMARK    3  A    between atoms: C10_11  and  C11_12 
REMARK    4  A    between atoms: N1_16  and  C13_18 
REMARK    5  A    between atoms: C13_18  and  C14_19 
REMARK    6  A    between atoms: N2_22  and  C17_23 
REMARK    7  A    between atoms: C17_23  and  C18_24 
REMARK    8  A    between atoms: C18_24  and  O4_25 
REMARK    9  A    between atoms: C18_24  and  N3_27 
ROOT
HETATM    1  C14 UNL     1       4.433   7.480  19.328  1.00  0.00     0.007 C 
HETATM    2  C15 UNL     1       4.764   8.869  19.849  1.00  0.00     0.036 C 
HETATM    3  C16 UNL     1       5.921   8.705  20.775  1.00  0.00     0.273 C 
HETATM    4  N2  UNL     1       5.532   8.083  22.048  1.00  0.00     0.096 N 
HETATM    5  C24 UNL     1       4.292   7.314  21.829  1.00  0.00     0.273 C 
HETATM    6  C25 UNL     1       4.290   6.553  20.530  1.00  0.00     0.036 C 
ENDROOT
BRANCH   1   7
HETATM    7  C13 UNL     1       5.537   6.999  18.419  1.00  0.00     0.127 C 
BRANCH   7   8
HETATM    8  N1  UNL     1       6.013   5.713  18.855  1.00  0.00    -0.361 N 
HETATM    9  C1  UNL     1       7.348   5.541  19.277  1.00  0.00     0.218 C 
HETATM   10  O1  UNL     1       8.122   6.509  19.283  1.00  0.00    -0.274 OA
ATOM     11  H1  UNL     1       5.377   4.915  18.858  1.00  0.00     0.162 HD
BRANCH   9  12
HETATM   12  C2  UNL     1       7.780   4.193  19.701  1.00  0.00     0.112 C 
BRANCH  12  13
HETATM   13  C3  UNL     1       7.379   3.111  18.693  1.00  0.00     0.034 C 
HETATM   14  C4  UNL     1       8.146   3.315  17.458  1.00  0.00     0.014 C 
HETATM   15  C5  UNL     1       8.992   2.188  16.966  1.00  0.00    -0.013 C 
HETATM   16  C6  UNL     1       8.261   1.014  16.421  1.00  0.00     0.005 C 
HETATM   17  C12 UNL     1      10.001   1.729  17.988  1.00  0.00     0.013 C 
HETATM   18  C7  UNL     1       8.786  -0.181  17.197  1.00  0.00     0.009 C 
HETATM   19  C8  UNL     1       9.387   0.454  18.467  1.00  0.00     0.009 C 
HETATM   20  C9  UNL     1       8.223   0.749  19.319  1.00  0.00    -0.008 C 
HETATM   21  C10 UNL     1       7.456   1.817  19.374  1.00  0.00     0.020 C 
BRANCH  21  22
HETATM   22  C11 UNL     1       6.368   1.656  20.357  1.00  0.00     0.205 C 
HETATM   23  O2  UNL     1       5.172   1.588  20.040  1.00  0.00    -0.644 OA
HETATM   24  O3  UNL     1       6.675   1.576  21.706  1.00  0.00    -0.644 OA
ENDBRANCH  21  22
ENDBRANCH  12  13
ENDBRANCH   9  12
ENDBRANCH   7   8
ENDBRANCH   1   7
BRANCH   4  25
HETATM   25  C17 UNL     1       6.580   7.211  22.466  1.00  0.00     0.355 C 
BRANCH  25  26
HETATM   26  C18 UNL     1       7.081   7.408  23.825  1.00  0.00     0.142 C 
BRANCH  26  27
HETATM   27  O4  UNL     1       6.270   6.961  24.767  1.00  0.00    -0.348 OA
ATOM     28  H4  UNL     1       5.787   7.644  25.217  1.00  0.00     0.219 HD
ENDBRANCH  26  27
BRANCH  26  29
HETATM   29  N3  UNL     1       8.243   7.968  24.312  1.00  0.00    -0.364 N 
HETATM   30  C19 UNL     1       8.924   7.316  25.457  1.00  0.00     0.130 C 
HETATM   31  C20 UNL     1       9.705   8.336  26.255  1.00  0.00     0.099 C 
HETATM   32  C21 UNL     1      10.838   8.899  25.413  1.00  0.00     0.246 C 
HETATM   33  F1  UNL     1      11.938   8.039  25.520  1.00  0.00    -0.206 F 
HETATM   34  F2  UNL     1      11.124  10.161  25.836  1.00  0.00    -0.206 F 
HETATM   35  C22 UNL     1      10.463   8.911  23.956  1.00  0.00     0.099 C 
HETATM   36  C23 UNL     1       8.937   9.114  23.793  1.00  0.00     0.130 C 
ENDBRANCH  26  29
ENDBRANCH  25  26
ENDBRANCH   4  25
TORSDOF 9
ENDMDL
