MODEL 1
REMARK VINA RESULT: -9.359872466      0.000      0.000
REMARK  7 active torsions:
REMARK  status: ('A' for Active; 'I' for Inactive)
REMARK       I    between atoms: C2_2  and  N1_4 
REMARK    1  A    between atoms: C4_6  and  N2_7 
REMARK       I    between atoms: N2_7  and  C5_9 
REMARK    2  A    between atoms: C5_9  and  C6_11 
REMARK    3  A    between atoms: C6_11  and  N3_12 
REMARK    4  A    between atoms: N3_12  and  C7_15 
REMARK    5  A    between atoms: C7_15  and  C8_16 
REMARK    6  A    between atoms: C7_15  and  C15_23 
REMARK    7  A    between atoms: C8_16  and  C9_17 
REMARK       I    between atoms: C15_23  and  N4_25 
ROOT
HETATM    1  N3  UNL     1       7.141   7.063  23.903  1.00  0.00    -0.054 N 
ATOM      2  H31 UNL     1       7.706   6.308  24.290  1.00  0.00     0.278 HD
ATOM      3  H32 UNL     1       6.259   6.568  23.773  1.00  0.00     0.278 HD
ENDROOT
BRANCH   1   4
HETATM    4  C6  UNL     1       7.665   7.489  22.650  1.00  0.00     0.335 C 
BRANCH   4   5
HETATM    5  C5  UNL     1       7.042   6.639  21.572  1.00  0.00     0.243 C 
HETATM    6  N2  UNL     1       7.654   5.427  21.203  1.00  0.00    -0.353 N 
ATOM      7  H2  UNL     1       8.514   5.140  21.669  1.00  0.00     0.163 HD
HETATM    8  O2  UNL     1       5.984   7.081  21.058  1.00  0.00    -0.272 OA
BRANCH   6   9
HETATM    9  C4  UNL     1       7.094   4.585  20.184  1.00  0.00     0.103 C 
HETATM   10  C3  UNL     1       7.524   5.093  18.824  1.00  0.00     0.150 C 
HETATM   11  N1  UNL     1       7.156   4.173  17.771  1.00  0.00    -0.350 N 
HETATM   12  C2  UNL     1       6.375   4.666  16.696  1.00  0.00     0.215 C 
HETATM   13  C24 UNL     1       7.614   2.819  17.891  1.00  0.00     0.134 C 
HETATM   14  C1  UNL     1       6.010   3.687  15.614  1.00  0.00     0.117 C 
HETATM   15  O1  UNL     1       5.998   5.863  16.637  1.00  0.00    -0.274 OA
HETATM   16  C21 UNL     1       7.186   2.257  19.202  1.00  0.00    -0.029 C 
HETATM   17  C20 UNL     1       7.368   3.139  20.384  1.00  0.00     0.037 C 
HETATM   18  C22 UNL     1       5.691   1.928  19.106  1.00  0.00     0.016 C 
HETATM   19  C23 UNL     1       7.913   0.927  19.402  1.00  0.00     0.016 C 
ENDBRANCH   6   9
ENDBRANCH   4   5
ENDBRANCH   1   4
BRANCH   1  20
HETATM   20  C7  UNL     1       6.984   8.161  24.893  1.00  0.00     0.278 C 
BRANCH  20  21
HETATM   21  C8  UNL     1       5.740   8.854  24.550  1.00  0.00     0.047 C 
BRANCH  21  22
HETATM   22  C9  UNL     1       4.441   8.151  24.510  1.00  0.00    -0.012 C 
HETATM   23  C10 UNL     1       3.713   8.665  23.236  1.00  0.00     0.005 C 
HETATM   24  C11 UNL     1       3.368  10.106  23.310  1.00  0.00     0.000 C 
HETATM   25  C12 UNL     1       2.602  10.522  24.527  1.00  0.00     0.000 C 
HETATM   26  C13 UNL     1       3.169   9.908  25.791  1.00  0.00     0.000 C 
HETATM   27  C14 UNL     1       3.455   8.443  25.602  1.00  0.00     0.005 C 
ENDBRANCH  21  22
ENDBRANCH  20  21
BRANCH  20  28
HETATM   28  C15 UNL     1       8.257   8.871  24.922  1.00  0.00     0.250 C 
HETATM   29  O3  UNL     1       8.337   9.952  24.270  1.00  0.00    -0.271 OA
HETATM   30  N4  UNL     1       9.409   8.437  25.616  1.00  0.00    -0.344 N 
HETATM   31  C16 UNL     1      10.678   9.117  25.662  1.00  0.00     0.132 C 
HETATM   32  C19 UNL     1       9.504   7.221  26.397  1.00  0.00     0.204 C 
HETATM   33  C17 UNL     1      11.640   7.921  25.687  1.00  0.00     0.100 C 
HETATM   34  C18 UNL     1      10.964   7.075  26.769  1.00  0.00     0.261 C 
HETATM   35  F1  UNL     1      11.399   5.782  26.763  1.00  0.00    -0.204 F 
HETATM   36  F2  UNL     1      11.257   7.663  27.977  1.00  0.00    -0.204 F 
ENDBRANCH  20  28
ENDBRANCH   1  20
TORSDOF 7
ENDMDL
MODEL 2
REMARK VINA RESULT: -9.275273094      1.861      2.595
REMARK  7 active torsions:
REMARK  status: ('A' for Active; 'I' for Inactive)
REMARK       I    between atoms: C2_2  and  N1_4 
REMARK    1  A    between atoms: C4_6  and  N2_7 
REMARK       I    between atoms: N2_7  and  C5_9 
REMARK    2  A    between atoms: C5_9  and  C6_11 
REMARK    3  A    between atoms: C6_11  and  N3_12 
REMARK    4  A    between atoms: N3_12  and  C7_15 
REMARK    5  A    between atoms: C7_15  and  C8_16 
REMARK    6  A    between atoms: C7_15  and  C15_23 
REMARK    7  A    between atoms: C8_16  and  C9_17 
REMARK       I    between atoms: C15_23  and  N4_25 
ROOT
HETATM    1  N3  UNL     1       7.907   7.514  20.613  1.00  0.00    -0.054 N 
ATOM      2  H31 UNL     1       8.356   8.336  20.210  1.00  0.00     0.278 HD
ATOM      3  H32 UNL     1       8.634   6.821  20.441  1.00  0.00     0.278 HD
ENDROOT
BRANCH   1   4
HETATM    4  C6  UNL     1       6.722   7.187  19.895  1.00  0.00     0.335 C 
BRANCH   4   5
HETATM    5  C5  UNL     1       6.735   5.702  19.629  1.00  0.00     0.243 C 
HETATM    6  N2  UNL     1       7.387   5.207  18.484  1.00  0.00    -0.353 N 
ATOM      7  H2  UNL     1       7.841   5.862  17.847  1.00  0.00     0.163 HD
HETATM    8  O2  UNL     1       6.147   4.981  20.473  1.00  0.00    -0.272 OA
BRANCH   6   9
HETATM    9  C4  UNL     1       7.426   3.803  18.194  1.00  0.00     0.103 C 
HETATM   10  C3  UNL     1       6.949   3.572  16.776  1.00  0.00     0.150 C 
HETATM   11  N1  UNL     1       7.154   2.202  16.360  1.00  0.00    -0.350 N 
HETATM   12  C2  UNL     1       6.036   1.474  15.886  1.00  0.00     0.215 C 
HETATM   13  C24 UNL     1       8.486   1.678  16.458  1.00  0.00     0.134 C 
HETATM   14  C1  UNL     1       6.280   0.052  15.458  1.00  0.00     0.117 C 
HETATM   15  O1  UNL     1       4.887   1.979  15.819  1.00  0.00    -0.274 OA
HETATM   16  C21 UNL     1       8.993   1.849  17.847  1.00  0.00    -0.029 C 
HETATM   17  C20 UNL     1       8.739   3.168  18.481  1.00  0.00     0.037 C 
HETATM   18  C22 UNL     1       8.322   0.786  18.726  1.00  0.00     0.016 C 
HETATM   19  C23 UNL     1      10.489   1.530  17.843  1.00  0.00     0.016 C 
ENDBRANCH   6   9
ENDBRANCH   4   5
ENDBRANCH   1   4
BRANCH   1  20
HETATM   20  C7  UNL     1       7.693   7.697  22.073  1.00  0.00     0.278 C 
BRANCH  20  21
HETATM   21  C8  UNL     1       6.299   8.114  22.239  1.00  0.00     0.047 C 
BRANCH  21  22
HETATM   22  C9  UNL     1       5.940   9.439  22.786  1.00  0.00    -0.012 C 
HETATM   23  C10 UNL     1       5.715   9.230  24.310  1.00  0.00     0.005 C 
HETATM   24  C11 UNL     1       4.548   8.364  24.606  1.00  0.00     0.000 C 
HETATM   25  C12 UNL     1       3.261   8.774  23.961  1.00  0.00     0.000 C 
HETATM   26  C13 UNL     1       3.453   9.157  22.508  1.00  0.00     0.000 C 
HETATM   27  C14 UNL     1       4.649  10.053  22.336  1.00  0.00     0.005 C 
ENDBRANCH  21  22
ENDBRANCH  20  21
BRANCH  20  28
HETATM   28  C15 UNL     1       8.789   8.534  22.544  1.00  0.00     0.250 C 
HETATM   29  O3  UNL     1       9.265   9.383  21.736  1.00  0.00    -0.271 OA
HETATM   30  N4  UNL     1       9.365   8.464  23.833  1.00  0.00    -0.344 N 
HETATM   31  C16 UNL     1      10.447   9.277  24.325  1.00  0.00     0.132 C 
HETATM   32  C19 UNL     1       8.961   7.546  24.878  1.00  0.00     0.204 C 
HETATM   33  C17 UNL     1      11.180   8.266  25.217  1.00  0.00     0.100 C 
HETATM   34  C18 UNL     1       9.985   7.692  25.983  1.00  0.00     0.261 C 
HETATM   35  F1  UNL     1      10.285   6.515  26.605  1.00  0.00    -0.204 F 
HETATM   36  F2  UNL     1       9.618   8.634  26.915  1.00  0.00    -0.204 F 
ENDBRANCH  20  28
ENDBRANCH   1  20
TORSDOF 7
ENDMDL
MODEL 3
REMARK VINA RESULT: -9.219867158      1.485      2.011
REMARK  7 active torsions:
REMARK  status: ('A' for Active; 'I' for Inactive)
REMARK       I    between atoms: C2_2  and  N1_4 
REMARK    1  A    between atoms: C4_6  and  N2_7 
REMARK       I    between atoms: N2_7  and  C5_9 
REMARK    2  A    between atoms: C5_9  and  C6_11 
REMARK    3  A    between atoms: C6_11  and  N3_12 
REMARK    4  A    between atoms: N3_12  and  C7_15 
REMARK    5  A    between atoms: C7_15  and  C8_16 
REMARK    6  A    between atoms: C7_15  and  C15_23 
REMARK    7  A    between atoms: C8_16  and  C9_17 
REMARK       I    between atoms: C15_23  and  N4_25 
ROOT
HETATM    1  N3  UNL     1       8.149   7.501  21.950  1.00  0.00    -0.054 N 
ATOM      2  H31 UNL     1       9.017   7.904  21.597  1.00  0.00     0.278 HD
ATOM      3  H32 UNL     1       8.465   6.549  22.134  1.00  0.00     0.278 HD
ENDROOT
BRANCH   1   4
HETATM    4  C6  UNL     1       7.146   7.509  20.940  1.00  0.00     0.335 C 
BRANCH   4   5
HETATM    5  C5  UNL     1       6.957   6.092  20.460  1.00  0.00     0.243 C 
HETATM    6  N2  UNL     1       7.618   5.660  19.296  1.00  0.00    -0.353 N 
ATOM      7  H2  UNL     1       8.216   6.313  18.789  1.00  0.00     0.163 HD
HETATM    8  O2  UNL     1       6.201   5.367  21.153  1.00  0.00    -0.272 OA
BRANCH   6   9
HETATM    9  C4  UNL     1       7.470   4.319  18.805  1.00  0.00     0.103 C 
HETATM   10  C3  UNL     1       6.823   4.357  17.437  1.00  0.00     0.150 C 
HETATM   11  N1  UNL     1       6.829   3.055  16.808  1.00  0.00    -0.350 N 
HETATM   12  C2  UNL     1       5.593   2.517  16.373  1.00  0.00     0.215 C 
HETATM   13  C24 UNL     1       8.097   2.398  16.668  1.00  0.00     0.134 C 
HETATM   14  C1  UNL     1       5.630   1.163  15.720  1.00  0.00     0.117 C 
HETATM   15  O1  UNL     1       4.507   3.133  16.519  1.00  0.00    -0.274 OA
HETATM   16  C21 UNL     1       8.764   2.303  17.995  1.00  0.00    -0.029 C 
HETATM   17  C20 UNL     1       8.727   3.527  18.837  1.00  0.00     0.037 C 
HETATM   18  C22 UNL     1       8.076   1.185  18.788  1.00  0.00     0.016 C 
HETATM   19  C23 UNL     1      10.206   1.849  17.764  1.00  0.00     0.016 C 
ENDBRANCH   6   9
ENDBRANCH   4   5
ENDBRANCH   1   4
BRANCH   1  20
HETATM   20  C7  UNL     1       7.736   8.169  23.212  1.00  0.00     0.278 C 
BRANCH  20  21
HETATM   21  C8  UNL     1       6.485   8.872  22.920  1.00  0.00     0.047 C 
BRANCH  21  22
HETATM   22  C9  UNL     1       5.508   9.198  23.979  1.00  0.00    -0.012 C 
HETATM   23  C10 UNL     1       5.180   7.855  24.691  1.00  0.00     0.005 C 
HETATM   24  C11 UNL     1       4.482   6.890  23.807  1.00  0.00     0.000 C 
HETATM   25  C12 UNL     1       3.253   7.410  23.130  1.00  0.00     0.000 C 
HETATM   26  C13 UNL     1       3.465   8.799  22.562  1.00  0.00     0.000 C 
HETATM   27  C14 UNL     1       4.157   9.692  23.555  1.00  0.00     0.005 C 
ENDBRANCH  21  22
ENDBRANCH  20  21
BRANCH  20  28
HETATM   28  C15 UNL     1       8.908   8.888  23.696  1.00  0.00     0.250 C 
HETATM   29  O3  UNL     1       9.260   9.924  23.061  1.00  0.00    -0.271 OA
HETATM   30  N4  UNL     1       9.684   8.510  24.815  1.00  0.00    -0.344 N 
HETATM   31  C16 UNL     1      10.846   9.201  25.315  1.00  0.00     0.132 C 
HETATM   32  C19 UNL     1       9.440   7.350  25.646  1.00  0.00     0.204 C 
HETATM   33  C17 UNL     1      11.696   8.017  25.794  1.00  0.00     0.100 C 
HETATM   34  C18 UNL     1      10.632   7.240  26.573  1.00  0.00     0.261 C 
HETATM   35  F1  UNL     1      11.009   5.952  26.822  1.00  0.00    -0.204 F 
HETATM   36  F2  UNL     1      10.436   7.908  27.758  1.00  0.00    -0.204 F 
ENDBRANCH  20  28
ENDBRANCH   1  20
TORSDOF 7
ENDMDL
MODEL 4
REMARK VINA RESULT: -9.090455481      2.094      2.824
REMARK  7 active torsions:
REMARK  status: ('A' for Active; 'I' for Inactive)
REMARK       I    between atoms: C2_2  and  N1_4 
REMARK    1  A    between atoms: C4_6  and  N2_7 
REMARK       I    between atoms: N2_7  and  C5_9 
REMARK    2  A    between atoms: C5_9  and  C6_11 
REMARK    3  A    between atoms: C6_11  and  N3_12 
REMARK    4  A    between atoms: N3_12  and  C7_15 
REMARK    5  A    between atoms: C7_15  and  C8_16 
REMARK    6  A    between atoms: C7_15  and  C15_23 
REMARK    7  A    between atoms: C8_16  and  C9_17 
REMARK       I    between atoms: C15_23  and  N4_25 
ROOT
HETATM    1  N3  UNL     1       8.057   7.424  20.710  1.00  0.00    -0.054 N 
ATOM      2  H31 UNL     1       8.525   8.235  20.305  1.00  0.00     0.278 HD
ATOM      3  H32 UNL     1       8.782   6.721  20.571  1.00  0.00     0.278 HD
ENDROOT
BRANCH   1   4
HETATM    4  C6  UNL     1       6.889   7.095  19.965  1.00  0.00     0.335 C 
BRANCH   4   5
HETATM    5  C5  UNL     1       6.906   5.609  19.707  1.00  0.00     0.243 C 
HETATM    6  N2  UNL     1       7.424   5.121  18.493  1.00  0.00    -0.353 N 
ATOM      7  H2  UNL     1       7.780   5.781  17.801  1.00  0.00     0.163 HD
HETATM    8  O2  UNL     1       6.445   4.881  20.621  1.00  0.00    -0.272 OA
BRANCH   6   9
HETATM    9  C4  UNL     1       7.463   3.716  18.207  1.00  0.00     0.103 C 
HETATM   10  C3  UNL     1       6.982   3.481  16.791  1.00  0.00     0.150 C 
HETATM   11  N1  UNL     1       7.186   2.110  16.379  1.00  0.00    -0.350 N 
HETATM   12  C2  UNL     1       6.066   1.380  15.909  1.00  0.00     0.215 C 
HETATM   13  C24 UNL     1       8.518   1.586  16.475  1.00  0.00     0.134 C 
HETATM   14  C1  UNL     1       6.309  -0.042  15.485  1.00  0.00     0.117 C 
HETATM   15  O1  UNL     1       4.917   1.885  15.844  1.00  0.00    -0.274 OA
HETATM   16  C21 UNL     1       9.028   1.760  17.863  1.00  0.00    -0.029 C 
HETATM   17  C20 UNL     1       8.776   3.082  18.493  1.00  0.00     0.037 C 
HETATM   18  C22 UNL     1       8.359   0.700  18.746  1.00  0.00     0.016 C 
HETATM   19  C23 UNL     1      10.524   1.441  17.855  1.00  0.00     0.016 C 
ENDBRANCH   6   9
ENDBRANCH   4   5
ENDBRANCH   1   4
BRANCH   1  20
HETATM   20  C7  UNL     1       7.805   7.636  22.160  1.00  0.00     0.278 C 
BRANCH  20  21
HETATM   21  C8  UNL     1       6.450   8.181  22.271  1.00  0.00     0.047 C 
BRANCH  21  22
HETATM   22  C9  UNL     1       6.199   9.556  22.750  1.00  0.00    -0.012 C 
HETATM   23  C10 UNL     1       4.708   9.593  23.191  1.00  0.00     0.005 C 
HETATM   24  C11 UNL     1       3.768   9.402  22.059  1.00  0.00     0.000 C 
HETATM   25  C12 UNL     1       3.969  10.320  20.894  1.00  0.00     0.000 C 
HETATM   26  C13 UNL     1       5.432  10.456  20.527  1.00  0.00     0.000 C 
HETATM   27  C14 UNL     1       6.282  10.670  21.750  1.00  0.00     0.005 C 
ENDBRANCH  21  22
ENDBRANCH  20  21
BRANCH  20  28
HETATM   28  C15 UNL     1       8.955   8.371  22.672  1.00  0.00     0.250 C 
HETATM   29  O3  UNL     1       9.571   9.126  21.865  1.00  0.00    -0.271 OA
HETATM   30  N4  UNL     1       9.437   8.297  23.998  1.00  0.00    -0.344 N 
HETATM   31  C16 UNL     1      10.571   9.011  24.530  1.00  0.00     0.132 C 
HETATM   32  C19 UNL     1       8.871   7.476  25.047  1.00  0.00     0.204 C 
HETATM   33  C17 UNL     1      11.130   7.969  25.507  1.00  0.00     0.100 C 
HETATM   34  C18 UNL     1       9.834   7.562  26.213  1.00  0.00     0.261 C 
HETATM   35  F1  UNL     1       9.962   6.389  26.898  1.00  0.00    -0.204 F 
HETATM   36  F2  UNL     1       9.515   8.580  27.081  1.00  0.00    -0.204 F 
ENDBRANCH  20  28
ENDBRANCH   1  20
TORSDOF 7
ENDMDL
MODEL 5
REMARK VINA RESULT: -9.044162605      2.642      4.867
REMARK  7 active torsions:
REMARK  status: ('A' for Active; 'I' for Inactive)
REMARK       I    between atoms: C2_2  and  N1_4 
REMARK    1  A    between atoms: C4_6  and  N2_7 
REMARK       I    between atoms: N2_7  and  C5_9 
REMARK    2  A    between atoms: C5_9  and  C6_11 
REMARK    3  A    between atoms: C6_11  and  N3_12 
REMARK    4  A    between atoms: N3_12  and  C7_15 
REMARK    5  A    between atoms: C7_15  and  C8_16 
REMARK    6  A    between atoms: C7_15  and  C15_23 
REMARK    7  A    between atoms: C8_16  and  C9_17 
REMARK       I    between atoms: C15_23  and  N4_25 
ROOT
HETATM    1  N3  UNL     1       7.427   6.744  22.295  1.00  0.00    -0.054 N 
ATOM      2  H31 UNL     1       8.068   5.980  22.509  1.00  0.00     0.278 HD
ATOM      3  H32 UNL     1       6.581   6.386  22.738  1.00  0.00     0.278 HD
ENDROOT
BRANCH   1   4
HETATM    4  C6  UNL     1       7.244   6.866  20.889  1.00  0.00     0.335 C 
BRANCH   4   5
HETATM    5  C5  UNL     1       7.069   5.480  20.322  1.00  0.00     0.243 C 
HETATM    6  N2  UNL     1       7.742   5.124  19.138  1.00  0.00    -0.353 N 
ATOM      7  H2  UNL     1       8.339   5.812  18.677  1.00  0.00     0.163 HD
HETATM    8  O2  UNL     1       6.313   4.708  20.962  1.00  0.00    -0.272 OA
BRANCH   6   9
HETATM    9  C4  UNL     1       7.607   3.816  18.564  1.00  0.00     0.103 C 
HETATM   10  C3  UNL     1       7.169   3.946  17.121  1.00  0.00     0.150 C 
HETATM   11  N1  UNL     1       7.208   2.674  16.435  1.00  0.00    -0.350 N 
HETATM   12  C2  UNL     1       6.026   2.220  15.801  1.00  0.00     0.215 C 
HETATM   13  C24 UNL     1       8.453   1.960  16.445  1.00  0.00     0.134 C 
HETATM   14  C1  UNL     1       6.097   0.895  15.092  1.00  0.00     0.117 C 
HETATM   15  O1  UNL     1       4.959   2.883  15.820  1.00  0.00    -0.274 OA
HETATM   16  C21 UNL     1       8.914   1.773  17.848  1.00  0.00    -0.029 C 
HETATM   17  C20 UNL     1       8.809   2.959  18.737  1.00  0.00     0.037 C 
HETATM   18  C22 UNL     1       8.068   0.659  18.476  1.00  0.00     0.016 C 
HETATM   19  C23 UNL     1      10.353   1.256  17.804  1.00  0.00     0.016 C 
ENDBRANCH   6   9
ENDBRANCH   4   5
ENDBRANCH   1   4
BRANCH   1  20
HETATM   20  C7  UNL     1       7.871   8.001  22.955  1.00  0.00     0.278 C 
BRANCH  20  21
HETATM   21  C8  UNL     1       8.398   7.618  24.266  1.00  0.00     0.047 C 
BRANCH  21  22
HETATM   22  C9  UNL     1       8.739   8.624  25.293  1.00  0.00    -0.012 C 
HETATM   23  C10 UNL     1       9.914   9.457  24.706  1.00  0.00     0.005 C 
HETATM   24  C11 UNL     1      11.151   8.658  24.523  1.00  0.00     0.000 C 
HETATM   25  C12 UNL     1      11.621   7.913  25.733  1.00  0.00     0.000 C 
HETATM   26  C13 UNL     1      10.480   7.217  26.448  1.00  0.00     0.000 C 
HETATM   27  C14 UNL     1       9.294   8.131  26.596  1.00  0.00     0.005 C 
ENDBRANCH  21  22
ENDBRANCH  20  21
BRANCH  20  28
HETATM   28  C15 UNL     1       6.763   8.939  22.833  1.00  0.00     0.250 C 
HETATM   29  O3  UNL     1       6.935   9.954  22.097  1.00  0.00    -0.271 OA
HETATM   30  N4  UNL     1       5.515   8.805  23.482  1.00  0.00    -0.344 N 
HETATM   31  C16 UNL     1       4.403   9.716  23.380  1.00  0.00     0.132 C 
HETATM   32  C19 UNL     1       5.148   7.723  24.371  1.00  0.00     0.204 C 
HETATM   33  C17 UNL     1       3.835   9.632  24.803  1.00  0.00     0.100 C 
HETATM   34  C18 UNL     1       3.817   8.111  24.979  1.00  0.00     0.261 C 
HETATM   35  F1  UNL     1       3.690   7.742  26.286  1.00  0.00    -0.204 F 
HETATM   36  F2  UNL     1       2.752   7.637  24.251  1.00  0.00    -0.204 F 
ENDBRANCH  20  28
ENDBRANCH   1  20
TORSDOF 7
ENDMDL
