MODEL 1
REMARK VINA RESULT: -9.188920758      0.000      0.000
REMARK  7 active torsions:
REMARK  status: ('A' for Active; 'I' for Inactive)
REMARK    1  A    between atoms: C1_2  and  C2_3 
REMARK       I    between atoms: C1_2  and  N3_21 
REMARK    2  A    between atoms: C2_3  and  N1_4 
REMARK       I    between atoms: N1_4  and  C3_6 
REMARK    3  A    between atoms: C3_6  and  C4_8 
REMARK       I    between atoms: N2_12  and  C8_13 
REMARK    4  A    between atoms: C8_13  and  C9_15 
REMARK    5  A    between atoms: N3_21  and  C15_23 
REMARK    6  A    between atoms: N4_27  and  C19_28 
REMARK    7  A    between atoms: C19_28  and  C20_29 
ROOT
HETATM    1  C2  UNL     1       5.675   8.164  18.584  1.00  0.00     0.225 C 
ENDROOT
BRANCH   1   2
HETATM    2  C1  UNL     1       5.437   7.793  19.997  1.00  0.00     0.235 C 
HETATM    3  O1  UNL     1       5.214   6.612  20.330  1.00  0.00    -0.272 OA
HETATM    4  N3  UNL     1       5.459   8.781  20.994  1.00  0.00    -0.353 N 
ATOM      5  H3  UNL     1       5.644   9.744  20.716  1.00  0.00     0.163 HD
BRANCH   4   6
HETATM    6  C15 UNL     1       5.232   8.502  22.400  1.00  0.00     0.113 C 
HETATM    7  C16 UNL     1       4.674   9.673  23.147  1.00  0.00     0.029 C 
HETATM    8  C17 UNL     1       4.575   9.257  24.601  1.00  0.00     0.032 C 
HETATM    9  C18 UNL     1       5.119   7.866  24.838  1.00  0.00     0.272 C 
HETATM   10  N4  UNL     1       6.481   7.722  24.382  1.00  0.00     0.090 N 
HETATM   11  C24 UNL     1       6.565   8.153  23.020  1.00  0.00     0.297 C 
BRANCH  10  12
HETATM   12  C19 UNL     1       7.356   8.478  25.259  1.00  0.00     0.277 C 
BRANCH  12  13
HETATM   13  C20 UNL     1       8.777   8.229  24.858  1.00  0.00     0.025 C 
HETATM   14  C21 UNL     1       9.526   9.485  24.407  1.00  0.00     0.085 C 
HETATM   15  C22 UNL     1      10.694   9.016  25.247  1.00  0.00     0.244 C 
HETATM   16  F1  UNL     1      11.282  10.039  26.004  1.00  0.00    -0.206 F 
HETATM   17  F2  UNL     1      11.615   8.246  24.551  1.00  0.00    -0.206 F 
HETATM   18  C23 UNL     1       9.730   8.187  26.060  1.00  0.00     0.085 C 
ENDBRANCH  12  13
ENDBRANCH  10  12
ENDBRANCH   4   6
ENDBRANCH   1   2
BRANCH   1  19
HETATM   19  N1  UNL     1       5.958   7.075  17.712  1.00  0.00    -0.351 N 
HETATM   20  C3  UNL     1       4.958   6.306  17.024  1.00  0.00     0.241 C 
HETATM   21  O2  UNL     1       3.784   6.663  17.254  1.00  0.00    -0.271 OA
ATOM     22  H1  UNL     1       6.935   6.823  17.566  1.00  0.00     0.163 HD
BRANCH  20  23
HETATM   23  C4  UNL     1       5.288   5.216  16.143  1.00  0.00     0.179 C 
HETATM   24  C5  UNL     1       5.863   5.672  14.779  1.00  0.00     0.037 C 
HETATM   25  C6  UNL     1       6.302   4.320  14.190  1.00  0.00     0.022 C 
HETATM   26  C7  UNL     1       6.031   3.286  15.281  1.00  0.00     0.127 C 
HETATM   27  N2  UNL     1       6.193   4.203  16.459  1.00  0.00    -0.338 N 
HETATM   28  C8  UNL     1       7.088   3.908  17.470  1.00  0.00     0.224 C 
HETATM   29  O3  UNL     1       7.256   4.643  18.472  1.00  0.00    -0.273 OA
BRANCH  28  30
HETATM   30  C9  UNL     1       7.950   2.672  17.459  1.00  0.00     0.078 C 
HETATM   31  C10 UNL     1       7.269   1.643  18.344  1.00  0.00     0.014 C 
HETATM   32  C11 UNL     1       8.288   0.746  19.018  1.00  0.00     0.001 C 
HETATM   33  C12 UNL     1       9.482   0.462  18.128  1.00  0.00     0.000 C 
HETATM   34  C13 UNL     1      10.186   1.784  17.880  1.00  0.00     0.001 C 
HETATM   35  C14 UNL     1       9.289   2.955  18.145  1.00  0.00     0.014 C 
ENDBRANCH  28  30
ENDBRANCH  20  23
ENDBRANCH   1  19
TORSDOF 7
ENDMDL
MODEL 2
REMARK VINA RESULT: -8.997927497      2.565      3.431
REMARK  7 active torsions:
REMARK  status: ('A' for Active; 'I' for Inactive)
REMARK    1  A    between atoms: C1_2  and  C2_3 
REMARK       I    between atoms: C1_2  and  N3_21 
REMARK    2  A    between atoms: C2_3  and  N1_4 
REMARK       I    between atoms: N1_4  and  C3_6 
REMARK    3  A    between atoms: C3_6  and  C4_8 
REMARK       I    between atoms: N2_12  and  C8_13 
REMARK    4  A    between atoms: C8_13  and  C9_15 
REMARK    5  A    between atoms: N3_21  and  C15_23 
REMARK    6  A    between atoms: N4_27  and  C19_28 
REMARK    7  A    between atoms: C19_28  and  C20_29 
ROOT
HETATM    1  C2  UNL     1       5.482   9.018  17.345  1.00  0.00     0.225 C 
ENDROOT
BRANCH   1   2
HETATM    2  C1  UNL     1       6.456   9.197  18.445  1.00  0.00     0.235 C 
HETATM    3  O1  UNL     1       7.560   9.743  18.254  1.00  0.00    -0.272 OA
HETATM    4  N3  UNL     1       6.144   8.745  19.737  1.00  0.00    -0.353 N 
ATOM      5  H3  UNL     1       5.238   8.300  19.887  1.00  0.00     0.163 HD
BRANCH   4   6
HETATM    6  C15 UNL     1       7.042   8.877  20.868  1.00  0.00     0.113 C 
HETATM    7  C16 UNL     1       7.533   7.560  21.385  1.00  0.00     0.029 C 
HETATM    8  C17 UNL     1       8.381   7.858  22.605  1.00  0.00     0.032 C 
HETATM    9  C18 UNL     1       8.402   9.332  22.943  1.00  0.00     0.272 C 
HETATM   10  N4  UNL     1       7.078   9.874  23.127  1.00  0.00     0.090 N 
HETATM   11  C24 UNL     1       6.280   9.553  21.984  1.00  0.00     0.297 C 
BRANCH  10  12
HETATM   12  C19 UNL     1       6.519   9.350  24.360  1.00  0.00     0.277 C 
BRANCH  12  13
HETATM   13  C20 UNL     1       5.103   8.932  24.110  1.00  0.00     0.025 C 
HETATM   14  C21 UNL     1       4.751   7.556  24.682  1.00  0.00     0.085 C 
HETATM   15  C22 UNL     1       3.463   8.166  25.193  1.00  0.00     0.244 C 
HETATM   16  F1  UNL     1       3.149   7.786  26.505  1.00  0.00    -0.206 F 
HETATM   17  F2  UNL     1       2.396   8.048  24.314  1.00  0.00    -0.206 F 
HETATM   18  C23 UNL     1       4.125   9.522  25.135  1.00  0.00     0.085 C 
ENDBRANCH  12  13
ENDBRANCH  10  12
ENDBRANCH   4   6
ENDBRANCH   1   2
BRANCH   1  19
HETATM   19  N1  UNL     1       5.632   7.818  16.594  1.00  0.00    -0.351 N 
HETATM   20  C3  UNL     1       5.147   6.532  17.014  1.00  0.00     0.241 C 
HETATM   21  O2  UNL     1       4.573   6.535  18.122  1.00  0.00    -0.271 OA
ATOM     22  H1  UNL     1       6.115   7.874  15.697  1.00  0.00     0.163 HD
BRANCH  20  23
HETATM   23  C4  UNL     1       5.312   5.343  16.218  1.00  0.00     0.179 C 
HETATM   24  C5  UNL     1       5.795   5.624  14.774  1.00  0.00     0.037 C 
HETATM   25  C6  UNL     1       6.075   4.192  14.285  1.00  0.00     0.022 C 
HETATM   26  C7  UNL     1       5.825   3.288  15.490  1.00  0.00     0.127 C 
HETATM   27  N2  UNL     1       6.162   4.290  16.556  1.00  0.00    -0.338 N 
HETATM   28  C8  UNL     1       7.119   4.012  17.513  1.00  0.00     0.224 C 
HETATM   29  O3  UNL     1       7.432   4.817  18.421  1.00  0.00    -0.273 OA
BRANCH  28  30
HETATM   30  C9  UNL     1       7.879   2.712  17.550  1.00  0.00     0.078 C 
HETATM   31  C10 UNL     1       7.152   1.795  18.519  1.00  0.00     0.014 C 
HETATM   32  C11 UNL     1       8.121   0.861  19.214  1.00  0.00     0.001 C 
HETATM   33  C12 UNL     1       9.255   0.428  18.305  1.00  0.00     0.000 C 
HETATM   34  C13 UNL     1      10.052   1.671  17.953  1.00  0.00     0.001 C 
HETATM   35  C14 UNL     1       9.261   2.924  18.175  1.00  0.00     0.014 C 
ENDBRANCH  28  30
ENDBRANCH  20  23
ENDBRANCH   1  19
TORSDOF 7
ENDMDL
MODEL 3
REMARK VINA RESULT: -8.816543481      1.497      2.108
REMARK  7 active torsions:
REMARK  status: ('A' for Active; 'I' for Inactive)
REMARK    1  A    between atoms: C1_2  and  C2_3 
REMARK       I    between atoms: C1_2  and  N3_21 
REMARK    2  A    between atoms: C2_3  and  N1_4 
REMARK       I    between atoms: N1_4  and  C3_6 
REMARK    3  A    between atoms: C3_6  and  C4_8 
REMARK       I    between atoms: N2_12  and  C8_13 
REMARK    4  A    between atoms: C8_13  and  C9_15 
REMARK    5  A    between atoms: N3_21  and  C15_23 
REMARK    6  A    between atoms: N4_27  and  C19_28 
REMARK    7  A    between atoms: C19_28  and  C20_29 
ROOT
HETATM    1  C2  UNL     1       3.218   6.584  19.224  1.00  0.00     0.225 C 
ENDROOT
BRANCH   1   2
HETATM    2  C1  UNL     1       4.195   7.519  19.827  1.00  0.00     0.235 C 
HETATM    3  O1  UNL     1       3.845   8.633  20.263  1.00  0.00    -0.272 OA
HETATM    4  N3  UNL     1       5.548   7.157  19.916  1.00  0.00    -0.353 N 
ATOM      5  H3  UNL     1       5.828   6.243  19.559  1.00  0.00     0.163 HD
BRANCH   4   6
HETATM    6  C15 UNL     1       6.569   8.015  20.488  1.00  0.00     0.113 C 
HETATM    7  C16 UNL     1       7.933   7.755  19.930  1.00  0.00     0.029 C 
HETATM    8  C17 UNL     1       8.892   8.658  20.680  1.00  0.00     0.032 C 
HETATM    9  C18 UNL     1       8.200   9.454  21.764  1.00  0.00     0.272 C 
HETATM   10  N4  UNL     1       7.492   8.613  22.698  1.00  0.00     0.090 N 
HETATM   11  C24 UNL     1       6.619   7.741  21.973  1.00  0.00     0.297 C 
BRANCH  10  12
HETATM   12  C19 UNL     1       8.455   7.888  23.506  1.00  0.00     0.277 C 
BRANCH  12  13
HETATM   13  C20 UNL     1       9.244   8.870  24.317  1.00  0.00     0.025 C 
HETATM   14  C21 UNL     1       9.424   8.464  25.782  1.00  0.00     0.085 C 
HETATM   15  C22 UNL     1      10.876   8.872  25.653  1.00  0.00     0.244 C 
HETATM   16  F1  UNL     1      11.765   7.959  26.235  1.00  0.00    -0.206 F 
HETATM   17  F2  UNL     1      11.125  10.190  26.011  1.00  0.00    -0.206 F 
HETATM   18  C23 UNL     1      10.759   8.682  24.160  1.00  0.00     0.085 C 
ENDBRANCH  12  13
ENDBRANCH  10  12
ENDBRANCH   4   6
ENDBRANCH   1   2
BRANCH   1  19
HETATM   19  N1  UNL     1       3.762   5.666  18.282  1.00  0.00    -0.351 N 
HETATM   20  C3  UNL     1       4.367   6.045  17.036  1.00  0.00     0.241 C 
HETATM   21  O2  UNL     1       4.380   7.275  16.822  1.00  0.00    -0.271 OA
ATOM     22  H1  UNL     1       3.719   4.672  18.507  1.00  0.00     0.163 HD
BRANCH  20  23
HETATM   23  C4  UNL     1       4.914   5.083  16.114  1.00  0.00     0.179 C 
HETATM   24  C5  UNL     1       5.569   5.721  14.865  1.00  0.00     0.037 C 
HETATM   25  C6  UNL     1       6.224   4.484  14.225  1.00  0.00     0.022 C 
HETATM   26  C7  UNL     1       5.964   3.331  15.193  1.00  0.00     0.127 C 
HETATM   27  N2  UNL     1       5.894   4.149  16.451  1.00  0.00    -0.338 N 
HETATM   28  C8  UNL     1       6.707   3.861  17.530  1.00  0.00     0.224 C 
HETATM   29  O3  UNL     1       6.682   4.515  18.600  1.00  0.00    -0.273 OA
BRANCH  28  30
HETATM   30  C9  UNL     1       7.704   2.732  17.519  1.00  0.00     0.078 C 
HETATM   31  C10 UNL     1       7.131   1.619  18.379  1.00  0.00     0.014 C 
HETATM   32  C11 UNL     1       8.234   0.835  19.061  1.00  0.00     0.001 C 
HETATM   33  C12 UNL     1       9.468   0.702  18.189  1.00  0.00     0.000 C 
HETATM   34  C13 UNL     1      10.020   2.099  17.971  1.00  0.00     0.001 C 
HETATM   35  C14 UNL     1       8.991   3.156  18.235  1.00  0.00     0.014 C 
ENDBRANCH  28  30
ENDBRANCH  20  23
ENDBRANCH   1  19
TORSDOF 7
ENDMDL
MODEL 4
REMARK VINA RESULT: -8.778974522      2.900      4.279
REMARK  7 active torsions:
REMARK  status: ('A' for Active; 'I' for Inactive)
REMARK    1  A    between atoms: C1_2  and  C2_3 
REMARK       I    between atoms: C1_2  and  N3_21 
REMARK    2  A    between atoms: C2_3  and  N1_4 
REMARK       I    between atoms: N1_4  and  C3_6 
REMARK    3  A    between atoms: C3_6  and  C4_8 
REMARK       I    between atoms: N2_12  and  C8_13 
REMARK    4  A    between atoms: C8_13  and  C9_15 
REMARK    5  A    between atoms: N3_21  and  C15_23 
REMARK    6  A    between atoms: N4_27  and  C19_28 
REMARK    7  A    between atoms: C19_28  and  C20_29 
ROOT
HETATM    1  C2  UNL     1       2.744   6.581  21.589  1.00  0.00     0.225 C 
ENDROOT
BRANCH   1   2
HETATM    2  C1  UNL     1       3.821   7.583  21.431  1.00  0.00     0.235 C 
HETATM    3  O1  UNL     1       3.646   8.779  21.734  1.00  0.00    -0.272 OA
HETATM    4  N3  UNL     1       5.073   7.192  20.929  1.00  0.00    -0.353 N 
ATOM      5  H3  UNL     1       5.211   6.211  20.684  1.00  0.00     0.163 HD
BRANCH   4   6
HETATM    6  C15 UNL     1       6.180   8.110  20.739  1.00  0.00     0.113 C 
HETATM    7  C16 UNL     1       7.114   7.685  19.650  1.00  0.00     0.029 C 
HETATM    8  C17 UNL     1       8.251   8.688  19.633  1.00  0.00     0.032 C 
HETATM    9  C18 UNL     1       8.120   9.721  20.730  1.00  0.00     0.272 C 
HETATM   10  N4  UNL     1       8.017   9.124  22.040  1.00  0.00     0.090 N 
HETATM   11  C24 UNL     1       6.966   8.154  22.029  1.00  0.00     0.297 C 
BRANCH  10  12
HETATM   12  C19 UNL     1       9.301   8.549  22.399  1.00  0.00     0.277 C 
BRANCH  12  13
HETATM   13  C20 UNL     1       9.711   9.078  23.739  1.00  0.00     0.025 C 
HETATM   14  C21 UNL     1       9.439   8.115  24.897  1.00  0.00     0.085 C 
HETATM   15  C22 UNL     1      10.820   8.449  25.419  1.00  0.00     0.244 C 
HETATM   16  F1  UNL     1      11.540   7.326  25.848  1.00  0.00    -0.206 F 
HETATM   17  F2  UNL     1      10.842   9.499  26.326  1.00  0.00    -0.206 F 
HETATM   18  C23 UNL     1      11.205   8.872  24.022  1.00  0.00     0.085 C 
ENDBRANCH  12  13
ENDBRANCH  10  12
ENDBRANCH   4   6
ENDBRANCH   1   2
BRANCH   1  19
HETATM   19  N1  UNL     1       3.156   5.224  21.463  1.00  0.00    -0.351 N 
HETATM   20  C3  UNL     1       3.638   4.418  22.550  1.00  0.00     0.241 C 
HETATM   21  O2  UNL     1       3.679   5.007  23.650  1.00  0.00    -0.271 OA
ATOM     22  H1  UNL     1       3.106   4.795  20.538  1.00  0.00     0.163 HD
BRANCH  20  23
HETATM   23  C4  UNL     1       4.037   3.045  22.380  1.00  0.00     0.179 C 
HETATM   24  C5  UNL     1       2.954   2.161  21.714  1.00  0.00     0.037 C 
HETATM   25  C6  UNL     1       3.749   0.863  21.483  1.00  0.00     0.022 C 
HETATM   26  C7  UNL     1       5.176   1.167  21.936  1.00  0.00     0.127 C 
HETATM   27  N2  UNL     1       5.157   2.642  21.654  1.00  0.00    -0.338 N 
HETATM   28  C8  UNL     1       6.111   3.219  20.837  1.00  0.00     0.224 C 
HETATM   29  O3  UNL     1       6.135   4.445  20.574  1.00  0.00    -0.273 OA
BRANCH  28  30
HETATM   30  C9  UNL     1       7.210   2.425  20.182  1.00  0.00     0.078 C 
HETATM   31  C10 UNL     1       8.157   3.420  19.533  1.00  0.00     0.014 C 
HETATM   32  C11 UNL     1       8.792   2.835  18.288  1.00  0.00     0.001 C 
HETATM   33  C12 UNL     1       9.065   1.350  18.425  1.00  0.00     0.000 C 
HETATM   34  C13 UNL     1       7.723   0.655  18.577  1.00  0.00     0.001 C 
HETATM   35  C14 UNL     1       6.649   1.603  19.018  1.00  0.00     0.014 C 
ENDBRANCH  28  30
ENDBRANCH  20  23
ENDBRANCH   1  19
TORSDOF 7
ENDMDL
MODEL 5
REMARK VINA RESULT: -8.719662949      3.570      4.875
REMARK  7 active torsions:
REMARK  status: ('A' for Active; 'I' for Inactive)
REMARK    1  A    between atoms: C1_2  and  C2_3 
REMARK       I    between atoms: C1_2  and  N3_21 
REMARK    2  A    between atoms: C2_3  and  N1_4 
REMARK       I    between atoms: N1_4  and  C3_6 
REMARK    3  A    between atoms: C3_6  and  C4_8 
REMARK       I    between atoms: N2_12  and  C8_13 
REMARK    4  A    between atoms: C8_13  and  C9_15 
REMARK    5  A    between atoms: N3_21  and  C15_23 
REMARK    6  A    between atoms: N4_27  and  C19_28 
REMARK    7  A    between atoms: C19_28  and  C20_29 
ROOT
HETATM    1  C2  UNL     1       1.321   5.901  22.961  1.00  0.00     0.225 C 
ENDROOT
BRANCH   1   2
HETATM    2  C1  UNL     1       2.323   6.912  23.364  1.00  0.00     0.235 C 
HETATM    3  O1  UNL     1       2.073   7.762  24.241  1.00  0.00    -0.272 OA
HETATM    4  N3  UNL     1       3.587   6.927  22.754  1.00  0.00    -0.353 N 
ATOM      5  H3  UNL     1       3.787   6.228  22.039  1.00  0.00     0.163 HD
BRANCH   4   6
HETATM    6  C15 UNL     1       4.624   7.886  23.088  1.00  0.00     0.113 C 
HETATM    7  C16 UNL     1       5.463   8.276  21.911  1.00  0.00     0.029 C 
HETATM    8  C17 UNL     1       6.543   9.204  22.432  1.00  0.00     0.032 C 
HETATM    9  C18 UNL     1       6.474   9.377  23.933  1.00  0.00     0.272 C 
HETATM   10  N4  UNL     1       6.533   8.119  24.637  1.00  0.00     0.090 N 
HETATM   11  C24 UNL     1       5.533   7.242  24.109  1.00  0.00     0.297 C 
BRANCH  10  12
HETATM   12  C19 UNL     1       7.872   7.572  24.516  1.00  0.00     0.277 C 
BRANCH  12  13
HETATM   13  C20 UNL     1       8.849   8.554  25.085  1.00  0.00     0.025 C 
HETATM   14  C21 UNL     1       9.760   7.969  26.167  1.00  0.00     0.085 C 
HETATM   15  C22 UNL     1      10.915   8.678  25.493  1.00  0.00     0.244 C 
HETATM   16  F1  UNL     1      12.064   7.884  25.376  1.00  0.00    -0.206 F 
HETATM   17  F2  UNL     1      11.169   9.946  25.998  1.00  0.00    -0.206 F 
HETATM   18  C23 UNL     1      10.107   8.704  24.218  1.00  0.00     0.085 C 
ENDBRANCH  12  13
ENDBRANCH  10  12
ENDBRANCH   4   6
ENDBRANCH   1   2
BRANCH   1  19
HETATM   19  N1  UNL     1       1.849   4.615  22.655  1.00  0.00    -0.351 N 
HETATM   20  C3  UNL     1       2.333   3.682  23.634  1.00  0.00     0.241 C 
HETATM   21  O2  UNL     1       2.264   4.089  24.812  1.00  0.00    -0.271 OA
ATOM     22  H1  UNL     1       1.886   4.337  21.674  1.00  0.00     0.163 HD
BRANCH  20  23
HETATM   23  C4  UNL     1       2.851   2.386  23.281  1.00  0.00     0.179 C 
HETATM   24  C5  UNL     1       1.845   1.506  22.499  1.00  0.00     0.037 C 
HETATM   25  C6  UNL     1       2.752   0.328  22.097  1.00  0.00     0.022 C 
HETATM   26  C7  UNL     1       4.150   0.695  22.591  1.00  0.00     0.127 C 
HETATM   27  N2  UNL     1       3.996   2.187  22.510  1.00  0.00    -0.338 N 
HETATM   28  C8  UNL     1       4.887   2.952  21.781  1.00  0.00     0.224 C 
HETATM   29  O3  UNL     1       4.799   4.200  21.687  1.00  0.00    -0.273 OA
BRANCH  28  30
HETATM   30  C9  UNL     1       6.046   2.356  21.028  1.00  0.00     0.078 C 
HETATM   31  C10 UNL     1       7.032   3.480  20.759  1.00  0.00     0.014 C 
HETATM   32  C11 UNL     1       7.775   3.252  19.458  1.00  0.00     0.001 C 
HETATM   33  C12 UNL     1       8.054   1.783  19.205  1.00  0.00     0.000 C 
HETATM   34  C13 UNL     1       6.713   1.089  19.048  1.00  0.00     0.001 C 
HETATM   35  C14 UNL     1       5.594   1.891  19.641  1.00  0.00     0.014 C 
ENDBRANCH  28  30
ENDBRANCH  20  23
ENDBRANCH   1  19
TORSDOF 7
ENDMDL
