MODEL 1
REMARK VINA RESULT: -7.874820341      0.000      0.000
REMARK  10 active torsions:
REMARK  status: ('A' for Active; 'I' for Inactive)
REMARK    1  A    between atoms: N1_2  and  C2_3 
REMARK    2  A    between atoms: N1_2  and  C12_19 
REMARK    3  A    between atoms: C2_3  and  O1_4 
REMARK    4  A    between atoms: C2_3  and  C3_6 
REMARK    5  A    between atoms: N2_9  and  C6_10 
REMARK    6  A    between atoms: C6_10  and  C7_11 
REMARK    7  A    between atoms: C6_10  and  C8_13 
REMARK    8  A    between atoms: C8_13  and  C9_14 
REMARK    9  A    between atoms: C9_14  and  O2_15 
REMARK   10  A    between atoms: C15_22  and  C16_23 
ROOT
HETATM    1  C1  UNL     1       6.780   3.519  16.851  1.00  0.00     0.152 C 
HETATM    2  N1  UNL     1       6.970   3.725  18.261  1.00  0.00    -0.363 N 
ENDROOT
BRANCH   2   3
HETATM    3  C2  UNL     1       6.149   4.670  18.910  1.00  0.00     0.118 C 
BRANCH   3   4
HETATM    4  O1  UNL     1       4.881   4.486  18.673  1.00  0.00    -0.349 OA
ATOM      5  H1  UNL     1       4.329   4.740  19.403  1.00  0.00     0.219 HD
ENDBRANCH   3   4
BRANCH   3   6
HETATM    6  C3  UNL     1       6.456   5.784  19.769  1.00  0.00     0.066 C 
HETATM    7  C4  UNL     1       7.363   5.558  20.924  1.00  0.00     0.033 C 
HETATM    8  C5  UNL     1       7.639   6.889  21.588  1.00  0.00     0.123 C 
HETATM    9  N2  UNL     1       6.484   7.659  21.881  1.00  0.00    -0.388 N 
HETATM   10  C10 UNL     1       5.248   7.093  21.510  1.00  0.00     0.059 C 
HETATM   11  C11 UNL     1       5.189   6.544  20.117  1.00  0.00     0.057 C 
BRANCH   9  12
HETATM   12  C6  UNL     1       6.676   9.057  21.634  1.00  0.00     0.095 C 
BRANCH  12  13
HETATM   13  C7  UNL     1       6.770   9.895  22.868  1.00  0.00     0.110 C 
HETATM   14 BR1  UNL     1       8.553   9.922  23.608  1.00  0.00    -0.094 Br
ENDBRANCH  12  13
BRANCH  12  15
HETATM   15  C8  UNL     1       7.939   9.201  20.823  1.00  0.00     0.052 C 
BRANCH  15  16
HETATM   16  C9  UNL     1       7.822  10.124  19.649  1.00  0.00     0.166 C 
BRANCH  16  17
HETATM   17  O2  UNL     1       8.629  11.244  19.962  1.00  0.00    -0.401 OA
ATOM     18  H2  UNL     1       9.112  11.444  19.169  1.00  0.00     0.209 HD
ENDBRANCH  16  17
ENDBRANCH  15  16
ENDBRANCH  12  15
ENDBRANCH   9  12
ENDBRANCH   3   6
ENDBRANCH   2   3
BRANCH   2  19
HETATM   19  C12 UNL     1       8.013   2.984  19.000  1.00  0.00     0.104 C 
HETATM   20  C13 UNL     1       9.347   3.084  18.361  1.00  0.00     0.027 C 
HETATM   21  C14 UNL     1       9.706   2.051  17.376  1.00  0.00     0.011 C 
HETATM   22  C15 UNL     1       9.018   0.716  17.539  1.00  0.00     0.023 C 
HETATM   23  C19 UNL     1       8.450   0.495  18.896  1.00  0.00     0.031 C 
HETATM   24  C20 UNL     1       7.598   1.620  19.427  1.00  0.00     0.106 C 
HETATM   25 CL1  UNL     1       5.842   1.302  19.171  1.00  0.00    -0.123 Cl
BRANCH  22  26
HETATM   26  C16 UNL     1       9.936  -0.412  17.259  1.00  0.00    -0.020 A 
HETATM   27  C17 UNL     1      11.189  -0.608  17.794  1.00  0.00     0.116 A 
HETATM   28  N3  UNL     1      11.701  -1.758  17.283  1.00  0.00    -0.312 N 
HETATM   29  N4  UNL     1      10.809  -2.276  16.453  1.00  0.00    -0.312 N 
ATOM     30  H3  UNL     1      12.616  -2.154  17.500  1.00  0.00     0.186 HD
HETATM   31  C18 UNL     1       9.716  -1.473  16.417  1.00  0.00     0.116 A 
ATOM     32  H4  UNL     1      10.924  -3.142  15.925  1.00  0.00     0.186 HD
ENDBRANCH  22  26
ENDBRANCH   2  19
TORSDOF 10
ENDMDL
MODEL 2
REMARK VINA RESULT: -7.863452818      1.650      2.007
REMARK  10 active torsions:
REMARK  status: ('A' for Active; 'I' for Inactive)
REMARK    1  A    between atoms: N1_2  and  C2_3 
REMARK    2  A    between atoms: N1_2  and  C12_19 
REMARK    3  A    between atoms: C2_3  and  O1_4 
REMARK    4  A    between atoms: C2_3  and  C3_6 
REMARK    5  A    between atoms: N2_9  and  C6_10 
REMARK    6  A    between atoms: C6_10  and  C7_11 
REMARK    7  A    between atoms: C6_10  and  C8_13 
REMARK    8  A    between atoms: C8_13  and  C9_14 
REMARK    9  A    between atoms: C9_14  and  O2_15 
REMARK   10  A    between atoms: C15_22  and  C16_23 
ROOT
HETATM    1  C1  UNL     1       6.262   3.492  17.185  1.00  0.00     0.152 C 
HETATM    2  N1  UNL     1       6.610   3.823  18.540  1.00  0.00    -0.363 N 
ENDROOT
BRANCH   2   3
HETATM    3  C2  UNL     1       5.836   4.799  19.204  1.00  0.00     0.118 C 
BRANCH   3   4
HETATM    4  O1  UNL     1       4.559   4.663  18.989  1.00  0.00    -0.349 OA
ATOM      5  H1  UNL     1       4.057   5.425  19.255  1.00  0.00     0.219 HD
ENDBRANCH   3   4
BRANCH   3   6
HETATM    6  C3  UNL     1       6.201   5.899  20.059  1.00  0.00     0.066 C 
HETATM    7  C4  UNL     1       5.141   6.538  20.880  1.00  0.00     0.033 C 
HETATM    8  C5  UNL     1       5.786   7.566  21.785  1.00  0.00     0.123 C 
HETATM    9  N2  UNL     1       6.658   8.472  21.128  1.00  0.00    -0.388 N 
HETATM   10  C10 UNL     1       6.814   8.292  19.739  1.00  0.00     0.059 C 
HETATM   11  C11 UNL     1       7.077   6.882  19.304  1.00  0.00     0.057 C 
BRANCH   9  12
HETATM   12  C6  UNL     1       7.832   8.762  21.897  1.00  0.00     0.095 C 
BRANCH  12  13
HETATM   13  C7  UNL     1       7.775  10.053  22.648  1.00  0.00     0.110 C 
HETATM   14 BR1  UNL     1       7.767  11.588  21.476  1.00  0.00    -0.094 Br
ENDBRANCH  12  13
BRANCH  12  15
HETATM   15  C8  UNL     1       8.033   7.620  22.860  1.00  0.00     0.052 C 
BRANCH  15  16
HETATM   16  C9  UNL     1       8.582   8.020  24.194  1.00  0.00     0.166 C 
BRANCH  16  17
HETATM   17  O2  UNL     1       8.151   7.022  25.101  1.00  0.00    -0.401 OA
ATOM     18  H2  UNL     1       8.888   6.433  25.205  1.00  0.00     0.209 HD
ENDBRANCH  16  17
ENDBRANCH  15  16
ENDBRANCH  12  15
ENDBRANCH   9  12
ENDBRANCH   3   6
ENDBRANCH   2   3
BRANCH   2  19
HETATM   19  C12 UNL     1       7.760   3.177  19.205  1.00  0.00     0.104 C 
HETATM   20  C13 UNL     1       9.021   3.325  18.440  1.00  0.00     0.027 C 
HETATM   21  C14 UNL     1       9.350   2.272  17.465  1.00  0.00     0.011 C 
HETATM   22  C15 UNL     1       8.764   0.909  17.744  1.00  0.00     0.023 C 
HETATM   23  C19 UNL     1       8.338   0.715  19.156  1.00  0.00     0.031 C 
HETATM   24  C20 UNL     1       7.470   1.812  19.722  1.00  0.00     0.106 C 
HETATM   25 CL1  UNL     1       5.722   1.383  19.646  1.00  0.00    -0.123 Cl
BRANCH  22  26
HETATM   26  C16 UNL     1       9.719  -0.176  17.423  1.00  0.00    -0.020 A 
HETATM   27  C17 UNL     1      10.956  -0.381  17.991  1.00  0.00     0.116 A 
HETATM   28  N3  UNL     1      11.516  -1.481  17.422  1.00  0.00    -0.312 N 
HETATM   29  N4  UNL     1      10.669  -1.959  16.524  1.00  0.00    -0.312 N 
ATOM     30  H3  UNL     1      12.432  -1.870  17.647  1.00  0.00     0.186 HD
HETATM   31  C18 UNL     1       9.558  -1.180  16.501  1.00  0.00     0.116 A 
ATOM     32  H4  UNL     1      10.825  -2.782  15.943  1.00  0.00     0.186 HD
ENDBRANCH  22  26
ENDBRANCH   2  19
TORSDOF 10
ENDMDL
MODEL 3
REMARK VINA RESULT: -7.828921776      0.931      1.328
REMARK  10 active torsions:
REMARK  status: ('A' for Active; 'I' for Inactive)
REMARK    1  A    between atoms: N1_2  and  C2_3 
REMARK    2  A    between atoms: N1_2  and  C12_19 
REMARK    3  A    between atoms: C2_3  and  O1_4 
REMARK    4  A    between atoms: C2_3  and  C3_6 
REMARK    5  A    between atoms: N2_9  and  C6_10 
REMARK    6  A    between atoms: C6_10  and  C7_11 
REMARK    7  A    between atoms: C6_10  and  C8_13 
REMARK    8  A    between atoms: C8_13  and  C9_14 
REMARK    9  A    between atoms: C9_14  and  O2_15 
REMARK   10  A    between atoms: C15_22  and  C16_23 
ROOT
HETATM    1  C1  UNL     1       6.213   3.392  17.255  1.00  0.00     0.152 C 
HETATM    2  N1  UNL     1       6.594   3.750  18.594  1.00  0.00    -0.363 N 
ENDROOT
BRANCH   2   3
HETATM    3  C2  UNL     1       5.871   4.776  19.238  1.00  0.00     0.118 C 
BRANCH   3   4
HETATM    4  O1  UNL     1       4.604   4.502  19.360  1.00  0.00    -0.349 OA
ATOM      5  H1  UNL     1       4.110   5.208  19.761  1.00  0.00     0.219 HD
ENDBRANCH   3   4
BRANCH   3   6
HETATM    6  C3  UNL     1       6.277   6.051  19.771  1.00  0.00     0.066 C 
HETATM    7  C4  UNL     1       7.408   6.763  19.121  1.00  0.00     0.033 C 
HETATM    8  C5  UNL     1       7.555   8.124  19.766  1.00  0.00     0.123 C 
HETATM    9  N2  UNL     1       7.599   8.108  21.184  1.00  0.00    -0.388 N 
HETATM   10  C10 UNL     1       7.490   6.844  21.797  1.00  0.00     0.059 C 
HETATM   11  C11 UNL     1       6.379   5.979  21.283  1.00  0.00     0.057 C 
BRANCH   9  12
HETATM   12  C6  UNL     1       6.873   9.195  21.769  1.00  0.00     0.095 C 
BRANCH  12  13
HETATM   13  C7  UNL     1       7.433   9.685  23.066  1.00  0.00     0.110 C 
HETATM   14 BR1  UNL     1       6.483   8.979  24.592  1.00  0.00    -0.094 Br
ENDBRANCH  12  13
BRANCH  12  15
HETATM   15  C8  UNL     1       6.858  10.319  20.764  1.00  0.00     0.052 C 
BRANCH  15  16
HETATM   16  C9  UNL     1       7.726  11.485  21.121  1.00  0.00     0.166 C 
BRANCH  16  17
HETATM   17  O2  UNL     1       8.660  11.605  20.063  1.00  0.00    -0.401 OA
ATOM     18  H2  UNL     1       8.628  12.515  19.793  1.00  0.00     0.209 HD
ENDBRANCH  16  17
ENDBRANCH  15  16
ENDBRANCH  12  15
ENDBRANCH   9  12
ENDBRANCH   3   6
ENDBRANCH   2   3
BRANCH   2  19
HETATM   19  C12 UNL     1       7.727   3.078  19.264  1.00  0.00     0.104 C 
HETATM   20  C13 UNL     1       9.009   3.259  18.542  1.00  0.00     0.027 C 
HETATM   21  C14 UNL     1       9.367   2.247  17.534  1.00  0.00     0.011 C 
HETATM   22  C15 UNL     1       8.775   0.873  17.739  1.00  0.00     0.023 C 
HETATM   23  C19 UNL     1       8.311   0.620  19.130  1.00  0.00     0.031 C 
HETATM   24  C20 UNL     1       7.425   1.692  19.716  1.00  0.00     0.106 C 
HETATM   25 CL1  UNL     1       5.680   1.265  19.573  1.00  0.00    -0.123 Cl
BRANCH  22  26
HETATM   26  C16 UNL     1       9.742  -0.197  17.400  1.00  0.00    -0.020 A 
HETATM   27  C17 UNL     1       9.552  -1.227  16.507  1.00  0.00     0.116 A 
HETATM   28  N3  UNL     1      10.675  -1.992  16.484  1.00  0.00    -0.312 N 
HETATM   29  N4  UNL     1      11.549  -1.469  17.330  1.00  0.00    -0.312 N 
ATOM     30  H3  UNL     1      10.820  -2.825  15.914  1.00  0.00     0.186 HD
HETATM   31  C18 UNL     1      11.005  -0.368  17.907  1.00  0.00     0.116 A 
ATOM     32  H4  UNL     1      12.482  -1.835  17.517  1.00  0.00     0.186 HD
ENDBRANCH  22  26
ENDBRANCH   2  19
TORSDOF 10
ENDMDL
MODEL 4
REMARK VINA RESULT: -7.822521432      1.415      1.716
REMARK  10 active torsions:
REMARK  status: ('A' for Active; 'I' for Inactive)
REMARK    1  A    between atoms: N1_2  and  C2_3 
REMARK    2  A    between atoms: N1_2  and  C12_19 
REMARK    3  A    between atoms: C2_3  and  O1_4 
REMARK    4  A    between atoms: C2_3  and  C3_6 
REMARK    5  A    between atoms: N2_9  and  C6_10 
REMARK    6  A    between atoms: C6_10  and  C7_11 
REMARK    7  A    between atoms: C6_10  and  C8_13 
REMARK    8  A    between atoms: C8_13  and  C9_14 
REMARK    9  A    between atoms: C9_14  and  O2_15 
REMARK   10  A    between atoms: C15_22  and  C16_23 
ROOT
HETATM    1  C1  UNL     1       6.669   3.565  16.917  1.00  0.00     0.152 C 
HETATM    2  N1  UNL     1       6.919   3.833  18.306  1.00  0.00    -0.363 N 
ENDROOT
BRANCH   2   3
HETATM    3  C2  UNL     1       6.181   4.862  18.927  1.00  0.00     0.118 C 
BRANCH   3   4
HETATM    4  O1  UNL     1       4.920   4.848  18.600  1.00  0.00    -0.349 OA
ATOM      5  H1  UNL     1       4.634   5.659  18.197  1.00  0.00     0.219 HD
ENDBRANCH   3   4
BRANCH   3   6
HETATM    6  C3  UNL     1       6.566   5.908  19.839  1.00  0.00     0.066 C 
HETATM    7  C4  UNL     1       6.037   5.866  21.227  1.00  0.00     0.033 C 
HETATM    8  C5  UNL     1       6.683   6.980  22.023  1.00  0.00     0.123 C 
HETATM    9  N2  UNL     1       6.633   8.256  21.405  1.00  0.00    -0.388 N 
HETATM   10  C10 UNL     1       6.006   8.316  20.146  1.00  0.00     0.059 C 
HETATM   11  C11 UNL     1       6.435   7.263  19.168  1.00  0.00     0.057 C 
BRANCH   9  12
HETATM   12  C6  UNL     1       7.845   9.001  21.581  1.00  0.00     0.095 C 
BRANCH  12  13
HETATM   13  C7  UNL     1       7.655  10.360  22.173  1.00  0.00     0.110 C 
HETATM   14 BR1  UNL     1       7.735  11.760  20.845  1.00  0.00    -0.094 Br
ENDBRANCH  12  13
BRANCH  12  15
HETATM   15  C8  UNL     1       8.752   8.182  22.464  1.00  0.00     0.052 C 
BRANCH  15  16
HETATM   16  C9  UNL     1       9.445   8.962  23.538  1.00  0.00     0.166 C 
BRANCH  16  17
HETATM   17  O2  UNL     1      10.814   8.974  23.179  1.00  0.00    -0.401 OA
ATOM     18  H2  UNL     1      11.173   8.157  23.506  1.00  0.00     0.209 HD
ENDBRANCH  16  17
ENDBRANCH  15  16
ENDBRANCH  12  15
ENDBRANCH   9  12
ENDBRANCH   3   6
ENDBRANCH   2   3
BRANCH   2  19
HETATM   19  C12 UNL     1       7.939   3.067  19.053  1.00  0.00     0.104 C 
HETATM   20  C13 UNL     1       9.288   3.166  18.444  1.00  0.00     0.027 C 
HETATM   21  C14 UNL     1       9.656   2.148  17.447  1.00  0.00     0.011 C 
HETATM   22  C15 UNL     1       8.952   0.817  17.570  1.00  0.00     0.023 C 
HETATM   23  C19 UNL     1       8.354   0.576  18.911  1.00  0.00     0.031 C 
HETATM   24  C20 UNL     1       7.501   1.700  19.445  1.00  0.00     0.106 C 
HETATM   25 CL1  UNL     1       5.749   1.406  19.147  1.00  0.00    -0.123 Cl
BRANCH  22  26
HETATM   26  C16 UNL     1       9.864  -0.315  17.288  1.00  0.00    -0.020 A 
HETATM   27  C17 UNL     1       9.638  -1.359  16.420  1.00  0.00     0.116 A 
HETATM   28  N3  UNL     1      10.716  -2.186  16.450  1.00  0.00    -0.312 N 
HETATM   29  N4  UNL     1      11.597  -1.688  17.304  1.00  0.00    -0.312 N 
ATOM     30  H3  UNL     1      10.828  -3.043  15.907  1.00  0.00     0.186 HD
HETATM   31  C18 UNL     1      11.102  -0.542  17.835  1.00  0.00     0.116 A 
ATOM     32  H4  UNL     1      12.502  -2.100  17.527  1.00  0.00     0.186 HD
ENDBRANCH  22  26
ENDBRANCH   2  19
TORSDOF 10
ENDMDL
MODEL 5
REMARK VINA RESULT: -7.820327101      1.173      1.246
REMARK  10 active torsions:
REMARK  status: ('A' for Active; 'I' for Inactive)
REMARK    1  A    between atoms: N1_2  and  C2_3 
REMARK    2  A    between atoms: N1_2  and  C12_19 
REMARK    3  A    between atoms: C2_3  and  O1_4 
REMARK    4  A    between atoms: C2_3  and  C3_6 
REMARK    5  A    between atoms: N2_9  and  C6_10 
REMARK    6  A    between atoms: C6_10  and  C7_11 
REMARK    7  A    between atoms: C6_10  and  C8_13 
REMARK    8  A    between atoms: C8_13  and  C9_14 
REMARK    9  A    between atoms: C9_14  and  O2_15 
REMARK   10  A    between atoms: C15_22  and  C16_23 
ROOT
HETATM    1  C1  UNL     1       6.372   3.485  17.176  1.00  0.00     0.152 C 
HETATM    2  N1  UNL     1       6.730   3.800  18.532  1.00  0.00    -0.363 N 
ENDROOT
BRANCH   2   3
HETATM    3  C2  UNL     1       6.005   4.815  19.191  1.00  0.00     0.118 C 
BRANCH   3   4
HETATM    4  O1  UNL     1       4.735   4.543  19.295  1.00  0.00    -0.349 OA
ATOM      5  H1  UNL     1       4.385   4.740  20.156  1.00  0.00     0.219 HD
ENDBRANCH   3   4
BRANCH   3   6
HETATM    6  C3  UNL     1       6.410   6.076  19.756  1.00  0.00     0.066 C 
HETATM    7  C4  UNL     1       7.802   6.541  19.524  1.00  0.00     0.033 C 
HETATM    8  C5  UNL     1       7.946   7.936  20.094  1.00  0.00     0.123 C 
HETATM    9  N2  UNL     1       7.483   8.083  21.427  1.00  0.00    -0.388 N 
HETATM   10  C10 UNL     1       6.950   6.930  22.034  1.00  0.00     0.059 C 
HETATM   11  C11 UNL     1       5.959   6.172  21.202  1.00  0.00     0.057 C 
BRANCH   9  12
HETATM   12  C6  UNL     1       6.797   9.323  21.637  1.00  0.00     0.095 C 
BRANCH  12  13
HETATM   13  C7  UNL     1       5.931   9.352  22.855  1.00  0.00     0.110 C 
HETATM   14 BR1  UNL     1       4.079   9.705  22.435  1.00  0.00    -0.094 Br
ENDBRANCH  12  13
BRANCH  12  15
HETATM   15  C8  UNL     1       7.843  10.406  21.730  1.00  0.00     0.052 C 
BRANCH  15  16
HETATM   16  C9  UNL     1       7.609  11.575  20.824  1.00  0.00     0.166 C 
BRANCH  16  17
HETATM   17  O2  UNL     1       8.710  11.596  19.934  1.00  0.00    -0.401 OA
ATOM     18  H2  UNL     1       9.267  10.873  20.196  1.00  0.00     0.209 HD
ENDBRANCH  16  17
ENDBRANCH  15  16
ENDBRANCH  12  15
ENDBRANCH   9  12
ENDBRANCH   3   6
ENDBRANCH   2   3
BRANCH   2  19
HETATM   19  C12 UNL     1       7.843   3.097  19.203  1.00  0.00     0.104 C 
HETATM   20  C13 UNL     1       9.129   3.236  18.479  1.00  0.00     0.027 C 
HETATM   21  C14 UNL     1       9.455   2.210  17.475  1.00  0.00     0.011 C 
HETATM   22  C15 UNL     1       8.823   0.855  17.687  1.00  0.00     0.023 C 
HETATM   23  C19 UNL     1       8.352   0.622  19.078  1.00  0.00     0.031 C 
HETATM   24  C20 UNL     1       7.500   1.722  19.661  1.00  0.00     0.106 C 
HETATM   25 CL1  UNL     1       5.743   1.348  19.521  1.00  0.00    -0.123 Cl
BRANCH  22  26
HETATM   26  C16 UNL     1       9.756  -0.245  17.351  1.00  0.00    -0.020 A 
HETATM   27  C17 UNL     1      11.025  -0.432  17.851  1.00  0.00     0.116 A 
HETATM   28  N3  UNL     1      11.548  -1.554  17.293  1.00  0.00    -0.312 N 
HETATM   29  N4  UNL     1      10.647  -2.065  16.467  1.00  0.00    -0.312 N 
ATOM     30  H3  UNL     1      12.476  -1.938  17.477  1.00  0.00     0.186 HD
HETATM   31  C18 UNL     1       9.539  -1.284  16.481  1.00  0.00     0.116 A 
ATOM     32  H4  UNL     1      10.768  -2.911  15.910  1.00  0.00     0.186 HD
ENDBRANCH  22  26
ENDBRANCH   2  19
TORSDOF 10
ENDMDL
