MODEL 1
REMARK VINA RESULT: -10.553674918      0.000      0.000
REMARK  7 active torsions:
REMARK  status: ('A' for Active; 'I' for Inactive)
REMARK    1  A    between atoms: C2_2  and  C3_4 
REMARK    2  A    between atoms: C3_4  and  C4_6 
REMARK    3  A    between atoms: C4_6  and  O3_7 
REMARK    4  A    between atoms: C4_6  and  C5_9 
REMARK    5  A    between atoms: C6_14  and  C7_15 
REMARK    6  A    between atoms: N3_18  and  N4_19 
REMARK    7  A    between atoms: N4_19  and  C8_21 
ROOT
HETATM    1  C8  UNL     1       4.152   0.742  22.355  1.00  0.00     0.699 C 
HETATM    2  N5  UNL     1       5.393   0.931  22.158  1.00  0.00    -0.199 N 
ATOM      3  H5  UNL     1       5.921   1.159  23.001  1.00  0.00     0.183 HD
HETATM    4  C9  UNL     1       6.168   0.883  20.989  1.00  0.00     0.143 C 
HETATM    5  C10 UNL     1       5.398   0.764  19.717  1.00  0.00     0.238 A 
HETATM    6  N6  UNL     1       5.208   2.068  19.176  1.00  0.00    -0.325 N 
ATOM      7  H6  UNL     1       4.746   2.735  19.796  1.00  0.00     0.165 HD
HETATM    8  C11 UNL     1       5.531   2.519  18.038  1.00  0.00     0.205 A 
HETATM    9  N7  UNL     1       5.277   3.848  17.634  1.00  0.00    -0.063 NA
HETATM   10  N8  UNL     1       6.181   1.638  17.117  1.00  0.00    -0.164 N 
ATOM     11  H8  UNL     1       6.457   1.963  16.190  1.00  0.00     0.187 HD
HETATM   12  C12 UNL     1       6.435   0.302  17.525  1.00  0.00     0.676 A 
HETATM   13  N9  UNL     1       7.030  -0.459  16.650  1.00  0.00    -0.235 N 
ATOM     14  H91 UNL     1       7.212  -1.420  16.943  1.00  0.00     0.174 HD
ATOM     15  H92 UNL     1       7.300  -0.121  15.726  1.00  0.00     0.174 HD
HETATM   16  N10 UNL     1       6.062  -0.166  18.802  1.00  0.00    -0.185 N 
ATOM     17  H10 UNL     1       6.250  -1.129  19.081  1.00  0.00     0.181 HD
HETATM   18  C13 UNL     1       4.059   0.186  19.959  1.00  0.00     0.291 C 
HETATM   19  O6  UNL     1       3.509  -0.457  19.032  1.00  0.00    -0.267 OA
HETATM   20  N11 UNL     1       3.396   0.339  21.188  1.00  0.00    -0.154 N 
ATOM     21  H11 UNL     1       2.393   0.167  21.257  1.00  0.00     0.187 HD
ENDROOT
BRANCH   1  22
HETATM   22  N4  UNL     1       3.482   0.818  23.583  1.00  0.00    -0.122 N 
ATOM     23  H4  UNL     1       3.629  -0.018  24.148  1.00  0.00     0.206 HD
BRANCH  22  24
HETATM   24  N3  UNL     1       2.681   1.726  24.219  1.00  0.00    -0.201 N 
HETATM   25  C5  UNL     1       3.211   2.590  25.173  1.00  0.00     0.157 A 
HETATM   26  N1  UNL     1       2.169   3.317  25.602  1.00  0.00    -0.283 N 
HETATM   27  N2  UNL     1       1.091   2.962  24.993  1.00  0.00    -0.277 N 
ATOM     28  H1  UNL     1       2.222   4.048  26.312  1.00  0.00     0.188 HD
HETATM   29  C6  UNL     1       1.367   1.942  24.092  1.00  0.00     0.222 A 
ATOM     30  H2  UNL     1       0.170   3.370  25.149  1.00  0.00     0.189 HD
BRANCH  25  31
HETATM   31  C4  UNL     1       4.618   2.699  25.635  1.00  0.00     0.266 C 
BRANCH  31  32
HETATM   32  C3  UNL     1       5.039   1.516  26.460  1.00  0.00     0.230 C 
HETATM   33  O2  UNL     1       4.404   1.210  27.514  1.00  0.00    -0.286 OA
BRANCH  32  34
HETATM   34  C2  UNL     1       6.168   0.690  26.093  1.00  0.00     0.194 C 
HETATM   35  C1  UNL     1       7.426   0.737  26.887  1.00  0.00     0.100 C 
HETATM   36  O1  UNL     1       6.156  -0.097  25.107  1.00  0.00    -0.290 OA
ENDBRANCH  32  34
ENDBRANCH  31  32
BRANCH  31  37
HETATM   37  O3  UNL     1       5.515   2.927  24.622  1.00  0.00    -0.380 OA
ATOM     38  H3  UNL     1       5.336   3.758  24.197  1.00  0.00     0.211 HD
ENDBRANCH  31  37
ENDBRANCH  25  31
BRANCH  29  39
HETATM   39  C7  UNL     1       0.328   1.352  23.274  1.00  0.00     0.248 C 
HETATM   40  O4  UNL     1      -0.737   0.831  23.569  1.00  0.00    -0.642 OA
HETATM   41  O5  UNL     1       0.573   1.372  21.865  1.00  0.00    -0.642 OA
ENDBRANCH  29  39
ENDBRANCH  22  24
ENDBRANCH   1  22
TORSDOF 7
ENDMDL
MODEL 2
REMARK VINA RESULT: -10.373260288      2.524      7.535
REMARK  7 active torsions:
REMARK  status: ('A' for Active; 'I' for Inactive)
REMARK    1  A    between atoms: C2_2  and  C3_4 
REMARK    2  A    between atoms: C3_4  and  C4_6 
REMARK    3  A    between atoms: C4_6  and  O3_7 
REMARK    4  A    between atoms: C4_6  and  C5_9 
REMARK    5  A    between atoms: C6_14  and  C7_15 
REMARK    6  A    between atoms: N3_18  and  N4_19 
REMARK    7  A    between atoms: N4_19  and  C8_21 
ROOT
HETATM    1  C8  UNL     1       4.099   1.492  21.073  1.00  0.00     0.699 C 
HETATM    2  N5  UNL     1       2.935   1.218  20.646  1.00  0.00    -0.199 N 
ATOM      3  H5  UNL     1       2.872   1.124  19.632  1.00  0.00     0.183 HD
HETATM    4  C9  UNL     1       1.718   1.021  21.318  1.00  0.00     0.143 C 
HETATM    5  C10 UNL     1       1.730   1.358  22.770  1.00  0.00     0.238 A 
HETATM    6  N6  UNL     1       1.256   2.692  22.931  1.00  0.00    -0.325 N 
ATOM      7  H6  UNL     1       1.769   3.404  22.410  1.00  0.00     0.165 HD
HETATM    8  C11 UNL     1       0.290   3.121  23.629  1.00  0.00     0.205 A 
HETATM    9  N7  UNL     1      -0.069   4.485  23.693  1.00  0.00    -0.063 NA
HETATM   10  N8  UNL     1      -0.473   2.179  24.387  1.00  0.00    -0.164 N 
ATOM     11  H8  UNL     1      -1.259   2.484  24.961  1.00  0.00     0.187 HD
HETATM   12  C12 UNL     1      -0.111   0.807  24.321  1.00  0.00     0.676 A 
HETATM   13  N9  UNL     1      -0.837  -0.011  25.029  1.00  0.00    -0.235 N 
ATOM     14  H91 UNL     1      -0.577  -0.996  24.982  1.00  0.00     0.174 HD
ATOM     15  H92 UNL     1      -1.620   0.309  25.599  1.00  0.00     0.174 HD
HETATM   16  N10 UNL     1       0.973   0.365  23.533  1.00  0.00    -0.185 N 
ATOM     17  H10 UNL     1       1.222  -0.624  23.495  1.00  0.00     0.181 HD
HETATM   18  C13 UNL     1       3.103   1.307  23.317  1.00  0.00     0.291 C 
HETATM   19  O6  UNL     1       3.253   1.039  24.533  1.00  0.00    -0.267 OA
HETATM   20  N11 UNL     1       4.230   1.550  22.514  1.00  0.00    -0.154 N 
ATOM     21  H11 UNL     1       5.130   1.766  22.942  1.00  0.00     0.187 HD
ENDROOT
BRANCH   1  22
HETATM   22  N4  UNL     1       5.252   1.667  20.297  1.00  0.00    -0.122 N 
ATOM     23  H4  UNL     1       5.315   2.612  19.918  1.00  0.00     0.206 HD
BRANCH  22  24
HETATM   24  N3  UNL     1       6.316   0.897  19.918  1.00  0.00    -0.201 N 
HETATM   25  C5  UNL     1       6.544   0.619  18.573  1.00  0.00     0.157 A 
HETATM   26  N1  UNL     1       7.634  -0.161  18.557  1.00  0.00    -0.283 N 
HETATM   27  N2  UNL     1       8.061  -0.363  19.756  1.00  0.00    -0.277 N 
ATOM     28  H1  UNL     1       8.066  -0.542  17.715  1.00  0.00     0.188 HD
HETATM   29  C6  UNL     1       7.248   0.297  20.668  1.00  0.00     0.222 A 
ATOM     30  H2  UNL     1       8.876  -0.924  19.999  1.00  0.00     0.189 HD
BRANCH  25  31
HETATM   31  C4  UNL     1       5.762   1.074  17.395  1.00  0.00     0.266 C 
BRANCH  31  32
HETATM   32  C3  UNL     1       4.310   0.703  17.499  1.00  0.00     0.230 C 
HETATM   33  O2  UNL     1       3.414   1.601  17.465  1.00  0.00    -0.286 OA
BRANCH  32  34
HETATM   34  C2  UNL     1       3.878  -0.669  17.640  1.00  0.00     0.194 C 
HETATM   35  C1  UNL     1       3.978  -1.612  16.493  1.00  0.00     0.100 C 
HETATM   36  O1  UNL     1       3.404  -1.137  18.711  1.00  0.00    -0.290 OA
ENDBRANCH  32  34
ENDBRANCH  31  32
BRANCH  31  37
HETATM   37  O3  UNL     1       5.903   2.411  17.122  1.00  0.00    -0.380 OA
ATOM     38  H3  UNL     1       6.820   2.637  17.016  1.00  0.00     0.211 HD
ENDBRANCH  31  37
ENDBRANCH  25  31
BRANCH  29  39
HETATM   39  C7  UNL     1       7.500   0.234  22.092  1.00  0.00     0.248 C 
HETATM   40  O4  UNL     1       8.399   0.697  22.777  1.00  0.00    -0.642 OA
HETATM   41  O5  UNL     1       6.534  -0.498  22.852  1.00  0.00    -0.642 OA
ENDBRANCH  29  39
ENDBRANCH  22  24
ENDBRANCH   1  22
TORSDOF 7
ENDMDL
MODEL 3
REMARK VINA RESULT: -10.259972784      2.382      7.518
REMARK  7 active torsions:
REMARK  status: ('A' for Active; 'I' for Inactive)
REMARK    1  A    between atoms: C2_2  and  C3_4 
REMARK    2  A    between atoms: C3_4  and  C4_6 
REMARK    3  A    between atoms: C4_6  and  O3_7 
REMARK    4  A    between atoms: C4_6  and  C5_9 
REMARK    5  A    between atoms: C6_14  and  C7_15 
REMARK    6  A    between atoms: N3_18  and  N4_19 
REMARK    7  A    between atoms: N4_19  and  C8_21 
ROOT
HETATM    1  C8  UNL     1       3.980   1.678  21.495  1.00  0.00     0.699 C 
HETATM    2  N5  UNL     1       3.942   2.001  22.723  1.00  0.00    -0.199 N 
ATOM      3  H5  UNL     1       4.829   2.340  23.094  1.00  0.00     0.183 HD
HETATM    4  C9  UNL     1       2.898   1.974  23.661  1.00  0.00     0.143 C 
HETATM    5  C10 UNL     1       1.654   1.287  23.212  1.00  0.00     0.238 A 
HETATM    6  N6  UNL     1       1.690  -0.064  23.663  1.00  0.00    -0.325 N 
ATOM      7  H6  UNL     1       2.505  -0.602  23.366  1.00  0.00     0.165 HD
HETATM    8  C11 UNL     1       0.857  -0.692  24.381  1.00  0.00     0.205 A 
HETATM    9  N7  UNL     1       1.026  -2.043  24.754  1.00  0.00    -0.063 NA
HETATM   10  N8  UNL     1      -0.310   0.000  24.832  1.00  0.00    -0.164 N 
ATOM     11  H8  UNL     1      -1.005  -0.471  25.412  1.00  0.00     0.187 HD
HETATM   12  C12 UNL     1      -0.478   1.359  24.455  1.00  0.00     0.676 A 
HETATM   13  N9  UNL     1      -1.557   1.944  24.892  1.00  0.00    -0.235 N 
ATOM     14  H91 UNL     1      -1.678   2.920  24.621  1.00  0.00     0.174 HD
ATOM     15  H92 UNL     1      -2.244   1.461  25.471  1.00  0.00     0.174 HD
HETATM   16  N10 UNL     1       0.472   2.028  23.654  1.00  0.00    -0.185 N 
ATOM     17  H10 UNL     1       0.338   3.004  23.390  1.00  0.00     0.181 HD
HETATM   18  C13 UNL     1       1.567   1.258  21.736  1.00  0.00     0.291 C 
HETATM   19  O6  UNL     1       0.430   1.221  21.204  1.00  0.00    -0.267 OA
HETATM   20  N11 UNL     1       2.714   1.269  20.925  1.00  0.00    -0.154 N 
ATOM     21  H11 UNL     1       2.654   0.991  19.945  1.00  0.00     0.187 HD
ENDROOT
BRANCH   1  22
HETATM   22  N4  UNL     1       5.094   1.749  20.648  1.00  0.00    -0.122 N 
ATOM     23  H4  UNL     1       5.118   2.624  20.126  1.00  0.00     0.206 HD
BRANCH  22  24
HETATM   24  N3  UNL     1       6.157   0.946  20.342  1.00  0.00    -0.201 N 
HETATM   25  C5  UNL     1       6.473   0.665  19.016  1.00  0.00     0.157 A 
HETATM   26  N1  UNL     1       7.536  -0.150  19.075  1.00  0.00    -0.283 N 
HETATM   27  N2  UNL     1       7.868  -0.369  20.300  1.00  0.00    -0.277 N 
ATOM     28  H1  UNL     1       8.014  -0.542  18.263  1.00  0.00     0.188 HD
HETATM   29  C6  UNL     1       7.013   0.314  21.154  1.00  0.00     0.222 A 
ATOM     30  H2  UNL     1       8.645  -0.958  20.598  1.00  0.00     0.189 HD
BRANCH  25  31
HETATM   31  C4  UNL     1       5.793   1.149  17.787  1.00  0.00     0.266 C 
BRANCH  31  32
HETATM   32  C3  UNL     1       4.316   0.874  17.809  1.00  0.00     0.230 C 
HETATM   33  O2  UNL     1       3.485   1.832  17.792  1.00  0.00    -0.286 OA
BRANCH  32  34
HETATM   34  C2  UNL     1       3.788  -0.471  17.849  1.00  0.00     0.194 C 
HETATM   35  C1  UNL     1       3.808  -1.325  16.630  1.00  0.00     0.100 C 
HETATM   36  O1  UNL     1       3.292  -0.987  18.888  1.00  0.00    -0.290 OA
ENDBRANCH  32  34
ENDBRANCH  31  32
BRANCH  31  37
HETATM   37  O3  UNL     1       6.037   2.469  17.505  1.00  0.00    -0.380 OA
ATOM     38  H3  UNL     1       6.912   2.715  17.781  1.00  0.00     0.211 HD
ENDBRANCH  31  37
ENDBRANCH  25  31
BRANCH  29  39
HETATM   39  C7  UNL     1       7.159   0.238  22.593  1.00  0.00     0.248 C 
HETATM   40  O4  UNL     1       6.405  -0.169  23.463  1.00  0.00    -0.642 OA
HETATM   41  O5  UNL     1       8.403   0.721  23.107  1.00  0.00    -0.642 OA
ENDBRANCH  29  39
ENDBRANCH  22  24
ENDBRANCH   1  22
TORSDOF 7
ENDMDL
MODEL 4
REMARK VINA RESULT: -9.995517097      3.058      7.503
REMARK  7 active torsions:
REMARK  status: ('A' for Active; 'I' for Inactive)
REMARK    1  A    between atoms: C2_2  and  C3_4 
REMARK    2  A    between atoms: C3_4  and  C4_6 
REMARK    3  A    between atoms: C4_6  and  O3_7 
REMARK    4  A    between atoms: C4_6  and  C5_9 
REMARK    5  A    between atoms: C6_14  and  C7_15 
REMARK    6  A    between atoms: N3_18  and  N4_19 
REMARK    7  A    between atoms: N4_19  and  C8_21 
ROOT
HETATM    1  C8  UNL     1       4.947   0.943  21.238  1.00  0.00     0.699 C 
HETATM    2  N5  UNL     1       4.906   1.441  22.406  1.00  0.00    -0.199 N 
ATOM      3  H5  UNL     1       5.822   1.657  22.801  1.00  0.00     0.183 HD
HETATM    4  C9  UNL     1       3.828   1.748  23.252  1.00  0.00     0.143 C 
HETATM    5  C10 UNL     1       2.498   1.252  22.795  1.00  0.00     0.238 A 
HETATM    6  N6  UNL     1       2.241  -0.002  23.422  1.00  0.00    -0.325 N 
ATOM      7  H6  UNL     1       2.948  -0.722  23.265  1.00  0.00     0.165 HD
HETATM    8  C11 UNL     1       1.262  -0.352  24.145  1.00  0.00     0.205 A 
HETATM    9  N7  UNL     1       1.138  -1.642  24.704  1.00  0.00    -0.063 NA
HETATM   10  N8  UNL     1       0.232   0.607  24.405  1.00  0.00    -0.164 N 
ATOM     11  H8  UNL     1      -0.573   0.365  24.982  1.00  0.00     0.187 HD
HETATM   12  C12 UNL     1       0.359   1.904  23.840  1.00  0.00     0.676 A 
HETATM   13  N9  UNL     1      -0.605   2.740  24.107  1.00  0.00    -0.235 N 
ATOM     14  H91 UNL     1      -0.514   3.672  23.702  1.00  0.00     0.174 HD
ATOM     15  H92 UNL     1      -1.404   2.484  24.687  1.00  0.00     0.174 HD
HETATM   16  N10 UNL     1       1.465   2.259  23.039  1.00  0.00    -0.185 N 
ATOM     17  H10 UNL     1       1.542   3.194  22.640  1.00  0.00     0.181 HD
HETATM   18  C13 UNL     1       2.488   1.026  21.334  1.00  0.00     0.291 C 
HETATM   19  O6  UNL     1       1.398   1.129  20.721  1.00  0.00    -0.267 OA
HETATM   20  N11 UNL     1       3.657   0.703  20.625  1.00  0.00    -0.154 N 
ATOM     21  H11 UNL     1       3.597   0.304  19.688  1.00  0.00     0.187 HD
ENDROOT
BRANCH   1  22
HETATM   22  N4  UNL     1       6.097   0.679  20.484  1.00  0.00    -0.122 N 
ATOM     23  H4  UNL     1       6.897   0.460  21.076  1.00  0.00     0.206 HD
BRANCH  22  24
HETATM   24  N3  UNL     1       6.422   0.640  19.156  1.00  0.00    -0.201 N 
HETATM   25  C5  UNL     1       7.263  -0.354  18.663  1.00  0.00     0.157 A 
HETATM   26  N1  UNL     1       7.386  -0.090  17.355  1.00  0.00    -0.283 N 
HETATM   27  N2  UNL     1       6.702   0.956  17.040  1.00  0.00    -0.277 N 
ATOM     28  H1  UNL     1       7.943  -0.639  16.700  1.00  0.00     0.188 HD
HETATM   29  C6  UNL     1       6.062   1.462  18.164  1.00  0.00     0.222 A 
ATOM     30  H2  UNL     1       6.639   1.353  16.103  1.00  0.00     0.189 HD
BRANCH  25  31
HETATM   31  C4  UNL     1       7.899  -1.472  19.406  1.00  0.00     0.266 C 
BRANCH  31  32
HETATM   32  C3  UNL     1       9.257  -1.815  18.863  1.00  0.00     0.230 C 
HETATM   33  O2  UNL     1      10.140  -0.915  18.725  1.00  0.00    -0.286 OA
BRANCH  32  34
HETATM   34  C2  UNL     1       9.609  -3.164  18.481  1.00  0.00     0.194 C 
HETATM   35  C1  UNL     1      11.014  -3.504  18.126  1.00  0.00     0.100 C 
HETATM   36  O1  UNL     1       8.773  -4.107  18.425  1.00  0.00    -0.290 OA
ENDBRANCH  32  34
ENDBRANCH  31  32
BRANCH  31  37
HETATM   37  O3  UNL     1       7.956  -1.271  20.762  1.00  0.00    -0.380 OA
ATOM     38  H3  UNL     1       7.639  -2.037  21.228  1.00  0.00     0.211 HD
ENDBRANCH  31  37
ENDBRANCH  25  31
BRANCH  29  39
HETATM   39  C7  UNL     1       5.227   2.643  18.093  1.00  0.00     0.248 C 
HETATM   40  O4  UNL     1       5.496   3.813  17.869  1.00  0.00    -0.642 OA
HETATM   41  O5  UNL     1       3.833   2.420  18.323  1.00  0.00    -0.642 OA
ENDBRANCH  29  39
ENDBRANCH  22  24
ENDBRANCH   1  22
TORSDOF 7
ENDMDL
MODEL 5
REMARK VINA RESULT: -9.931500273      1.954      2.599
REMARK  7 active torsions:
REMARK  status: ('A' for Active; 'I' for Inactive)
REMARK    1  A    between atoms: C2_2  and  C3_4 
REMARK    2  A    between atoms: C3_4  and  C4_6 
REMARK    3  A    between atoms: C4_6  and  O3_7 
REMARK    4  A    between atoms: C4_6  and  C5_9 
REMARK    5  A    between atoms: C6_14  and  C7_15 
REMARK    6  A    between atoms: N3_18  and  N4_19 
REMARK    7  A    between atoms: N4_19  and  C8_21 
ROOT
HETATM    1  C8  UNL     1       4.313   1.466  21.425  1.00  0.00     0.699 C 
HETATM    2  N5  UNL     1       4.311   2.157  20.359  1.00  0.00    -0.199 N 
ATOM      3  H5  UNL     1       3.638   2.924  20.358  1.00  0.00     0.183 HD
HETATM    4  C9  UNL     1       5.066   2.054  19.180  1.00  0.00     0.143 C 
HETATM    5  C10 UNL     1       5.901   0.823  19.063  1.00  0.00     0.238 A 
HETATM    6  N6  UNL     1       5.172  -0.152  18.323  1.00  0.00    -0.325 N 
ATOM      7  H6  UNL     1       4.256  -0.394  18.703  1.00  0.00     0.165 HD
HETATM    8  C11 UNL     1       5.498  -0.762  17.262  1.00  0.00     0.205 A 
HETATM    9  N7  UNL     1       4.666  -1.714  16.633  1.00  0.00    -0.063 NA
HETATM   10  N8  UNL     1       6.770  -0.473  16.675  1.00  0.00    -0.164 N 
ATOM     11  H8  UNL     1       7.070  -0.943  15.820  1.00  0.00     0.187 HD
HETATM   12  C12 UNL     1       7.605   0.484  17.310  1.00  0.00     0.676 A 
HETATM   13  N9  UNL     1       8.753   0.712  16.735  1.00  0.00    -0.235 N 
ATOM     14  H91 UNL     1       9.353   1.399  17.191  1.00  0.00     0.174 HD
ATOM     15  H92 UNL     1       9.039   0.234  15.880  1.00  0.00     0.174 HD
HETATM   16  N10 UNL     1       7.209   1.145  18.492  1.00  0.00    -0.185 N 
ATOM     17  H10 UNL     1       7.820   1.829  18.937  1.00  0.00     0.181 HD
HETATM   18  C13 UNL     1       6.186   0.246  20.394  1.00  0.00     0.291 C 
HETATM   19  O6  UNL     1       7.241  -0.417  20.545  1.00  0.00    -0.267 OA
HETATM   20  N11 UNL     1       5.314   0.421  21.481  1.00  0.00    -0.154 N 
ATOM     21  H11 UNL     1       5.385  -0.181  22.301  1.00  0.00     0.187 HD
ENDROOT
BRANCH   1  22
HETATM   22  N4  UNL     1       3.503   1.667  22.550  1.00  0.00    -0.122 N 
ATOM     23  H4  UNL     1       2.596   1.210  22.451  1.00  0.00     0.206 HD
BRANCH  22  24
HETATM   24  N3  UNL     1       3.615   2.317  23.747  1.00  0.00    -0.201 N 
HETATM   25  C5  UNL     1       4.644   2.001  24.629  1.00  0.00     0.157 A 
HETATM   26  N1  UNL     1       4.450   2.797  25.692  1.00  0.00    -0.283 N 
HETATM   27  N2  UNL     1       3.413   3.541  25.513  1.00  0.00    -0.277 N 
ATOM     28  H1  UNL     1       5.039   2.810  26.524  1.00  0.00     0.188 HD
HETATM   29  C6  UNL     1       2.841   3.271  24.277  1.00  0.00     0.222 A 
ATOM     30  H2  UNL     1       3.064   4.227  26.182  1.00  0.00     0.189 HD
BRANCH  25  31
HETATM   31  C4  UNL     1       5.730   1.003  24.456  1.00  0.00     0.266 C 
BRANCH  31  32
HETATM   32  C3  UNL     1       6.849   1.204  25.438  1.00  0.00     0.230 C 
HETATM   33  O2  UNL     1       7.738   2.085  25.228  1.00  0.00    -0.286 OA
BRANCH  32  34
HETATM   34  C2  UNL     1       6.959   0.415  26.645  1.00  0.00     0.194 C 
HETATM   35  C1  UNL     1       6.653   1.019  27.970  1.00  0.00     0.100 C 
HETATM   36  O1  UNL     1       7.311  -0.796  26.648  1.00  0.00    -0.290 OA
ENDBRANCH  32  34
ENDBRANCH  31  32
BRANCH  31  37
HETATM   37  O3  UNL     1       5.293  -0.297  24.479  1.00  0.00    -0.380 OA
ATOM     38  H3  UNL     1       5.459  -0.721  23.645  1.00  0.00     0.211 HD
ENDBRANCH  31  37
ENDBRANCH  25  31
BRANCH  29  39
HETATM   39  C7  UNL     1       1.655   3.967  23.824  1.00  0.00     0.248 C 
HETATM   40  O4  UNL     1       1.104   4.978  24.231  1.00  0.00    -0.642 OA
HETATM   41  O5  UNL     1       0.996   3.382  22.697  1.00  0.00    -0.642 OA
ENDBRANCH  29  39
ENDBRANCH  22  24
ENDBRANCH   1  22
TORSDOF 7
ENDMDL
