MODEL 1
REMARK VINA RESULT: -9.966552343      0.000      0.000
REMARK  8 active torsions:
REMARK  status: ('A' for Active; 'I' for Inactive)
REMARK    1  A    between atoms: O1_2  and  C2_3 
REMARK    2  A    between atoms: C2_3  and  O2_4 
REMARK    3  A    between atoms: C2_3  and  C12_39 
REMARK    4  A    between atoms: O2_4  and  C3_5 
REMARK    5  A    between atoms: C7_17  and  N5_18 
REMARK    6  A    between atoms: C8_23  and  N7_24 
REMARK       I    between atoms: N7_24  and  C9_26 
REMARK       I    between atoms: C9_26  and  N8_27 
REMARK       I    between atoms: C9_26  and  N9_31 
REMARK    7  A    between atoms: N9_31  and  N10_32 
REMARK       I    between atoms: C12_39  and  N12_41 
REMARK    8  A    between atoms: N12_41  and  C13_43 
ROOT
HETATM    1  C13 UNL     1       9.422   3.118  24.860  1.00  0.00     0.247 C 
HETATM    2  C14 UNL     1      10.729   2.947  25.479  1.00  0.00     0.078 C 
HETATM    3  N13 UNL     1      11.769   2.820  25.990  1.00  0.00    -0.196 NA
ENDROOT
BRANCH   1   4
HETATM    4  N12 UNL     1       8.449   2.296  25.522  1.00  0.00    -0.345 N 
HETATM    5  C12 UNL     1       7.749   1.248  24.865  1.00  0.00     0.274 C 
HETATM    6  O3  UNL     1       8.010   1.050  23.650  1.00  0.00    -0.268 OA
ATOM      7  H12 UNL     1       8.251   2.471  26.508  1.00  0.00     0.163 HD
BRANCH   5   8
HETATM    8  C2  UNL     1       6.744   0.407  25.565  1.00  0.00     0.360 C 
BRANCH   8   9
HETATM    9  O1  UNL     1       6.116   1.074  26.586  1.00  0.00    -0.357 OA
HETATM   10  C1  UNL     1       6.495   0.659  27.853  1.00  0.00     0.205 C 
ENDBRANCH   8   9
BRANCH   8  11
HETATM   11  O2  UNL     1       5.763  -0.091  24.689  1.00  0.00    -0.293 OA
BRANCH  11  12
HETATM   12  C3  UNL     1       4.639   0.659  24.347  1.00  0.00     0.177 A 
HETATM   13  N1  UNL     1       3.778   1.006  25.326  1.00  0.00    -0.331 N 
HETATM   14  C4  UNL     1       2.694   1.731  24.981  1.00  0.00     0.184 A 
ATOM     15  H1  UNL     1       3.940   0.730  26.294  1.00  0.00     0.168 HD
HETATM   16  N2  UNL     1       2.496   2.088  23.702  1.00  0.00    -0.337 N 
HETATM   17  C5  UNL     1       3.339   1.757  22.701  1.00  0.00     0.139 A 
ATOM     18  H2  UNL     1       1.668   2.638  23.475  1.00  0.00     0.168 HD
HETATM   19  N3  UNL     1       3.081   2.150  21.420  1.00  0.00    -0.324 N 
HETATM   20  C11 UNL     1       4.449   1.017  23.028  1.00  0.00     0.129 A 
HETATM   21  C6  UNL     1       3.963   1.786  20.462  1.00  0.00     0.153 A 
ATOM     22  H3  UNL     1       2.251   2.699  21.193  1.00  0.00     0.169 HD
HETATM   23  N4  UNL     1       3.781   2.135  19.171  1.00  0.00    -0.174 N 
HETATM   24  C10 UNL     1       5.083   1.042  20.789  1.00  0.00     0.123 A 
HETATM   25  C7  UNL     1       4.669   1.763  18.236  1.00  0.00     0.679 A 
ATOM     26  H4  UNL     1       2.964   2.685  18.905  1.00  0.00     0.186 HD
HETATM   27  N6  UNL     1       5.762   1.040  18.536  1.00  0.00    -0.175 N 
HETATM   28  C8  UNL     1       5.993   0.667  19.800  1.00  0.00     0.150 A 
ATOM     29  H6  UNL     1       6.416   0.775  17.800  1.00  0.00     0.186 HD
HETATM   30  N11 UNL     1       5.333   0.655  22.059  1.00  0.00    -0.344 N 
ATOM     31  H11 UNL     1       6.163   0.107  22.286  1.00  0.00     0.166 HD
BRANCH  25  32
HETATM   32  N5  UNL     1       4.474   2.107  17.013  1.00  0.00    -0.234 N 
ATOM     33  H52 UNL     1       3.526   2.068  16.638  1.00  0.00     0.174 HD
ATOM     34  H51 UNL     1       5.267   2.410  16.448  1.00  0.00     0.174 HD
ENDBRANCH  25  32
BRANCH  28  35
HETATM   35  N7  UNL     1       7.019  -0.027  20.159  1.00  0.00    -0.333 N 
HETATM   36  C9  UNL     1       7.706  -0.878  19.227  1.00  0.00     0.397 C 
HETATM   37  N8  UNL     1       8.502  -0.175  18.265  1.00  0.00    -0.042 N 
HETATM   38  N9  UNL     1       8.576  -1.833  19.919  1.00  0.00    -0.093 NA
ATOM     39  H83 UNL     1       7.936   0.514  17.769  1.00  0.00     0.278 HD
ATOM     40  H82 UNL     1       9.161   0.447  18.734  1.00  0.00     0.278 HD
ATOM     41  H81 UNL     1       8.990  -0.779  17.604  1.00  0.00     0.278 HD
ATOM     42  H7  UNL     1       7.348   0.029  21.123  1.00  0.00     0.164 HD
BRANCH  38  43
HETATM   43  N10 UNL     1       9.239  -2.655  19.008  1.00  0.00    -0.345 N 
ATOM     44 2H10 UNL     1       8.829  -3.496  18.602  1.00  0.00     0.172 HD
ATOM     45 1H10 UNL     1      10.175  -2.300  18.811  1.00  0.00     0.172 HD
ENDBRANCH  38  43
ENDBRANCH  28  35
ENDBRANCH  11  12
ENDBRANCH   8  11
ENDBRANCH   5   8
ENDBRANCH   1   4
TORSDOF 8
ENDMDL
MODEL 2
REMARK VINA RESULT: -9.946569120      1.999      5.218
REMARK  8 active torsions:
REMARK  status: ('A' for Active; 'I' for Inactive)
REMARK    1  A    between atoms: O1_2  and  C2_3 
REMARK    2  A    between atoms: C2_3  and  O2_4 
REMARK    3  A    between atoms: C2_3  and  C12_39 
REMARK    4  A    between atoms: O2_4  and  C3_5 
REMARK    5  A    between atoms: C7_17  and  N5_18 
REMARK    6  A    between atoms: C8_23  and  N7_24 
REMARK       I    between atoms: N7_24  and  C9_26 
REMARK       I    between atoms: C9_26  and  N8_27 
REMARK       I    between atoms: C9_26  and  N9_31 
REMARK    7  A    between atoms: N9_31  and  N10_32 
REMARK       I    between atoms: C12_39  and  N12_41 
REMARK    8  A    between atoms: N12_41  and  C13_43 
ROOT
HETATM    1  C13 UNL     1       7.191  -0.225  19.175  1.00  0.00     0.247 C 
HETATM    2  C14 UNL     1       6.793   1.097  18.712  1.00  0.00     0.078 C 
HETATM    3  N13 UNL     1       6.460   2.155  18.355  1.00  0.00    -0.196 NA
ENDROOT
BRANCH   1   4
HETATM    4  N12 UNL     1       7.726  -0.145  20.505  1.00  0.00    -0.345 N 
HETATM    5  C12 UNL     1       6.916   0.096  21.648  1.00  0.00     0.274 C 
HETATM    6  O3  UNL     1       5.680   0.243  21.462  1.00  0.00    -0.268 OA
ATOM      7  H12 UNL     1       8.730  -0.267  20.636  1.00  0.00     0.163 HD
BRANCH   5   8
HETATM    8  C2  UNL     1       7.485   0.177  23.017  1.00  0.00     0.360 C 
BRANCH   8   9
HETATM    9  O1  UNL     1       7.777   1.464  23.393  1.00  0.00    -0.357 OA
HETATM   10  C1  UNL     1       9.109   1.673  23.717  1.00  0.00     0.205 C 
ENDBRANCH   8   9
BRANCH   8  11
HETATM   11  O2  UNL     1       6.632  -0.386  23.983  1.00  0.00    -0.293 OA
BRANCH  11  12
HETATM   12  C3  UNL     1       6.187   0.347  25.082  1.00  0.00     0.177 A 
HETATM   13  N1  UNL     1       6.928   0.327  26.209  1.00  0.00    -0.331 N 
HETATM   14  C4  UNL     1       6.485   1.040  27.265  1.00  0.00     0.184 A 
ATOM     15  H1  UNL     1       7.794  -0.209  26.262  1.00  0.00     0.168 HD
HETATM   16  N2  UNL     1       5.343   1.742  27.178  1.00  0.00    -0.337 N 
HETATM   17  C5  UNL     1       4.581   1.781  26.066  1.00  0.00     0.139 A 
ATOM     18  H2  UNL     1       5.037   2.271  27.994  1.00  0.00     0.168 HD
HETATM   19  N3  UNL     1       3.429   2.513  26.042  1.00  0.00    -0.324 N 
HETATM   20  C11 UNL     1       5.011   1.062  24.977  1.00  0.00     0.129 A 
HETATM   21  C6  UNL     1       2.709   2.512  24.897  1.00  0.00     0.153 A 
ATOM     22  H3  UNL     1       3.122   3.042  26.858  1.00  0.00     0.169 HD
HETATM   23  N4  UNL     1       1.558   3.211  24.791  1.00  0.00    -0.174 N 
HETATM   24  C10 UNL     1       3.141   1.789  23.800  1.00  0.00     0.123 A 
HETATM   25  C7  UNL     1       0.858   3.196  23.646  1.00  0.00     0.679 A 
ATOM     26  H4  UNL     1       1.219   3.753  25.586  1.00  0.00     0.186 HD
HETATM   27  N6  UNL     1       1.264   2.499  22.571  1.00  0.00    -0.175 N 
HETATM   28  C8  UNL     1       2.397   1.789  22.619  1.00  0.00     0.150 A 
ATOM     29  H6  UNL     1       0.706   2.510  21.716  1.00  0.00     0.186 HD
HETATM   30  N11 UNL     1       4.281   1.066  23.829  1.00  0.00    -0.344 N 
ATOM     31  H11 UNL     1       4.587   0.537  23.012  1.00  0.00     0.166 HD
BRANCH  25  32
HETATM   32  N5  UNL     1      -0.234   3.869  23.570  1.00  0.00    -0.234 N 
ATOM     33  H52 UNL     1      -1.090   3.458  23.941  1.00  0.00     0.174 HD
ATOM     34  H51 UNL     1      -0.220   4.794  23.141  1.00  0.00     0.174 HD
ENDBRANCH  25  32
BRANCH  28  35
HETATM   35  N7  UNL     1       2.844   1.098  21.627  1.00  0.00    -0.333 N 
HETATM   36  C9  UNL     1       2.969   1.670  20.315  1.00  0.00     0.397 C 
HETATM   37  N8  UNL     1       4.055   2.594  20.177  1.00  0.00    -0.042 N 
HETATM   38  N9  UNL     1       3.129   0.632  19.293  1.00  0.00    -0.093 NA
ATOM     39  H83 UNL     1       3.990   3.329  20.882  1.00  0.00     0.278 HD
ATOM     40  H82 UNL     1       4.932   2.158  20.461  1.00  0.00     0.278 HD
ATOM     41  H81 UNL     1       4.144   3.001  19.245  1.00  0.00     0.278 HD
ATOM     42  H7  UNL     1       3.114   0.125  21.776  1.00  0.00     0.164 HD
BRANCH  38  43
HETATM   43  N10 UNL     1       3.249   1.196  18.023  1.00  0.00    -0.345 N 
ATOM     44 2H10 UNL     1       3.266   2.201  17.849  1.00  0.00     0.172 HD
ATOM     45 1H10 UNL     1       3.315   0.472  17.307  1.00  0.00     0.172 HD
ENDBRANCH  38  43
ENDBRANCH  28  35
ENDBRANCH  11  12
ENDBRANCH   8  11
ENDBRANCH   5   8
ENDBRANCH   1   4
TORSDOF 8
ENDMDL
MODEL 3
REMARK VINA RESULT: -9.780964158      2.976      6.577
REMARK  8 active torsions:
REMARK  status: ('A' for Active; 'I' for Inactive)
REMARK    1  A    between atoms: O1_2  and  C2_3 
REMARK    2  A    between atoms: C2_3  and  O2_4 
REMARK    3  A    between atoms: C2_3  and  C12_39 
REMARK    4  A    between atoms: O2_4  and  C3_5 
REMARK    5  A    between atoms: C7_17  and  N5_18 
REMARK    6  A    between atoms: C8_23  and  N7_24 
REMARK       I    between atoms: N7_24  and  C9_26 
REMARK       I    between atoms: C9_26  and  N8_27 
REMARK       I    between atoms: C9_26  and  N9_31 
REMARK    7  A    between atoms: N9_31  and  N10_32 
REMARK       I    between atoms: C12_39  and  N12_41 
REMARK    8  A    between atoms: N12_41  and  C13_43 
ROOT
HETATM    1  C13 UNL     1      10.001   0.161  16.603  1.00  0.00     0.247 C 
HETATM    2  C14 UNL     1       9.847  -0.577  15.357  1.00  0.00     0.078 C 
HETATM    3  N13 UNL     1       9.725  -1.184  14.370  1.00  0.00    -0.196 NA
ENDROOT
BRANCH   1   4
HETATM    4  N12 UNL     1       8.831   0.004  17.421  1.00  0.00    -0.345 N 
HETATM    5  C12 UNL     1       8.780  -0.883  18.530  1.00  0.00     0.274 C 
HETATM    6  O3  UNL     1       9.816  -1.549  18.789  1.00  0.00    -0.268 OA
ATOM      7  H12 UNL     1       8.001   0.552  17.195  1.00  0.00     0.163 HD
BRANCH   5   8
HETATM    8  C2  UNL     1       7.561  -1.034  19.365  1.00  0.00     0.360 C 
BRANCH   8   9
HETATM    9  O1  UNL     1       7.850  -1.185  20.698  1.00  0.00    -0.357 OA
HETATM   10  C1  UNL     1       7.563  -0.071  21.471  1.00  0.00     0.205 C 
ENDBRANCH   8   9
BRANCH   8  11
HETATM   11  O2  UNL     1       6.678   0.050  19.222  1.00  0.00    -0.293 OA
BRANCH  11  12
HETATM   12  C3  UNL     1       5.392  -0.116  18.711  1.00  0.00     0.177 A 
HETATM   13  N1  UNL     1       5.254  -0.656  17.482  1.00  0.00    -0.331 N 
HETATM   14  C4  UNL     1       4.004  -0.811  17.001  1.00  0.00     0.184 A 
ATOM     15  H1  UNL     1       6.068  -0.938  16.935  1.00  0.00     0.168 HD
HETATM   16  N2  UNL     1       2.943  -0.437  17.734  1.00  0.00    -0.337 N 
HETATM   17  C5  UNL     1       3.049   0.106  18.965  1.00  0.00     0.139 A 
ATOM     18  H2  UNL     1       2.012  -0.569  17.341  1.00  0.00     0.168 HD
HETATM   19  N3  UNL     1       1.931   0.467  19.660  1.00  0.00    -0.324 N 
HETATM   20  C11 UNL     1       4.312   0.275  19.477  1.00  0.00     0.129 A 
HETATM   21  C6  UNL     1       2.103   1.005  20.888  1.00  0.00     0.153 A 
ATOM     22  H3  UNL     1       0.999   0.336  19.267  1.00  0.00     0.169 HD
HETATM   23  N4  UNL     1       1.049   1.388  21.641  1.00  0.00    -0.174 N 
HETATM   24  C10 UNL     1       3.374   1.175  21.406  1.00  0.00     0.123 A 
HETATM   25  C7  UNL     1       1.241   1.921  22.858  1.00  0.00     0.679 A 
ATOM     26  H4  UNL     1       0.101   1.272  21.282  1.00  0.00     0.186 HD
HETATM   27  N6  UNL     1       2.470   2.093  23.375  1.00  0.00    -0.175 N 
HETATM   28  C8  UNL     1       3.550   1.730  22.674  1.00  0.00     0.150 A 
ATOM     29  H6  UNL     1       2.579   2.501  24.304  1.00  0.00     0.186 HD
HETATM   30  N11 UNL     1       4.477   0.816  20.713  1.00  0.00    -0.344 N 
ATOM     31  H11 UNL     1       5.409   0.948  21.108  1.00  0.00     0.166 HD
BRANCH  25  32
HETATM   32  N5  UNL     1       0.222   2.278  23.554  1.00  0.00    -0.234 N 
ATOM     33  H52 UNL     1      -0.681   1.844  23.360  1.00  0.00     0.174 HD
ATOM     34  H51 UNL     1       0.339   2.984  24.281  1.00  0.00     0.174 HD
ENDBRANCH  25  32
BRANCH  28  35
HETATM   35  N7  UNL     1       4.757   1.868  23.108  1.00  0.00    -0.333 N 
HETATM   36  C9  UNL     1       5.141   1.388  24.407  1.00  0.00     0.397 C 
HETATM   37  N8  UNL     1       5.257  -0.037  24.497  1.00  0.00    -0.042 N 
HETATM   38  N9  UNL     1       6.416   1.971  24.835  1.00  0.00    -0.093 NA
ATOM     39  H83 UNL     1       4.392  -0.485  24.193  1.00  0.00     0.278 HD
ATOM     40  H82 UNL     1       5.896  -0.389  23.784  1.00  0.00     0.278 HD
ATOM     41  H81 UNL     1       5.530  -0.378  25.420  1.00  0.00     0.278 HD
ATOM     42  H7  UNL     1       5.451   2.326  22.518  1.00  0.00     0.164 HD
BRANCH  38  43
HETATM   43  N10 UNL     1       6.782   1.501  26.096  1.00  0.00    -0.345 N 
ATOM     44 2H10 UNL     1       6.899   0.513  26.319  1.00  0.00     0.172 HD
ATOM     45 1H10 UNL     1       6.910   2.273  26.750  1.00  0.00     0.172 HD
ENDBRANCH  38  43
ENDBRANCH  28  35
ENDBRANCH  11  12
ENDBRANCH   8  11
ENDBRANCH   5   8
ENDBRANCH   1   4
TORSDOF 8
ENDMDL
MODEL 4
REMARK VINA RESULT: -9.552911045      2.254      5.518
REMARK  8 active torsions:
REMARK  status: ('A' for Active; 'I' for Inactive)
REMARK    1  A    between atoms: O1_2  and  C2_3 
REMARK    2  A    between atoms: C2_3  and  O2_4 
REMARK    3  A    between atoms: C2_3  and  C12_39 
REMARK    4  A    between atoms: O2_4  and  C3_5 
REMARK    5  A    between atoms: C7_17  and  N5_18 
REMARK    6  A    between atoms: C8_23  and  N7_24 
REMARK       I    between atoms: N7_24  and  C9_26 
REMARK       I    between atoms: C9_26  and  N8_27 
REMARK       I    between atoms: C9_26  and  N9_31 
REMARK    7  A    between atoms: N9_31  and  N10_32 
REMARK       I    between atoms: C12_39  and  N12_41 
REMARK    8  A    between atoms: N12_41  and  C13_43 
ROOT
HETATM    1  C13 UNL     1       8.549   1.159  24.026  1.00  0.00     0.247 C 
HETATM    2  C14 UNL     1       9.110   2.427  24.472  1.00  0.00     0.078 C 
HETATM    3  N13 UNL     1       9.576   3.437  24.822  1.00  0.00    -0.196 NA
ENDROOT
BRANCH   1   4
HETATM    4  N12 UNL     1       8.476   1.126  22.592  1.00  0.00    -0.345 N 
HETATM    5  C12 UNL     1       7.561   0.301  21.886  1.00  0.00     0.274 C 
HETATM    6  O3  UNL     1       6.790  -0.425  22.567  1.00  0.00    -0.268 OA
ATOM      7  H12 UNL     1       9.109   1.721  22.057  1.00  0.00     0.163 HD
BRANCH   5   8
HETATM    8  C2  UNL     1       7.498   0.278  20.402  1.00  0.00     0.360 C 
BRANCH   8   9
HETATM    9  O1  UNL     1       7.092  -0.936  19.909  1.00  0.00    -0.357 OA
HETATM   10  C1  UNL     1       8.097  -1.661  19.287  1.00  0.00     0.205 C 
ENDBRANCH   8   9
BRANCH   8  11
HETATM   11  O2  UNL     1       6.647   1.273  19.889  1.00  0.00    -0.293 OA
BRANCH  11  12
HETATM   12  C3  UNL     1       5.441   0.955  19.267  1.00  0.00     0.177 A 
HETATM   13  N1  UNL     1       5.468   0.566  17.975  1.00  0.00    -0.331 N 
HETATM   14  C4  UNL     1       4.294   0.262  17.386  1.00  0.00     0.184 A 
ATOM     15  H1  UNL     1       6.348   0.504  17.461  1.00  0.00     0.168 HD
HETATM   16  N2  UNL     1       3.146   0.347  18.077  1.00  0.00    -0.337 N 
HETATM   17  C5  UNL     1       3.086   0.733  19.369  1.00  0.00     0.139 A 
ATOM     18  H2  UNL     1       2.276   0.109  17.602  1.00  0.00     0.168 HD
HETATM   19  N3  UNL     1       1.886   0.800  20.016  1.00  0.00    -0.324 N 
HETATM   20  C11 UNL     1       4.270   1.049  19.991  1.00  0.00     0.129 A 
HETATM   21  C6  UNL     1       1.893   1.193  21.310  1.00  0.00     0.153 A 
ATOM     22  H3  UNL     1       1.016   0.562  19.541  1.00  0.00     0.169 HD
HETATM   23  N4  UNL     1       0.749   1.285  22.021  1.00  0.00    -0.174 N 
HETATM   24  C10 UNL     1       3.084   1.511  21.938  1.00  0.00     0.123 A 
HETATM   25  C7  UNL     1       0.777   1.678  23.304  1.00  0.00     0.679 A 
ATOM     26  H4  UNL     1      -0.142   1.055  21.581  1.00  0.00     0.186 HD
HETATM   27  N6  UNL     1       1.926   1.991  23.930  1.00  0.00    -0.175 N 
HETATM   28  C8  UNL     1       3.089   1.916  23.273  1.00  0.00     0.150 A 
ATOM     29  H6  UNL     1       1.910   2.286  24.906  1.00  0.00     0.186 HD
HETATM   30  N11 UNL     1       4.269   1.443  21.292  1.00  0.00    -0.344 N 
ATOM     31  H11 UNL     1       5.139   1.681  21.769  1.00  0.00     0.166 HD
BRANCH  25  32
HETATM   32  N5  UNL     1      -0.325   1.759  23.960  1.00  0.00    -0.234 N 
ATOM     33  H52 UNL     1      -0.945   2.549  23.782  1.00  0.00     0.174 HD
ATOM     34  H51 UNL     1      -0.553   1.034  24.641  1.00  0.00     0.174 HD
ENDBRANCH  25  32
BRANCH  28  35
HETATM   35  N7  UNL     1       4.226   2.202  23.810  1.00  0.00    -0.333 N 
HETATM   36  C9  UNL     1       4.691   1.514  24.983  1.00  0.00     0.397 C 
HETATM   37  N8  UNL     1       5.128   0.171  24.742  1.00  0.00    -0.042 N 
HETATM   38  N9  UNL     1       5.794   2.237  25.624  1.00  0.00    -0.093 NA
ATOM     39  H83 UNL     1       4.393  -0.366  24.281  1.00  0.00     0.278 HD
ATOM     40  H82 UNL     1       5.840   0.153  24.011  1.00  0.00     0.278 HD
ATOM     41  H81 UNL     1       5.458  -0.319  25.574  1.00  0.00     0.278 HD
ATOM     42  H7  UNL     1       4.806   2.931  23.395  1.00  0.00     0.164 HD
BRANCH  38  43
HETATM   43  N10 UNL     1       6.239   1.562  26.761  1.00  0.00    -0.345 N 
ATOM     44 2H10 UNL     1       5.618   1.215  27.492  1.00  0.00     0.172 HD
ATOM     45 1H10 UNL     1       7.254   1.470  26.755  1.00  0.00     0.172 HD
ENDBRANCH  38  43
ENDBRANCH  28  35
ENDBRANCH  11  12
ENDBRANCH   8  11
ENDBRANCH   5   8
ENDBRANCH   1   4
TORSDOF 8
ENDMDL
MODEL 5
REMARK VINA RESULT: -9.482818184      2.937      6.330
REMARK  8 active torsions:
REMARK  status: ('A' for Active; 'I' for Inactive)
REMARK    1  A    between atoms: O1_2  and  C2_3 
REMARK    2  A    between atoms: C2_3  and  O2_4 
REMARK    3  A    between atoms: C2_3  and  C12_39 
REMARK    4  A    between atoms: O2_4  and  C3_5 
REMARK    5  A    between atoms: C7_17  and  N5_18 
REMARK    6  A    between atoms: C8_23  and  N7_24 
REMARK       I    between atoms: N7_24  and  C9_26 
REMARK       I    between atoms: C9_26  and  N8_27 
REMARK       I    between atoms: C9_26  and  N9_31 
REMARK    7  A    between atoms: N9_31  and  N10_32 
REMARK       I    between atoms: C12_39  and  N12_41 
REMARK    8  A    between atoms: N12_41  and  C13_43 
ROOT
HETATM    1  C13 UNL     1      10.850  -0.738  17.349  1.00  0.00     0.247 C 
HETATM    2  C14 UNL     1      12.107  -1.331  17.783  1.00  0.00     0.078 C 
HETATM    3  N13 UNL     1      13.116  -1.791  18.142  1.00  0.00    -0.196 NA
ENDROOT
BRANCH   1   4
HETATM    4  N12 UNL     1       9.894  -0.762  18.420  1.00  0.00    -0.345 N 
HETATM    5  C12 UNL     1       8.495  -0.886  18.202  1.00  0.00     0.274 C 
HETATM    6  O3  UNL     1       8.100  -0.977  17.011  1.00  0.00    -0.268 OA
ATOM      7  H12 UNL     1      10.233  -0.687  19.379  1.00  0.00     0.163 HD
BRANCH   5   8
HETATM    8  C2  UNL     1       7.519  -0.908  19.322  1.00  0.00     0.360 C 
BRANCH   8   9
HETATM    9  O1  UNL     1       8.125  -0.872  20.552  1.00  0.00    -0.357 OA
HETATM   10  C1  UNL     1       7.629   0.104  21.401  1.00  0.00     0.205 C 
ENDBRANCH   8   9
BRANCH   8  11
HETATM   11  O2  UNL     1       6.599   0.152  19.248  1.00  0.00    -0.293 OA
BRANCH  11  12
HETATM   12  C3  UNL     1       5.310  -0.031  18.750  1.00  0.00     0.177 A 
HETATM   13  N1  UNL     1       5.167  -0.565  17.519  1.00  0.00    -0.331 N 
HETATM   14  C4  UNL     1       3.915  -0.736  17.050  1.00  0.00     0.184 A 
ATOM     15  H1  UNL     1       5.979  -0.831  16.962  1.00  0.00     0.168 HD
HETATM   16  N2  UNL     1       2.856  -0.382  17.797  1.00  0.00    -0.337 N 
HETATM   17  C5  UNL     1       2.967   0.155  19.030  1.00  0.00     0.139 A 
ATOM     18  H2  UNL     1       1.923  -0.526  17.413  1.00  0.00     0.168 HD
HETATM   19  N3  UNL     1       1.851   0.495  19.739  1.00  0.00    -0.324 N 
HETATM   20  C11 UNL     1       4.233   0.340  19.529  1.00  0.00     0.129 A 
HETATM   21  C6  UNL     1       2.028   1.029  20.969  1.00  0.00     0.153 A 
ATOM     22  H3  UNL     1       0.917   0.352  19.355  1.00  0.00     0.169 HD
HETATM   23  N4  UNL     1       0.977   1.391  21.735  1.00  0.00    -0.174 N 
HETATM   24  C10 UNL     1       3.302   1.215  21.474  1.00  0.00     0.123 A 
HETATM   25  C7  UNL     1       1.174   1.919  22.953  1.00  0.00     0.679 A 
ATOM     26  H4  UNL     1       0.027   1.262  21.385  1.00  0.00     0.186 HD
HETATM   27  N6  UNL     1       2.406   2.107  23.458  1.00  0.00    -0.175 N 
HETATM   28  C8  UNL     1       3.484   1.765  22.743  1.00  0.00     0.150 A 
ATOM     29  H6  UNL     1       2.519   2.511  24.388  1.00  0.00     0.186 HD
HETATM   30  N11 UNL     1       4.403   0.876  20.767  1.00  0.00    -0.344 N 
ATOM     31  H11 UNL     1       5.337   1.019  21.152  1.00  0.00     0.166 HD
BRANCH  25  32
HETATM   32  N5  UNL     1       0.158   2.257  23.662  1.00  0.00    -0.234 N 
ATOM     33  H52 UNL     1      -0.756   2.319  23.212  1.00  0.00     0.174 HD
ATOM     34  H51 UNL     1       0.287   2.455  24.654  1.00  0.00     0.174 HD
ENDBRANCH  25  32
BRANCH  28  35
HETATM   35  N7  UNL     1       4.693   1.918  23.165  1.00  0.00    -0.333 N 
HETATM   36  C9  UNL     1       5.107   1.407  24.443  1.00  0.00     0.397 C 
HETATM   37  N8  UNL     1       5.258  -0.017  24.486  1.00  0.00    -0.042 N 
HETATM   38  N9  UNL     1       6.373   2.007  24.872  1.00  0.00    -0.093 NA
ATOM     39  H83 UNL     1       4.400  -0.476  24.179  1.00  0.00     0.278 HD
ATOM     40  H82 UNL     1       5.895  -0.330  23.753  1.00  0.00     0.278 HD
ATOM     41  H81 UNL     1       5.552  -0.380  25.393  1.00  0.00     0.278 HD
ATOM     42  H7  UNL     1       5.368   2.411  22.581  1.00  0.00     0.164 HD
BRANCH  38  43
HETATM   43  N10 UNL     1       6.768   1.506  26.113  1.00  0.00    -0.345 N 
ATOM     44 2H10 UNL     1       7.398   1.998  26.747  1.00  0.00     0.172 HD
ATOM     45 1H10 UNL     1       6.344   0.595  26.289  1.00  0.00     0.172 HD
ENDBRANCH  38  43
ENDBRANCH  28  35
ENDBRANCH  11  12
ENDBRANCH   8  11
ENDBRANCH   5   8
ENDBRANCH   1   4
TORSDOF 8
ENDMDL
