MODEL 1
REMARK VINA RESULT: -7.102642181      0.000      0.000
REMARK  18 active torsions:
REMARK  status: ('A' for Active; 'I' for Inactive)
REMARK    1  A    between atoms: N1_4  and  O1_5 
REMARK    2  A    between atoms: O1_5  and  C4_6 
REMARK    3  A    between atoms: C4_6  and  O2_7 
REMARK    4  A    between atoms: C4_6  and  N2_9 
REMARK    5  A    between atoms: N2_9  and  O3_11 
REMARK    6  A    between atoms: O3_11  and  C5_12 
REMARK    7  A    between atoms: C5_12  and  C6_13 
REMARK    8  A    between atoms: C9_21  and  O5_22 
REMARK    9  A    between atoms: C10_24  and  N5_25 
REMARK   10  A    between atoms: C11_30  and  S1_31 
REMARK   11  A    between atoms: S1_31  and  C12_32 
REMARK   12  A    between atoms: C14_36  and  N9_37 
REMARK   13  A    between atoms: N10_40  and  C15_41 
REMARK   14  A    between atoms: C15_41  and  O6_42 
REMARK   15  A    between atoms: N12_46  and  O7_47 
REMARK   16  A    between atoms: N13_49  and  O8_50 
REMARK   17  A    between atoms: O8_50  and  S2_51 
REMARK   18  A    between atoms: S2_51  and  N14_52 
ROOT
HETATM    1  C1  UNL     1      10.635  45.507   8.302  1.00  0.00     0.067 C 
HETATM    2  C2  UNL     1       9.396  45.921   7.542  1.00  0.00     0.151 C 
HETATM    3  C3  UNL     1       8.331  46.106   8.560  1.00  0.00     0.067 C 
HETATM    4  N1  UNL     1       9.860  47.198   6.908  1.00  0.00    -0.206 N 
HETATM    5  C7  UNL     1      10.257  46.883   5.605  1.00  0.00     0.152 C 
HETATM    6  N4  UNL     1      10.750  47.669   4.724  1.00  0.00    -0.384 N 
ATOM      7  H41 UNL     1      11.040  47.440   3.774  1.00  0.00     0.157 HD
ATOM      8  H42 UNL     1      10.916  48.670   4.836  1.00  0.00     0.157 HD
HETATM    9  C8  UNL     1      10.016  45.429   5.442  1.00  0.00     0.226 C 
HETATM   10  C9  UNL     1       9.833  44.918   4.056  1.00  0.00     0.216 C 
HETATM   11  C10 UNL     1      11.224  44.395   4.162  1.00  0.00     0.264 C 
HETATM   12  N12 UNL     1      11.155  44.566   5.596  1.00  0.00    -0.128 NA
HETATM   13  N13 UNL     1       9.038  45.201   6.410  1.00  0.00    -0.207 N 
ENDROOT
BRANCH  10  14
HETATM   14  O5  UNL     1       9.798  45.928   3.087  1.00  0.00    -0.387 OA
ATOM     15  H5  UNL     1      10.503  45.872   2.453  1.00  0.00     0.210 HD
ENDBRANCH  10  14
BRANCH  12  16
HETATM   16  O7  UNL     1      10.852  43.348   6.125  1.00  0.00    -0.308 OA
ATOM     17  H7  UNL     1       9.931  43.241   6.335  1.00  0.00     0.237 HD
ENDBRANCH  12  16
BRANCH  13  18
HETATM   18  O8  UNL     1       7.959  44.584   6.243  1.00  0.00    -0.132 OA
BRANCH  18  19
HETATM   19  S2  UNL     1       7.643  43.043   6.579  1.00  0.00     0.376 S 
HETATM   20  O9  UNL     1       6.245  42.558   6.346  1.00  0.00    -0.174 OA
HETATM   21  O10 UNL     1       8.512  42.045   5.806  1.00  0.00    -0.174 OA
BRANCH  19  22
HETATM   22  N14 UNL     1       7.986  42.616   8.251  1.00  0.00    -0.304 N 
ATOM     23 2H14 UNL     1       7.753  43.228   9.034  1.00  0.00     0.171 HD
ATOM     24 1H14 UNL     1       8.435  41.705   8.348  1.00  0.00     0.171 HD
ENDBRANCH  19  22
ENDBRANCH  18  19
ENDBRANCH  13  18
BRANCH   4  25
HETATM   25  O1  UNL     1       9.847  48.307   7.590  1.00  0.00    -0.219 OA
BRANCH  25  26
HETATM   26  C4  UNL     1       8.903  49.258   7.352  1.00  0.00     0.415 C 
BRANCH  26  27
HETATM   27  O2  UNL     1       8.334  49.890   8.471  1.00  0.00    -0.352 OA
ATOM     28  H2  UNL     1       7.922  49.332   9.120  1.00  0.00     0.214 HD
ENDBRANCH  26  27
BRANCH  26  29
HETATM   29  N2  UNL     1       9.430  50.220   6.508  1.00  0.00    -0.248 N 
ATOM     30  H2  UNL     1       9.893  51.041   6.896  1.00  0.00     0.193 HD
BRANCH  29  31
HETATM   31  O3  UNL     1       9.331  50.070   5.185  1.00  0.00    -0.272 OA
BRANCH  31  32
HETATM   32  C5  UNL     1      10.169  51.136   4.725  1.00  0.00     0.300 C 
BRANCH  32  33
HETATM   33  C6  UNL     1      10.804  50.458   3.496  1.00  0.00     0.257 C 
HETATM   34  N3  UNL     1      12.208  50.337   3.609  1.00  0.00    -0.060 NA
HETATM   35  O4  UNL     1      10.081  50.134   2.587  1.00  0.00    -0.274 OA
ENDBRANCH  32  33
ENDBRANCH  31  32
ENDBRANCH  29  31
ENDBRANCH  26  29
ENDBRANCH  25  26
ENDBRANCH   4  25
BRANCH  11  36
HETATM   36  N5  UNL     1      11.493  43.031   3.705  1.00  0.00    -0.194 N 
HETATM   37  N6  UNL     1      12.377  42.392   3.330  1.00  0.00    -0.222 N 
HETATM   38  N7  UNL     1      12.167  41.201   2.871  1.00  0.00    -0.263 N 
ATOM     39  H6  UNL     1      13.326  42.766   3.360  1.00  0.00     0.210 HD
HETATM   40  C11 UNL     1      10.848  41.070   3.011  1.00  0.00     0.182 A 
ATOM     41  H7  UNL     1      12.840  40.532   2.497  1.00  0.00     0.190 HD
HETATM   42  N11 UNL     1      10.299  42.198   3.568  1.00  0.00    -0.259 N 
ATOM     43  H11 UNL     1       9.330  42.400   3.817  1.00  0.00     0.191 HD
BRANCH  40  44
HETATM   44  S1  UNL     1       9.855  39.723   2.289  1.00  0.00    -0.031 SA
BRANCH  44  45
HETATM   45  C12 UNL     1       8.449  39.467   3.425  1.00  0.00     0.114 A 
HETATM   46  C13 UNL     1       8.370  38.413   4.288  1.00  0.00     0.144 A 
HETATM   47  N8  UNL     1       7.195  38.504   4.890  1.00  0.00    -0.199 N 
HETATM   48  C14 UNL     1       6.551  39.550   4.427  1.00  0.00     0.680 A 
ATOM     49  H8  UNL     1       6.845  37.862   5.602  1.00  0.00     0.183 HD
HETATM   50  N10 UNL     1       7.316  40.129   3.520  1.00  0.00    -0.154 N 
BRANCH  48  51
HETATM   51  N9  UNL     1       5.319  39.961   4.697  1.00  0.00    -0.234 N 
ATOM     52  H92 UNL     1       4.519  39.739   4.105  1.00  0.00     0.174 HD
ATOM     53  H91 UNL     1       4.975  40.466   5.515  1.00  0.00     0.174 HD
ENDBRANCH  48  51
BRANCH  50  54
HETATM   54  C15 UNL     1       6.921  41.258   2.670  1.00  0.00     0.315 C 
BRANCH  54  55
HETATM   55  O6  UNL     1       6.478  42.353   3.404  1.00  0.00    -0.381 OA
ATOM     56  H6  UNL     1       5.950  42.102   4.153  1.00  0.00     0.211 HD
ENDBRANCH  54  55
ENDBRANCH  50  54
ENDBRANCH  44  45
ENDBRANCH  40  44
ENDBRANCH  11  36
TORSDOF 18
ENDMDL
MODEL 2
REMARK VINA RESULT: -7.084352697      1.979      3.569
REMARK  18 active torsions:
REMARK  status: ('A' for Active; 'I' for Inactive)
REMARK    1  A    between atoms: N1_4  and  O1_5 
REMARK    2  A    between atoms: O1_5  and  C4_6 
REMARK    3  A    between atoms: C4_6  and  O2_7 
REMARK    4  A    between atoms: C4_6  and  N2_9 
REMARK    5  A    between atoms: N2_9  and  O3_11 
REMARK    6  A    between atoms: O3_11  and  C5_12 
REMARK    7  A    between atoms: C5_12  and  C6_13 
REMARK    8  A    between atoms: C9_21  and  O5_22 
REMARK    9  A    between atoms: C10_24  and  N5_25 
REMARK   10  A    between atoms: C11_30  and  S1_31 
REMARK   11  A    between atoms: S1_31  and  C12_32 
REMARK   12  A    between atoms: C14_36  and  N9_37 
REMARK   13  A    between atoms: N10_40  and  C15_41 
REMARK   14  A    between atoms: C15_41  and  O6_42 
REMARK   15  A    between atoms: N12_46  and  O7_47 
REMARK   16  A    between atoms: N13_49  and  O8_50 
REMARK   17  A    between atoms: O8_50  and  S2_51 
REMARK   18  A    between atoms: S2_51  and  N14_52 
ROOT
HETATM    1  C1  UNL     1       8.929  46.673   3.777  1.00  0.00     0.067 C 
HETATM    2  C2  UNL     1      10.362  46.555   4.244  1.00  0.00     0.151 C 
HETATM    3  C3  UNL     1      11.203  47.030   3.116  1.00  0.00     0.067 C 
HETATM    4  N1  UNL     1      10.356  47.474   5.428  1.00  0.00    -0.206 N 
HETATM    5  C7  UNL     1      10.179  46.675   6.561  1.00  0.00     0.152 C 
HETATM    6  N4  UNL     1      10.081  47.054   7.780  1.00  0.00    -0.384 N 
ATOM      7  H41 UNL     1       9.952  46.471   8.606  1.00  0.00     0.157 HD
ATOM      8  H42 UNL     1      10.138  48.015   8.118  1.00  0.00     0.157 HD
HETATM    9  C8  UNL     1      10.097  45.278   6.070  1.00  0.00     0.226 C 
HETATM   10  C9  UNL     1      10.441  44.195   7.033  1.00  0.00     0.216 C 
HETATM   11  C10 UNL     1       8.976  43.950   7.141  1.00  0.00     0.264 C 
HETATM   12  N12 UNL     1       8.780  44.719   5.932  1.00  0.00    -0.128 NA
HETATM   13  N13 UNL     1      10.768  45.375   4.852  1.00  0.00    -0.207 N 
ENDROOT
BRANCH  10  14
HETATM   14  O5  UNL     1      10.916  44.668   8.262  1.00  0.00    -0.387 OA
ATOM     15  H5  UNL     1      11.727  44.259   8.539  1.00  0.00     0.210 HD
ENDBRANCH  10  14
BRANCH  12  16
HETATM   16  O7  UNL     1       8.669  43.827   4.909  1.00  0.00    -0.308 OA
ATOM     17  H7  UNL     1       8.589  42.924   5.196  1.00  0.00     0.237 HD
ENDBRANCH  12  16
BRANCH  13  18
HETATM   18  O8  UNL     1      11.681  44.616   4.446  1.00  0.00    -0.132 OA
BRANCH  18  19
HETATM   19  S2  UNL     1      11.538  43.310   3.519  1.00  0.00     0.376 S 
HETATM   20  O9  UNL     1      10.518  43.349   2.422  1.00  0.00    -0.174 OA
HETATM   21  O10 UNL     1      12.832  42.907   2.804  1.00  0.00    -0.174 OA
BRANCH  19  22
HETATM   22  N14 UNL     1      11.150  41.854   4.430  1.00  0.00    -0.304 N 
ATOM     23 2H14 UNL     1      10.588  41.872   5.281  1.00  0.00     0.171 HD
ATOM     24 1H14 UNL     1      11.543  41.008   4.018  1.00  0.00     0.171 HD
ENDBRANCH  19  22
ENDBRANCH  18  19
ENDBRANCH  13  18
BRANCH   4  25
HETATM   25  O1  UNL     1      10.489  48.758   5.257  1.00  0.00    -0.219 OA
BRANCH  25  26
HETATM   26  C4  UNL     1       9.462  49.606   5.533  1.00  0.00     0.415 C 
BRANCH  26  27
HETATM   27  O2  UNL     1       9.165  49.834   6.888  1.00  0.00    -0.352 OA
ATOM     28  H2  UNL     1       9.614  50.554   7.315  1.00  0.00     0.214 HD
ENDBRANCH  26  27
BRANCH  26  29
HETATM   29  N2  UNL     1       9.696  50.820   4.911  1.00  0.00    -0.248 N 
ATOM     30  H2  UNL     1       8.914  51.432   4.675  1.00  0.00     0.193 HD
BRANCH  29  31
HETATM   31  O3  UNL     1      10.946  51.189   4.621  1.00  0.00    -0.272 OA
BRANCH  31  32
HETATM   32  C5  UNL     1      10.807  51.575   3.249  1.00  0.00     0.300 C 
BRANCH  32  33
HETATM   33  C6  UNL     1      11.773  50.570   2.595  1.00  0.00     0.257 C 
HETATM   34  N3  UNL     1      12.851  50.224   3.441  1.00  0.00    -0.060 NA
HETATM   35  O4  UNL     1      11.544  50.211   1.467  1.00  0.00    -0.274 OA
ENDBRANCH  32  33
ENDBRANCH  31  32
ENDBRANCH  29  31
ENDBRANCH  26  29
ENDBRANCH  25  26
ENDBRANCH   4  25
BRANCH  11  36
HETATM   36  N5  UNL     1       8.493  42.570   7.090  1.00  0.00    -0.194 N 
HETATM   37  N6  UNL     1       8.904  41.494   7.170  1.00  0.00    -0.222 N 
HETATM   38  N7  UNL     1       8.133  40.487   6.923  1.00  0.00    -0.263 N 
ATOM     39  H6  UNL     1       9.877  41.339   7.435  1.00  0.00     0.210 HD
HETATM   40  C11 UNL     1       6.972  41.077   6.641  1.00  0.00     0.182 A 
ATOM     41  H7  UNL     1       8.357  39.492   6.940  1.00  0.00     0.190 HD
HETATM   42  N11 UNL     1       7.079  42.442   6.740  1.00  0.00    -0.259 N 
ATOM     43  H11 UNL     1       6.371  43.165   6.606  1.00  0.00     0.191 HD
BRANCH  40  44
HETATM   44  S1  UNL     1       5.524  40.234   5.924  1.00  0.00    -0.031 SA
BRANCH  44  45
HETATM   45  C12 UNL     1       6.062  39.603   4.297  1.00  0.00     0.114 A 
HETATM   46  C13 UNL     1       6.262  38.278   4.041  1.00  0.00     0.144 A 
HETATM   47  N8  UNL     1       6.717  38.197   2.801  1.00  0.00    -0.199 N 
HETATM   48  C14 UNL     1       6.818  39.404   2.297  1.00  0.00     0.680 A 
ATOM     49  H8  UNL     1       6.954  37.332   2.314  1.00  0.00     0.183 HD
HETATM   50  N10 UNL     1       6.429  40.264   3.221  1.00  0.00    -0.154 N 
BRANCH  48  51
HETATM   51  N9  UNL     1       7.301  39.783   1.121  1.00  0.00    -0.234 N 
ATOM     52  H92 UNL     1       8.252  39.571   0.819  1.00  0.00     0.174 HD
ATOM     53  H91 UNL     1       6.823  40.247   0.348  1.00  0.00     0.174 HD
ENDBRANCH  48  51
BRANCH  50  54
HETATM   54  C15 UNL     1       6.504  41.725   3.108  1.00  0.00     0.315 C 
BRANCH  54  55
HETATM   55  O6  UNL     1       7.771  42.170   2.746  1.00  0.00    -0.381 OA
ATOM     56  H6  UNL     1       8.018  41.899   1.870  1.00  0.00     0.211 HD
ENDBRANCH  54  55
ENDBRANCH  50  54
ENDBRANCH  44  45
ENDBRANCH  40  44
ENDBRANCH  11  36
TORSDOF 18
ENDMDL
MODEL 3
REMARK VINA RESULT: -6.822052256      7.958     11.823
REMARK  18 active torsions:
REMARK  status: ('A' for Active; 'I' for Inactive)
REMARK    1  A    between atoms: N1_4  and  O1_5 
REMARK    2  A    between atoms: O1_5  and  C4_6 
REMARK    3  A    between atoms: C4_6  and  O2_7 
REMARK    4  A    between atoms: C4_6  and  N2_9 
REMARK    5  A    between atoms: N2_9  and  O3_11 
REMARK    6  A    between atoms: O3_11  and  C5_12 
REMARK    7  A    between atoms: C5_12  and  C6_13 
REMARK    8  A    between atoms: C9_21  and  O5_22 
REMARK    9  A    between atoms: C10_24  and  N5_25 
REMARK   10  A    between atoms: C11_30  and  S1_31 
REMARK   11  A    between atoms: S1_31  and  C12_32 
REMARK   12  A    between atoms: C14_36  and  N9_37 
REMARK   13  A    between atoms: N10_40  and  C15_41 
REMARK   14  A    between atoms: C15_41  and  O6_42 
REMARK   15  A    between atoms: N12_46  and  O7_47 
REMARK   16  A    between atoms: N13_49  and  O8_50 
REMARK   17  A    between atoms: O8_50  and  S2_51 
REMARK   18  A    between atoms: S2_51  and  N14_52 
ROOT
HETATM    1  C1  UNL     1       9.144  41.174  -2.845  1.00  0.00     0.067 C 
HETATM    2  C2  UNL     1      10.275  41.623  -3.742  1.00  0.00     0.151 C 
HETATM    3  C3  UNL     1      11.294  40.544  -3.692  1.00  0.00     0.067 C 
HETATM    4  N1  UNL     1       9.570  41.733  -5.060  1.00  0.00    -0.206 N 
HETATM    5  C7  UNL     1       9.230  43.079  -5.227  1.00  0.00     0.152 C 
HETATM    6  N4  UNL     1       8.589  43.611  -6.198  1.00  0.00    -0.384 N 
ATOM      7  H41 UNL     1       8.340  44.592  -6.320  1.00  0.00     0.157 HD
ATOM      8  H42 UNL     1       8.237  43.126  -7.024  1.00  0.00     0.157 HD
HETATM    9  C8  UNL     1       9.742  43.784  -4.027  1.00  0.00     0.226 C 
HETATM   10  C9  UNL     1      10.008  45.243  -4.154  1.00  0.00     0.216 C 
HETATM   11  C10 UNL     1       8.743  45.447  -3.393  1.00  0.00     0.264 C 
HETATM   12  N12 UNL     1       8.789  44.061  -2.987  1.00  0.00    -0.128 NA
HETATM   13  N13 UNL     1      10.753  42.919  -3.610  1.00  0.00    -0.207 N 
ENDROOT
BRANCH  10  14
HETATM   14  O5  UNL     1       9.841  45.732  -5.456  1.00  0.00    -0.387 OA
ATOM     15  H5  UNL     1       8.939  45.724  -5.753  1.00  0.00     0.210 HD
ENDBRANCH  10  14
BRANCH  12  16
HETATM   16  O7  UNL     1       9.324  44.034  -1.734  1.00  0.00    -0.308 OA
ATOM     17  H7  UNL     1      10.096  43.485  -1.660  1.00  0.00     0.237 HD
ENDBRANCH  12  16
BRANCH  13  18
HETATM   18  O8  UNL     1      11.929  43.241  -3.314  1.00  0.00    -0.132 OA
BRANCH  18  19
HETATM   19  S2  UNL     1      13.163  43.495  -4.314  1.00  0.00     0.376 S 
HETATM   20  O9  UNL     1      14.309  44.313  -3.805  1.00  0.00    -0.174 OA
HETATM   21  O10 UNL     1      13.825  42.212  -4.826  1.00  0.00    -0.174 OA
BRANCH  19  22
HETATM   22  N14 UNL     1      12.687  44.288  -5.812  1.00  0.00    -0.304 N 
ATOM     23 2H14 UNL     1      13.090  45.174  -6.117  1.00  0.00     0.171 HD
ATOM     24 1H14 UNL     1      11.976  43.772  -6.330  1.00  0.00     0.171 HD
ENDBRANCH  19  22
ENDBRANCH  18  19
ENDBRANCH  13  18
BRANCH   4  25
HETATM   25  O1  UNL     1       9.379  40.671  -5.788  1.00  0.00    -0.219 OA
BRANCH  25  26
HETATM   26  C4  UNL     1       9.885  40.590  -7.048  1.00  0.00     0.415 C 
BRANCH  26  27
HETATM   27  O2  UNL     1       9.227  41.321  -8.052  1.00  0.00    -0.352 OA
ATOM     28  H2  UNL     1       9.326  42.266  -8.036  1.00  0.00     0.214 HD
ENDBRANCH  26  27
BRANCH  26  29
HETATM   29  N2  UNL     1      11.220  40.953  -7.026  1.00  0.00    -0.248 N 
ATOM     30  H2  UNL     1      11.887  40.413  -6.474  1.00  0.00     0.193 HD
BRANCH  29  31
HETATM   31  O3  UNL     1      11.634  42.011  -7.729  1.00  0.00    -0.272 OA
BRANCH  31  32
HETATM   32  C5  UNL     1      12.912  41.554  -8.184  1.00  0.00     0.300 C 
BRANCH  32  33
HETATM   33  C6  UNL     1      13.531  42.896  -8.616  1.00  0.00     0.257 C 
HETATM   34  N3  UNL     1      14.941  42.902  -8.512  1.00  0.00    -0.060 NA
HETATM   35  O4  UNL     1      12.789  43.781  -8.961  1.00  0.00    -0.274 OA
ENDBRANCH  32  33
ENDBRANCH  31  32
ENDBRANCH  29  31
ENDBRANCH  26  29
ENDBRANCH  25  26
ENDBRANCH   4  25
BRANCH  11  36
HETATM   36  N5  UNL     1       8.734  46.421  -2.302  1.00  0.00    -0.194 N 
HETATM   37  N6  UNL     1       8.022  47.192  -1.821  1.00  0.00    -0.222 N 
HETATM   38  N7  UNL     1       8.460  47.996  -0.908  1.00  0.00    -0.263 N 
ATOM     39  H6  UNL     1       7.047  47.238  -2.115  1.00  0.00     0.210 HD
HETATM   40  C11 UNL     1       9.734  47.625  -0.787  1.00  0.00     0.182 A 
ATOM     41  H7  UNL     1       7.957  48.729  -0.408  1.00  0.00     0.190 HD
HETATM   42  N11 UNL     1      10.025  46.585  -1.635  1.00  0.00    -0.259 N 
ATOM     43  H11 UNL     1      10.897  46.071  -1.764  1.00  0.00     0.191 HD
BRANCH  40  44
HETATM   44  S1  UNL     1      11.004  48.552   0.135  1.00  0.00    -0.031 SA
BRANCH  44  45
HETATM   45  C12 UNL     1      10.419  48.626   1.863  1.00  0.00     0.114 A 
HETATM   46  C13 UNL     1       9.470  47.784   2.366  1.00  0.00     0.144 A 
HETATM   47  N8  UNL     1       9.241  48.173   3.610  1.00  0.00    -0.199 N 
HETATM   48  C14 UNL     1       9.991  49.214   3.884  1.00  0.00     0.680 A 
ATOM     49  H8  UNL     1       8.584  47.732   4.255  1.00  0.00     0.183 HD
HETATM   50  N10 UNL     1      10.701  49.497   2.807  1.00  0.00    -0.154 N 
BRANCH  48  51
HETATM   51  N9  UNL     1      10.020  49.959   4.981  1.00  0.00    -0.234 N 
ATOM     52  H92 UNL     1       9.188  50.403   5.371  1.00  0.00     0.174 HD
ATOM     53  H91 UNL     1      10.799  50.142   5.614  1.00  0.00     0.174 HD
ENDBRANCH  48  51
BRANCH  50  54
HETATM   54  C15 UNL     1      11.576  50.665   2.649  1.00  0.00     0.315 C 
BRANCH  54  55
HETATM   55  O6  UNL     1      12.569  50.728   3.620  1.00  0.00    -0.381 OA
ATOM     56  H6  UNL     1      13.226  51.387   3.431  1.00  0.00     0.211 HD
ENDBRANCH  54  55
ENDBRANCH  50  54
ENDBRANCH  44  45
ENDBRANCH  40  44
ENDBRANCH  11  36
TORSDOF 18
ENDMDL
MODEL 4
REMARK VINA RESULT: -6.561772809     12.214     15.098
REMARK  18 active torsions:
REMARK  status: ('A' for Active; 'I' for Inactive)
REMARK    1  A    between atoms: N1_4  and  O1_5 
REMARK    2  A    between atoms: O1_5  and  C4_6 
REMARK    3  A    between atoms: C4_6  and  O2_7 
REMARK    4  A    between atoms: C4_6  and  N2_9 
REMARK    5  A    between atoms: N2_9  and  O3_11 
REMARK    6  A    between atoms: O3_11  and  C5_12 
REMARK    7  A    between atoms: C5_12  and  C6_13 
REMARK    8  A    between atoms: C9_21  and  O5_22 
REMARK    9  A    between atoms: C10_24  and  N5_25 
REMARK   10  A    between atoms: C11_30  and  S1_31 
REMARK   11  A    between atoms: S1_31  and  C12_32 
REMARK   12  A    between atoms: C14_36  and  N9_37 
REMARK   13  A    between atoms: N10_40  and  C15_41 
REMARK   14  A    between atoms: C15_41  and  O6_42 
REMARK   15  A    between atoms: N12_46  and  O7_47 
REMARK   16  A    between atoms: N13_49  and  O8_50 
REMARK   17  A    between atoms: O8_50  and  S2_51 
REMARK   18  A    between atoms: S2_51  and  N14_52 
ROOT
HETATM    1  C1  UNL     1       9.277  41.684  -9.685  1.00  0.00     0.067 C 
HETATM    2  C2  UNL     1      10.427  42.425 -10.327  1.00  0.00     0.151 C 
HETATM    3  C3  UNL     1      11.110  41.442 -11.206  1.00  0.00     0.067 C 
HETATM    4  N1  UNL     1       9.696  43.502 -11.072  1.00  0.00    -0.206 N 
HETATM    5  C7  UNL     1       9.730  44.645 -10.267  1.00  0.00     0.152 C 
HETATM    6  N4  UNL     1       9.198  45.785 -10.503  1.00  0.00    -0.384 N 
ATOM      7  H41 UNL     1       9.222  46.619  -9.917  1.00  0.00     0.157 HD
ATOM      8  H42 UNL     1       8.674  46.043 -11.340  1.00  0.00     0.157 HD
HETATM    9  C8  UNL     1      10.492  44.271  -9.052  1.00  0.00     0.226 C 
HETATM   10  C9  UNL     1      11.141  45.371  -8.287  1.00  0.00     0.216 C 
HETATM   11  C10 UNL     1      10.033  45.217  -7.303  1.00  0.00     0.264 C 
HETATM   12  N12 UNL     1       9.722  43.932  -7.887  1.00  0.00    -0.128 NA
HETATM   13  N13 UNL     1      11.251  43.200  -9.522  1.00  0.00    -0.207 N 
ENDROOT
BRANCH  10  14
HETATM   14  O5  UNL     1      11.032  46.623  -8.905  1.00  0.00    -0.387 OA
ATOM     15  H5  UNL     1      11.779  47.189  -8.752  1.00  0.00     0.210 HD
ENDBRANCH  10  14
BRANCH  12  16
HETATM   16  O7  UNL     1      10.308  42.987  -7.099  1.00  0.00    -0.308 OA
ATOM     17  H7  UNL     1      11.203  43.195  -6.855  1.00  0.00     0.237 HD
ENDBRANCH  12  16
BRANCH  13  18
HETATM   18  O8  UNL     1      12.487  43.044  -9.371  1.00  0.00    -0.132 OA
BRANCH  18  19
HETATM   19  S2  UNL     1      13.257  42.474  -8.079  1.00  0.00     0.376 S 
HETATM   20  O9  UNL     1      13.298  43.342  -6.860  1.00  0.00    -0.174 OA
HETATM   21  O10 UNL     1      12.707  41.140  -7.563  1.00  0.00    -0.174 OA
BRANCH  19  22
HETATM   22  N14 UNL     1      14.943  42.079  -8.397  1.00  0.00    -0.304 N 
ATOM     23 2H14 UNL     1      15.317  41.989  -9.342  1.00  0.00     0.171 HD
ATOM     24 1H14 UNL     1      15.492  41.954  -7.547  1.00  0.00     0.171 HD
ENDBRANCH  19  22
ENDBRANCH  18  19
ENDBRANCH  13  18
BRANCH   4  25
HETATM   25  O1  UNL     1       9.173  43.250 -12.236  1.00  0.00    -0.219 OA
BRANCH  25  26
HETATM   26  C4  UNL     1       9.582  43.924 -13.344  1.00  0.00     0.415 C 
BRANCH  26  27
HETATM   27  O2  UNL     1      10.058  43.158 -14.423  1.00  0.00    -0.352 OA
ATOM     28  H2  UNL     1      10.941  42.816 -14.355  1.00  0.00     0.214 HD
ENDBRANCH  26  27
BRANCH  26  29
HETATM   29  N2  UNL     1       8.555  44.739 -13.786  1.00  0.00    -0.248 N 
ATOM     30  H2  UNL     1       7.863  44.378 -14.443  1.00  0.00     0.193 HD
BRANCH  29  31
HETATM   31  O3  UNL     1       8.471  45.999 -13.350  1.00  0.00    -0.272 OA
BRANCH  31  32
HETATM   32  C5  UNL     1       8.571  46.722 -14.582  1.00  0.00     0.300 C 
BRANCH  32  33
HETATM   33  C6  UNL     1       9.501  47.866 -14.139  1.00  0.00     0.257 C 
HETATM   34  N3  UNL     1      10.412  47.467 -13.134  1.00  0.00    -0.060 NA
HETATM   35  O4  UNL     1       9.355  48.949 -14.649  1.00  0.00    -0.274 OA
ENDBRANCH  32  33
ENDBRANCH  31  32
ENDBRANCH  29  31
ENDBRANCH  26  29
ENDBRANCH  25  26
ENDBRANCH   4  25
BRANCH  11  36
HETATM   36  N5  UNL     1      10.363  45.195  -5.878  1.00  0.00    -0.194 N 
HETATM   37  N6  UNL     1      11.166  44.761  -5.171  1.00  0.00    -0.222 N 
HETATM   38  N7  UNL     1      11.021  44.858  -3.890  1.00  0.00    -0.263 N 
ATOM     39  H6  UNL     1      11.990  44.301  -5.557  1.00  0.00     0.210 HD
HETATM   40  C11 UNL     1       9.869  45.520  -3.781  1.00  0.00     0.182 A 
ATOM     41  H7  UNL     1      11.634  44.515  -3.150  1.00  0.00     0.190 HD
HETATM   42  N11 UNL     1       9.355  45.814  -5.020  1.00  0.00    -0.259 N 
ATOM     43  H11 UNL     1       8.506  46.323  -5.271  1.00  0.00     0.191 HD
BRANCH  40  44
HETATM   44  S1  UNL     1       8.938  45.737  -2.230  1.00  0.00    -0.031 SA
BRANCH  44  45
HETATM   45  C12 UNL     1       9.076  47.507  -1.802  1.00  0.00     0.114 A 
HETATM   46  C13 UNL     1       8.655  48.509  -2.628  1.00  0.00     0.144 A 
HETATM   47  N8  UNL     1       8.979  49.648  -2.037  1.00  0.00    -0.199 N 
HETATM   48  C14 UNL     1       9.587  49.389  -0.902  1.00  0.00     0.680 A 
ATOM     49  H8  UNL     1       8.787  50.580  -2.405  1.00  0.00     0.183 HD
HETATM   50  N10 UNL     1       9.657  48.077  -0.769  1.00  0.00    -0.154 N 
BRANCH  48  51
HETATM   51  N9  UNL     1      10.143  50.230  -0.040  1.00  0.00    -0.234 N 
ATOM     52  H92 UNL     1       9.692  51.096   0.257  1.00  0.00     0.174 HD
ATOM     53  H91 UNL     1      11.009  50.130   0.490  1.00  0.00     0.174 HD
ENDBRANCH  48  51
BRANCH  50  54
HETATM   54  C15 UNL     1      10.370  47.368   0.300  1.00  0.00     0.315 C 
BRANCH  54  55
HETATM   55  O6  UNL     1       9.730  47.467   1.530  1.00  0.00    -0.381 OA
ATOM     56  H6  UNL     1      10.242  47.943   2.173  1.00  0.00     0.211 HD
ENDBRANCH  54  55
ENDBRANCH  50  54
ENDBRANCH  44  45
ENDBRANCH  40  44
ENDBRANCH  11  36
TORSDOF 18
ENDMDL
MODEL 5
REMARK VINA RESULT: -6.532041268      7.280     11.488
REMARK  18 active torsions:
REMARK  status: ('A' for Active; 'I' for Inactive)
REMARK    1  A    between atoms: N1_4  and  O1_5 
REMARK    2  A    between atoms: O1_5  and  C4_6 
REMARK    3  A    between atoms: C4_6  and  O2_7 
REMARK    4  A    between atoms: C4_6  and  N2_9 
REMARK    5  A    between atoms: N2_9  and  O3_11 
REMARK    6  A    between atoms: O3_11  and  C5_12 
REMARK    7  A    between atoms: C5_12  and  C6_13 
REMARK    8  A    between atoms: C9_21  and  O5_22 
REMARK    9  A    between atoms: C10_24  and  N5_25 
REMARK   10  A    between atoms: C11_30  and  S1_31 
REMARK   11  A    between atoms: S1_31  and  C12_32 
REMARK   12  A    between atoms: C14_36  and  N9_37 
REMARK   13  A    between atoms: N10_40  and  C15_41 
REMARK   14  A    between atoms: C15_41  and  O6_42 
REMARK   15  A    between atoms: N12_46  and  O7_47 
REMARK   16  A    between atoms: N13_49  and  O8_50 
REMARK   17  A    between atoms: O8_50  and  S2_51 
REMARK   18  A    between atoms: S2_51  and  N14_52 
ROOT
HETATM    1  C1  UNL     1      13.120  43.692  -5.252  1.00  0.00     0.067 C 
HETATM    2  C2  UNL     1      12.107  42.609  -5.543  1.00  0.00     0.151 C 
HETATM    3  C3  UNL     1      12.405  42.126  -6.916  1.00  0.00     0.067 C 
HETATM    4  N1  UNL     1      12.429  41.617  -4.467  1.00  0.00    -0.206 N 
HETATM    5  C7  UNL     1      11.524  41.841  -3.425  1.00  0.00     0.152 C 
HETATM    6  N4  UNL     1      11.462  41.240  -2.297  1.00  0.00    -0.384 N 
ATOM      7  H41 UNL     1      10.802  41.405  -1.537  1.00  0.00     0.157 HD
ATOM      8  H42 UNL     1      12.065  40.478  -1.988  1.00  0.00     0.157 HD
HETATM    9  C8  UNL     1      10.647  42.949  -3.875  1.00  0.00     0.226 C 
HETATM   10  C9  UNL     1       9.300  43.051  -3.247  1.00  0.00     0.216 C 
HETATM   11  C10 UNL     1       9.856  44.183  -2.453  1.00  0.00     0.264 C 
HETATM   12  N12 UNL     1      10.962  44.262  -3.381  1.00  0.00    -0.128 NA
HETATM   13  N13 UNL     1      10.771  42.854  -5.260  1.00  0.00    -0.207 N 
ENDROOT
BRANCH  10  14
HETATM   14  O5  UNL     1       9.002  41.991  -2.383  1.00  0.00    -0.387 OA
ATOM     15  H5  UNL     1       8.082  41.931  -2.157  1.00  0.00     0.210 HD
ENDBRANCH  10  14
BRANCH  12  16
HETATM   16  O7  UNL     1      10.670  45.261  -4.260  1.00  0.00    -0.308 OA
ATOM     17  H7  UNL     1      11.058  46.098  -4.029  1.00  0.00     0.237 HD
ENDBRANCH  12  16
BRANCH  13  18
HETATM   18  O8  UNL     1       9.830  42.842  -6.090  1.00  0.00    -0.132 OA
BRANCH  18  19
HETATM   19  S2  UNL     1       9.108  44.103  -6.780  1.00  0.00     0.376 S 
HETATM   20  O9  UNL     1       8.314  43.849  -8.024  1.00  0.00    -0.174 OA
HETATM   21  O10 UNL     1       8.127  44.839  -5.862  1.00  0.00    -0.174 OA
BRANCH  19  22
HETATM   22  N14 UNL     1      10.230  45.384  -7.226  1.00  0.00    -0.304 N 
ATOM     23 2H14 UNL     1      10.229  46.297  -6.772  1.00  0.00     0.171 HD
ATOM     24 1H14 UNL     1      10.868  45.114  -7.974  1.00  0.00     0.171 HD
ENDBRANCH  19  22
ENDBRANCH  18  19
ENDBRANCH  13  18
BRANCH   4  25
HETATM   25  O1  UNL     1      13.412  40.778  -4.625  1.00  0.00    -0.219 OA
BRANCH  25  26
HETATM   26  C4  UNL     1      14.518  40.847  -3.837  1.00  0.00     0.415 C 
BRANCH  26  27
HETATM   27  O2  UNL     1      14.685  42.010  -3.065  1.00  0.00    -0.352 OA
ATOM     28  H2  UNL     1      15.573  42.322  -2.938  1.00  0.00     0.214 HD
ENDBRANCH  26  27
BRANCH  26  29
HETATM   29  N2  UNL     1      14.553  39.742  -3.004  1.00  0.00    -0.248 N 
ATOM     30  H2  UNL     1      15.085  38.915  -3.274  1.00  0.00     0.193 HD
BRANCH  29  31
HETATM   31  O3  UNL     1      13.888  39.761  -1.846  1.00  0.00    -0.272 OA
BRANCH  31  32
HETATM   32  C5  UNL     1      14.920  39.379  -0.931  1.00  0.00     0.300 C 
BRANCH  32  33
HETATM   33  C6  UNL     1      14.778  40.503   0.111  1.00  0.00     0.257 C 
HETATM   34  N3  UNL     1      13.827  41.478  -0.270  1.00  0.00    -0.060 NA
HETATM   35  O4  UNL     1      15.476  40.462   1.093  1.00  0.00    -0.274 OA
ENDBRANCH  32  33
ENDBRANCH  31  32
ENDBRANCH  29  31
ENDBRANCH  26  29
ENDBRANCH  25  26
ENDBRANCH   4  25
BRANCH  11  36
HETATM   36  N5  UNL     1       9.059  45.403  -2.323  1.00  0.00    -0.194 N 
HETATM   37  N6  UNL     1       8.050  45.833  -2.683  1.00  0.00    -0.222 N 
HETATM   38  N7  UNL     1       7.752  47.068  -2.446  1.00  0.00    -0.263 N 
ATOM     39  H6  UNL     1       7.393  45.237  -3.187  1.00  0.00     0.210 HD
HETATM   40  C11 UNL     1       8.817  47.495  -1.769  1.00  0.00     0.182 A 
ATOM     41  H7  UNL     1       6.913  47.585  -2.711  1.00  0.00     0.190 HD
HETATM   42  N11 UNL     1       9.732  46.485  -1.607  1.00  0.00    -0.259 N 
ATOM     43  H11 UNL     1      10.631  46.488  -1.123  1.00  0.00     0.191 HD
BRANCH  40  44
HETATM   44  S1  UNL     1       9.169  49.240  -1.378  1.00  0.00    -0.031 SA
BRANCH  44  45
HETATM   45  C12 UNL     1      10.302  49.218   0.054  1.00  0.00     0.114 A 
HETATM   46  C13 UNL     1      11.650  49.395  -0.059  1.00  0.00     0.144 A 
HETATM   47  N8  UNL     1      12.156  49.241   1.154  1.00  0.00    -0.199 N 
HETATM   48  C14 UNL     1      11.186  48.965   1.995  1.00  0.00     0.680 A 
ATOM     49  H8  UNL     1      13.143  49.322   1.397  1.00  0.00     0.183 HD
HETATM   50  N10 UNL     1      10.054  48.938   1.315  1.00  0.00    -0.154 N 
BRANCH  48  51
HETATM   51  N9  UNL     1      11.258  48.662   3.284  1.00  0.00    -0.234 N 
ATOM     52  H92 UNL     1      10.521  48.899   3.949  1.00  0.00     0.174 HD
ATOM     53  H91 UNL     1      11.966  48.121   3.780  1.00  0.00     0.174 HD
ENDBRANCH  48  51
BRANCH  50  54
HETATM   54  C15 UNL     1       8.747  48.544   1.855  1.00  0.00     0.315 C 
BRANCH  54  55
HETATM   55  O6  UNL     1       8.824  47.432   2.686  1.00  0.00    -0.381 OA
ATOM     56  H6  UNL     1       8.417  47.578   3.531  1.00  0.00     0.211 HD
ENDBRANCH  54  55
ENDBRANCH  50  54
ENDBRANCH  44  45
ENDBRANCH  40  44
ENDBRANCH  11  36
TORSDOF 18
ENDMDL
