MODEL 1
REMARK VINA RESULT: -6.833036308      0.000      0.000
REMARK  19 active torsions:
REMARK  status: ('A' for Active; 'I' for Inactive)
REMARK    1  A    between atoms: C2_2  and  N1_3 
REMARK    2  A    between atoms: C2_2  and  C3_7 
REMARK    3  A    between atoms: C3_7  and  N2_8 
REMARK    4  A    between atoms: C3_7  and  C19_58 
REMARK    5  A    between atoms: N2_8  and  N3_10 
REMARK    6  A    between atoms: C4_13  and  C5_14 
REMARK    7  A    between atoms: C5_14  and  N5_15 
REMARK    8  A    between atoms: C5_14  and  N7_24 
REMARK    9  A    between atoms: N5_15  and  C6_17 
REMARK   10  A    between atoms: C6_17  and  C7_18 
REMARK   11  A    between atoms: C7_18  and  C8_20 
REMARK   12  A    between atoms: C8_20  and  N6_21 
REMARK   13  A    between atoms: C11_25  and  C12_26 
REMARK   14  A    between atoms: C13_32  and  N10_33 
REMARK   15  A    between atoms: N10_33  and  N11_35 
REMARK   16  A    between atoms: C14_41  and  N14_42 
REMARK   17  A    between atoms: C15_47  and  N16_48 
REMARK   18  A    between atoms: C18_55  and  O3_56 
REMARK   19  A    between atoms: C21_61  and  N18_62 
ROOT
HETATM    1  C5  UNL     1      11.256  44.209  -7.850  1.00  0.00     0.261 C 
ENDROOT
BRANCH   1   2
HETATM    2  C4  UNL     1      10.674  44.942  -9.035  1.00  0.00     0.075 A 
HETATM    3  N4  UNL     1       9.934  44.486 -10.044  1.00  0.00    -0.278 N 
HETATM    4  N3  UNL     1       9.608  45.442 -10.905  1.00  0.00    -0.176 N 
ATOM      5  H4  UNL     1       9.649  43.511 -10.144  1.00  0.00     0.189 HD
HETATM    6  C18 UNL     1      10.155  46.567 -10.446  1.00  0.00     0.180 A 
HETATM    7  C17 UNL     1      10.832  46.287  -9.272  1.00  0.00     0.090 A 
BRANCH   4   8
HETATM    8  N2  UNL     1       8.873  45.248 -12.052  1.00  0.00    -0.300 N 
ATOM      9  H2  UNL     1       7.882  45.481 -11.992  1.00  0.00     0.183 HD
BRANCH   8  10
HETATM   10  C3  UNL     1       9.325  44.761 -13.308  1.00  0.00     0.181 C 
BRANCH  10  11
HETATM   11  C2  UNL     1       8.213  43.921 -13.978  1.00  0.00     0.209 C 
HETATM   12  C1  UNL     1       8.089  42.590 -13.257  1.00  0.00     0.042 C 
BRANCH  11  13
HETATM   13  N1  UNL     1       6.949  44.614 -13.831  1.00  0.00    -0.073 N 
ATOM     14  H13 UNL     1       6.451  44.726 -14.714  1.00  0.00     0.274 HD
ATOM     15  H12 UNL     1       6.242  44.055 -13.350  1.00  0.00     0.274 HD
ATOM     16  H11 UNL     1       7.139  45.501 -13.364  1.00  0.00     0.274 HD
ENDBRANCH  11  13
ENDBRANCH  10  11
BRANCH  10  17
HETATM   17  C19 UNL     1       9.582  45.943 -14.257  1.00  0.00     0.044 A 
HETATM   18  C20 UNL     1      10.150  45.728 -15.485  1.00  0.00     0.080 A 
HETATM   19  S1  UNL     1      10.221  47.301 -16.133  1.00  0.00    -0.064 SA
HETATM   20  C21 UNL     1       9.532  48.144 -14.823  1.00  0.00     0.142 A 
HETATM   21  N19 UNL     1       9.277  47.182 -13.943  1.00  0.00    -0.338 N 
ATOM     22  H19 UNL     1       8.852  47.401 -13.042  1.00  0.00     0.168 HD
BRANCH  20  23
HETATM   23  N18 UNL     1       9.295  49.432 -14.680  1.00  0.00    -0.380 N 
ATOM     24 2H18 UNL     1       9.737  50.066 -14.014  1.00  0.00     0.158 HD
ATOM     25 1H18 UNL     1       8.647  50.038 -15.185  1.00  0.00     0.158 HD
ENDBRANCH  20  23
ENDBRANCH  10  17
ENDBRANCH   8  10
ENDBRANCH   4   8
BRANCH   6  26
HETATM   26  O3  UNL     1      10.113  47.856 -10.985  1.00  0.00    -0.344 OA
ATOM     27  H3  UNL     1      10.074  48.693 -10.539  1.00  0.00     0.219 HD
ENDBRANCH   6  26
ENDBRANCH   1   2
BRANCH   1  28
HETATM   28  N5  UNL     1      12.307  43.386  -8.358  1.00  0.00    -0.369 N 
ATOM     29  H5  UNL     1      12.296  43.079  -9.330  1.00  0.00     0.161 HD
BRANCH  28  30
HETATM   30  C6  UNL     1      13.351  43.007  -7.509  1.00  0.00     0.137 C 
BRANCH  30  31
HETATM   31  C7  UNL     1      14.498  42.333  -8.095  1.00  0.00     0.192 C 
HETATM   32  O1  UNL     1      15.313  42.934  -8.753  1.00  0.00    -0.290 OA
BRANCH  31  33
HETATM   33  C8  UNL     1      14.684  40.879  -7.884  1.00  0.00     0.355 C 
BRANCH  33  34
HETATM   34  N6  UNL     1      13.533  40.088  -8.241  1.00  0.00     0.087 N 
HETATM   35  C9  UNL     1      12.983  39.356  -7.117  1.00  0.00     0.309 C 
HETATM   36  C10 UNL     1      13.985  39.123  -9.236  1.00  0.00     0.309 C 
ENDBRANCH  33  34
ENDBRANCH  31  33
ENDBRANCH  30  31
ENDBRANCH  28  30
ENDBRANCH   1  28
BRANCH   1  37
HETATM   37  N7  UNL     1      10.233  43.316  -7.305  1.00  0.00    -0.134 N 
HETATM   38  C11 UNL     1       9.461  43.534  -6.244  1.00  0.00     0.175 A 
HETATM   39  N12 UNL     1       8.684  42.424  -6.149  1.00  0.00    -0.246 N 
HETATM   40  N13 UNL     1       8.963  41.573  -7.100  1.00  0.00     0.093 N 
ATOM     41  H12 UNL     1       7.975  42.274  -5.430  1.00  0.00     0.190 HD
HETATM   42  C14 UNL     1       8.477  40.354  -7.430  1.00  0.00     0.727 A 
HETATM   43  C16 UNL     1       9.926  42.093  -7.844  1.00  0.00     0.739 A 
HETATM   44  N15 UNL     1       8.998  39.727  -8.502  1.00  0.00    -0.020 N 
HETATM   45  C15 UNL     1       9.977  40.263  -9.252  1.00  0.00     0.705 A 
ATOM     46  H15 UNL     1       8.635  38.809  -8.756  1.00  0.00     0.203 HD
HETATM   47  N17 UNL     1      10.450  41.469  -8.918  1.00  0.00    -0.019 N 
ATOM     48  H17 UNL     1      11.192  41.908  -9.464  1.00  0.00     0.203 HD
BRANCH  38  49
HETATM   49  C12 UNL     1       9.427  44.675  -5.375  1.00  0.00     0.149 A 
HETATM   50  N8  UNL     1       8.609  45.715  -5.258  1.00  0.00    -0.234 N 
HETATM   51  O2  UNL     1       9.000  46.488  -4.305  1.00  0.00    -0.155 OA
ATOM     52  H8  UNL     1       7.787  45.878  -5.840  1.00  0.00     0.197 HD
HETATM   53  N9  UNL     1      10.063  46.034  -3.747  1.00  0.00    -0.222 N 
HETATM   54  C13 UNL     1      10.376  44.906  -4.370  1.00  0.00     0.174 A 
ATOM     55  H9  UNL     1      10.569  46.459  -2.971  1.00  0.00     0.198 HD
BRANCH  54  56
HETATM   56  N10 UNL     1      11.397  44.135  -4.101  1.00  0.00    -0.289 N 
ATOM     57  H10 UNL     1      11.232  43.249  -3.625  1.00  0.00     0.188 HD
BRANCH  56  58
HETATM   58  N11 UNL     1      12.688  44.477  -4.436  1.00  0.00    -0.344 N 
ATOM     59 2H11 UNL     1      12.966  45.453  -4.323  1.00  0.00     0.176 HD
ATOM     60 1H11 UNL     1      13.361  43.795  -4.786  1.00  0.00     0.176 HD
ENDBRANCH  56  58
ENDBRANCH  54  56
ENDBRANCH  38  49
BRANCH  42  61
HETATM   61  N14 UNL     1       7.545  39.840  -6.721  1.00  0.00    -0.232 N 
ATOM     62 2H14 UNL     1       6.716  40.365  -6.444  1.00  0.00     0.174 HD
ATOM     63 1H14 UNL     1       7.626  38.869  -6.417  1.00  0.00     0.174 HD
ENDBRANCH  42  61
BRANCH  45  64
HETATM   64  N16 UNL     1      10.450  39.607 -10.289  1.00  0.00    -0.234 N 
ATOM     65 2H16 UNL     1       9.838  39.291 -11.041  1.00  0.00     0.174 HD
ATOM     66 1H16 UNL     1      11.447  39.402 -10.356  1.00  0.00     0.174 HD
ENDBRANCH  45  64
ENDBRANCH   1  37
TORSDOF 19
ENDMDL
MODEL 2
REMARK VINA RESULT: -6.808703933      4.871      9.143
REMARK  19 active torsions:
REMARK  status: ('A' for Active; 'I' for Inactive)
REMARK    1  A    between atoms: C2_2  and  N1_3 
REMARK    2  A    between atoms: C2_2  and  C3_7 
REMARK    3  A    between atoms: C3_7  and  N2_8 
REMARK    4  A    between atoms: C3_7  and  C19_58 
REMARK    5  A    between atoms: N2_8  and  N3_10 
REMARK    6  A    between atoms: C4_13  and  C5_14 
REMARK    7  A    between atoms: C5_14  and  N5_15 
REMARK    8  A    between atoms: C5_14  and  N7_24 
REMARK    9  A    between atoms: N5_15  and  C6_17 
REMARK   10  A    between atoms: C6_17  and  C7_18 
REMARK   11  A    between atoms: C7_18  and  C8_20 
REMARK   12  A    between atoms: C8_20  and  N6_21 
REMARK   13  A    between atoms: C11_25  and  C12_26 
REMARK   14  A    between atoms: C13_32  and  N10_33 
REMARK   15  A    between atoms: N10_33  and  N11_35 
REMARK   16  A    between atoms: C14_41  and  N14_42 
REMARK   17  A    between atoms: C15_47  and  N16_48 
REMARK   18  A    between atoms: C18_55  and  O3_56 
REMARK   19  A    between atoms: C21_61  and  N18_62 
ROOT
HETATM    1  C5  UNL     1      10.833  43.851  -3.787  1.00  0.00     0.261 C 
ENDROOT
BRANCH   1   2
HETATM    2  C4  UNL     1       9.894  44.862  -3.173  1.00  0.00     0.075 A 
HETATM    3  N4  UNL     1      10.102  45.739  -2.193  1.00  0.00    -0.278 N 
HETATM    4  N3  UNL     1       9.023  46.466  -1.926  1.00  0.00    -0.176 N 
ATOM      5  H4  UNL     1      10.991  45.842  -1.702  1.00  0.00     0.189 HD
HETATM    6  C18 UNL     1       8.071  46.050  -2.760  1.00  0.00     0.180 A 
HETATM    7  C17 UNL     1       8.586  45.043  -3.557  1.00  0.00     0.090 A 
BRANCH   4   8
HETATM    8  N2  UNL     1       8.949  47.427  -0.944  1.00  0.00    -0.300 N 
ATOM      9  H2  UNL     1       8.011  47.734  -0.689  1.00  0.00     0.183 HD
BRANCH   8  10
HETATM   10  C3  UNL     1      10.020  48.044  -0.243  1.00  0.00     0.181 C 
BRANCH  10  11
HETATM   11  C2  UNL     1       9.875  49.582  -0.308  1.00  0.00     0.209 C 
HETATM   12  C1  UNL     1      11.254  50.217  -0.271  1.00  0.00     0.042 C 
BRANCH  11  13
HETATM   13  N1  UNL     1       9.265  49.943  -1.572  1.00  0.00    -0.073 N 
ATOM     14  H13 UNL     1       8.390  50.454  -1.460  1.00  0.00     0.274 HD
ATOM     15  H12 UNL     1       9.780  50.669  -2.070  1.00  0.00     0.274 HD
ATOM     16  H11 UNL     1       9.159  49.086  -2.116  1.00  0.00     0.274 HD
ENDBRANCH  11  13
ENDBRANCH  10  11
BRANCH  10  17
HETATM   17  C19 UNL     1       9.937  47.682   1.249  1.00  0.00     0.044 A 
HETATM   18  C20 UNL     1       9.090  48.369   2.077  1.00  0.00     0.080 A 
HETATM   19  S1  UNL     1       9.359  47.612   3.580  1.00  0.00    -0.064 SA
HETATM   20  C21 UNL     1      10.522  46.472   3.083  1.00  0.00     0.142 A 
HETATM   21  N19 UNL     1      10.657  46.721   1.785  1.00  0.00    -0.338 N 
ATOM     22  H19 UNL     1      11.305  46.176   1.215  1.00  0.00     0.168 HD
BRANCH  20  23
HETATM   23  N18 UNL     1      11.157  45.554   3.783  1.00  0.00    -0.380 N 
ATOM     24 2H18 UNL     1      12.166  45.471   3.913  1.00  0.00     0.158 HD
ATOM     25 1H18 UNL     1      10.787  44.769   4.319  1.00  0.00     0.158 HD
ENDBRANCH  20  23
ENDBRANCH  10  17
ENDBRANCH   8  10
ENDBRANCH   4   8
BRANCH   6  26
HETATM   26  O3  UNL     1       6.751  46.489  -2.884  1.00  0.00    -0.344 OA
ATOM     27  H3  UNL     1       5.944  45.988  -2.846  1.00  0.00     0.219 HD
ENDBRANCH   6  26
ENDBRANCH   1   2
BRANCH   1  28
HETATM   28  N5  UNL     1      11.898  44.595  -4.380  1.00  0.00    -0.369 N 
ATOM     29  H5  UNL     1      11.707  45.474  -4.861  1.00  0.00     0.161 HD
BRANCH  28  30
HETATM   30  C6  UNL     1      13.205  44.106  -4.296  1.00  0.00     0.137 C 
BRANCH  30  31
HETATM   31  C7  UNL     1      13.453  42.739  -4.721  1.00  0.00     0.192 C 
HETATM   32  O1  UNL     1      13.308  41.809  -3.965  1.00  0.00    -0.290 OA
BRANCH  31  33
HETATM   33  C8  UNL     1      13.889  42.467  -6.110  1.00  0.00     0.355 C 
BRANCH  33  34
HETATM   34  N6  UNL     1      12.800  42.285  -7.037  1.00  0.00     0.087 N 
HETATM   35  C9  UNL     1      12.557  40.891  -7.352  1.00  0.00     0.309 C 
HETATM   36  C10 UNL     1      13.180  42.970  -8.265  1.00  0.00     0.309 C 
ENDBRANCH  33  34
ENDBRANCH  31  33
ENDBRANCH  30  31
ENDBRANCH  28  30
ENDBRANCH   1  28
BRANCH   1  37
HETATM   37  N7  UNL     1      10.132  43.160  -4.869  1.00  0.00    -0.134 N 
HETATM   38  C11 UNL     1       9.536  41.972  -4.809  1.00  0.00     0.175 A 
HETATM   39  N12 UNL     1       9.036  41.773  -6.056  1.00  0.00    -0.246 N 
HETATM   40  N13 UNL     1       9.310  42.784  -6.837  1.00  0.00     0.093 N 
ATOM     41  H12 UNL     1       8.515  40.945  -6.344  1.00  0.00     0.190 HD
HETATM   42  C14 UNL     1       9.035  43.057  -8.134  1.00  0.00     0.727 A 
HETATM   43  C16 UNL     1       9.994  43.672  -6.134  1.00  0.00     0.739 A 
HETATM   44  N15 UNL     1       9.473  44.223  -8.646  1.00  0.00    -0.020 N 
HETATM   45  C15 UNL     1      10.168  45.120  -7.924  1.00  0.00     0.705 A 
ATOM     46  H15 UNL     1       9.268  44.435  -9.623  1.00  0.00     0.203 HD
HETATM   47  N17 UNL     1      10.433  44.839  -6.643  1.00  0.00    -0.019 N 
ATOM     48  H17 UNL     1      10.957  45.495  -6.064  1.00  0.00     0.203 HD
BRANCH  38  49
HETATM   49  C12 UNL     1       9.424  41.078  -3.692  1.00  0.00     0.149 A 
HETATM   50  N8  UNL     1       8.611  41.018  -2.643  1.00  0.00    -0.234 N 
HETATM   51  O2  UNL     1       8.907  40.006  -1.904  1.00  0.00    -0.155 OA
ATOM     52  H8  UNL     1       7.859  41.679  -2.450  1.00  0.00     0.197 HD
HETATM   53  N9  UNL     1       9.898  39.351  -2.391  1.00  0.00    -0.222 N 
HETATM   54  C13 UNL     1      10.262  39.971  -3.505  1.00  0.00     0.174 A 
ATOM     55  H9  UNL     1      10.323  38.512  -1.997  1.00  0.00     0.198 HD
BRANCH  54  56
HETATM   56  N10 UNL     1      11.238  39.617  -4.300  1.00  0.00    -0.289 N 
ATOM     57  H10 UNL     1      11.154  39.811  -5.298  1.00  0.00     0.188 HD
BRANCH  56  58
HETATM   58  N11 UNL     1      12.375  38.992  -3.839  1.00  0.00    -0.344 N 
ATOM     59 2H11 UNL     1      13.134  39.580  -3.493  1.00  0.00     0.176 HD
ATOM     60 1H11 UNL     1      12.476  37.977  -3.834  1.00  0.00     0.176 HD
ENDBRANCH  56  58
ENDBRANCH  54  56
ENDBRANCH  38  49
BRANCH  42  61
HETATM   61  N14 UNL     1       8.373  42.210  -8.825  1.00  0.00    -0.232 N 
ATOM     62 2H14 UNL     1       7.362  42.104  -8.739  1.00  0.00     0.174 HD
ATOM     63 1H14 UNL     1       8.867  41.613  -9.489  1.00  0.00     0.174 HD
ENDBRANCH  42  61
BRANCH  45  64
HETATM   64  N16 UNL     1      10.572  46.243  -8.476  1.00  0.00    -0.234 N 
ATOM     65 2H16 UNL     1      10.843  46.284  -9.458  1.00  0.00     0.174 HD
ATOM     66 1H16 UNL     1      10.620  47.098  -7.922  1.00  0.00     0.174 HD
ENDBRANCH  45  64
ENDBRANCH   1  37
TORSDOF 19
ENDMDL
MODEL 3
REMARK VINA RESULT: -6.693153043     12.878     15.602
REMARK  19 active torsions:
REMARK  status: ('A' for Active; 'I' for Inactive)
REMARK    1  A    between atoms: C2_2  and  N1_3 
REMARK    2  A    between atoms: C2_2  and  C3_7 
REMARK    3  A    between atoms: C3_7  and  N2_8 
REMARK    4  A    between atoms: C3_7  and  C19_58 
REMARK    5  A    between atoms: N2_8  and  N3_10 
REMARK    6  A    between atoms: C4_13  and  C5_14 
REMARK    7  A    between atoms: C5_14  and  N5_15 
REMARK    8  A    between atoms: C5_14  and  N7_24 
REMARK    9  A    between atoms: N5_15  and  C6_17 
REMARK   10  A    between atoms: C6_17  and  C7_18 
REMARK   11  A    between atoms: C7_18  and  C8_20 
REMARK   12  A    between atoms: C8_20  and  N6_21 
REMARK   13  A    between atoms: C11_25  and  C12_26 
REMARK   14  A    between atoms: C13_32  and  N10_33 
REMARK   15  A    between atoms: N10_33  and  N11_35 
REMARK   16  A    between atoms: C14_41  and  N14_42 
REMARK   17  A    between atoms: C15_47  and  N16_48 
REMARK   18  A    between atoms: C18_55  and  O3_56 
REMARK   19  A    between atoms: C21_61  and  N18_62 
ROOT
HETATM    1  C5  UNL     1       9.201  43.954   4.395  1.00  0.00     0.261 C 
ENDROOT
BRANCH   1   2
HETATM    2  C4  UNL     1      10.378  43.069   4.059  1.00  0.00     0.075 A 
HETATM    3  N4  UNL     1      10.647  41.822   4.442  1.00  0.00    -0.278 N 
HETATM    4  N3  UNL     1      11.790  41.373   3.937  1.00  0.00    -0.176 N 
ATOM      5  H4  UNL     1      10.044  41.273   5.055  1.00  0.00     0.189 HD
HETATM    6  C18 UNL     1      12.290  42.361   3.196  1.00  0.00     0.180 A 
HETATM    7  C17 UNL     1      11.427  43.441   3.252  1.00  0.00     0.090 A 
BRANCH   4   8
HETATM    8  N2  UNL     1      12.324  40.130   4.189  1.00  0.00    -0.300 N 
ATOM      9  H2  UNL     1      11.667  39.349   4.169  1.00  0.00     0.183 HD
BRANCH   8  10
HETATM   10  C3  UNL     1      13.677  39.801   4.472  1.00  0.00     0.181 C 
BRANCH  10  11
HETATM   11  C2  UNL     1      13.734  38.665   5.518  1.00  0.00     0.209 C 
HETATM   12  C1  UNL     1      14.940  38.874   6.418  1.00  0.00     0.042 C 
BRANCH  11  13
HETATM   13  N1  UNL     1      12.552  38.735   6.353  1.00  0.00    -0.073 N 
ATOM     14  H13 UNL     1      11.696  38.500   5.852  1.00  0.00     0.274 HD
ATOM     15  H12 UNL     1      12.509  37.989   7.047  1.00  0.00     0.274 HD
ATOM     16  H11 UNL     1      12.527  39.667   6.769  1.00  0.00     0.274 HD
ENDBRANCH  11  13
ENDBRANCH  10  11
BRANCH  10  17
HETATM   17  C19 UNL     1      14.346  39.236   3.208  1.00  0.00     0.044 A 
HETATM   18  C20 UNL     1      13.927  38.043   2.683  1.00  0.00     0.080 A 
HETATM   19  S1  UNL     1      14.949  37.861   1.332  1.00  0.00    -0.064 SA
HETATM   20  C21 UNL     1      15.848  39.298   1.502  1.00  0.00     0.142 A 
HETATM   21  N19 UNL     1      15.326  39.856   2.589  1.00  0.00    -0.338 N 
ATOM     22  H19 UNL     1      15.679  40.748   2.936  1.00  0.00     0.168 HD
BRANCH  20  23
HETATM   23  N18 UNL     1      16.827  39.773   0.760  1.00  0.00    -0.380 N 
ATOM     24 2H18 UNL     1      17.245  39.332  -0.060  1.00  0.00     0.158 HD
ATOM     25 1H18 UNL     1      17.349  40.646   0.847  1.00  0.00     0.158 HD
ENDBRANCH  20  23
ENDBRANCH  10  17
ENDBRANCH   8  10
ENDBRANCH   4   8
BRANCH   6  26
HETATM   26  O3  UNL     1      13.475  42.399   2.456  1.00  0.00    -0.344 OA
ATOM     27  H3  UNL     1      14.194  41.779   2.440  1.00  0.00     0.219 HD
ENDBRANCH   6  26
ENDBRANCH   1   2
BRANCH   1  28
HETATM   28  N5  UNL     1       9.743  45.176   4.898  1.00  0.00    -0.369 N 
ATOM     29  H5  UNL     1      10.050  45.241   5.869  1.00  0.00     0.161 HD
BRANCH  28  30
HETATM   30  C6  UNL     1       9.847  46.281   4.048  1.00  0.00     0.137 C 
BRANCH  30  31
HETATM   31  C7  UNL     1      10.039  47.590   4.649  1.00  0.00     0.192 C 
HETATM   32  O1  UNL     1      10.291  47.712   5.824  1.00  0.00    -0.290 OA
BRANCH  31  33
HETATM   33  C8  UNL     1       9.929  48.807   3.813  1.00  0.00     0.355 C 
BRANCH  33  34
HETATM   34  N6  UNL     1      11.202  49.385   3.458  1.00  0.00     0.087 N 
HETATM   35  C9  UNL     1      11.173  50.835   3.436  1.00  0.00     0.309 C 
HETATM   36  C10 UNL     1      11.511  48.915   2.113  1.00  0.00     0.309 C 
ENDBRANCH  33  34
ENDBRANCH  31  33
ENDBRANCH  30  31
ENDBRANCH  28  30
ENDBRANCH   1  28
BRANCH   1  37
HETATM   37  N7  UNL     1       8.447  43.334   5.484  1.00  0.00    -0.134 N 
HETATM   38  C11 UNL     1       8.575  43.572   6.786  1.00  0.00     0.175 A 
HETATM   39  N12 UNL     1       7.661  42.759   7.378  1.00  0.00    -0.246 N 
HETATM   40  N13 UNL     1       7.008  42.061   6.487  1.00  0.00     0.093 N 
ATOM     41  H12 UNL     1       7.505  42.701   8.384  1.00  0.00     0.190 HD
HETATM   42  C14 UNL     1       6.022  41.138   6.569  1.00  0.00     0.727 A 
HETATM   43  C16 UNL     1       7.469  42.391   5.291  1.00  0.00     0.739 A 
HETATM   44  N15 UNL     1       5.557  40.598   5.426  1.00  0.00    -0.020 N 
HETATM   45  C15 UNL     1       6.032  40.939   4.215  1.00  0.00     0.705 A 
ATOM     46  H15 UNL     1       4.813  39.903   5.481  1.00  0.00     0.203 HD
HETATM   47  N17 UNL     1       7.006  41.853   4.146  1.00  0.00    -0.019 N 
ATOM     48  H17 UNL     1       7.391  42.138   3.244  1.00  0.00     0.203 HD
BRANCH  38  49
HETATM   49  C12 UNL     1       9.465  44.480   7.451  1.00  0.00     0.149 A 
HETATM   50  N8  UNL     1      10.742  44.414   7.812  1.00  0.00    -0.234 N 
HETATM   51  O2  UNL     1      11.101  45.508   8.388  1.00  0.00    -0.155 OA
ATOM     52  H8  UNL     1      11.351  43.611   7.656  1.00  0.00     0.197 HD
HETATM   53  N9  UNL     1      10.128  46.342   8.448  1.00  0.00    -0.222 N 
HETATM   54  C13 UNL     1       9.082  45.758   7.879  1.00  0.00     0.174 A 
ATOM     55  H9  UNL     1      10.154  47.277   8.855  1.00  0.00     0.198 HD
BRANCH  54  56
HETATM   56  N10 UNL     1       7.890  46.278   7.740  1.00  0.00    -0.289 N 
ATOM     57  H10 UNL     1       7.075  45.691   7.913  1.00  0.00     0.188 HD
BRANCH  56  58
HETATM   58  N11 UNL     1       7.697  47.589   7.367  1.00  0.00    -0.344 N 
ATOM     59 2H11 UNL     1       8.524  48.169   7.223  1.00  0.00     0.176 HD
ATOM     60 1H11 UNL     1       6.768  47.988   7.234  1.00  0.00     0.176 HD
ENDBRANCH  56  58
ENDBRANCH  54  56
ENDBRANCH  38  49
BRANCH  42  61
HETATM   61  N14 UNL     1       5.566  40.811   7.717  1.00  0.00    -0.232 N 
ATOM     62 2H14 UNL     1       6.170  40.676   8.528  1.00  0.00     0.174 HD
ATOM     63 1H14 UNL     1       4.561  40.677   7.836  1.00  0.00     0.174 HD
ENDBRANCH  42  61
BRANCH  45  64
HETATM   64  N16 UNL     1       5.541  40.379   3.131  1.00  0.00    -0.234 N 
ATOM     65 2H16 UNL     1       4.547  40.433   2.910  1.00  0.00     0.174 HD
ATOM     66 1H16 UNL     1       6.155  39.878   2.489  1.00  0.00     0.174 HD
ENDBRANCH  45  64
ENDBRANCH   1  37
TORSDOF 19
ENDMDL
MODEL 4
REMARK VINA RESULT: -6.529871800      4.810      9.788
REMARK  19 active torsions:
REMARK  status: ('A' for Active; 'I' for Inactive)
REMARK    1  A    between atoms: C2_2  and  N1_3 
REMARK    2  A    between atoms: C2_2  and  C3_7 
REMARK    3  A    between atoms: C3_7  and  N2_8 
REMARK    4  A    between atoms: C3_7  and  C19_58 
REMARK    5  A    between atoms: N2_8  and  N3_10 
REMARK    6  A    between atoms: C4_13  and  C5_14 
REMARK    7  A    between atoms: C5_14  and  N5_15 
REMARK    8  A    between atoms: C5_14  and  N7_24 
REMARK    9  A    between atoms: N5_15  and  C6_17 
REMARK   10  A    between atoms: C6_17  and  C7_18 
REMARK   11  A    between atoms: C7_18  and  C8_20 
REMARK   12  A    between atoms: C8_20  and  N6_21 
REMARK   13  A    between atoms: C11_25  and  C12_26 
REMARK   14  A    between atoms: C13_32  and  N10_33 
REMARK   15  A    between atoms: N10_33  and  N11_35 
REMARK   16  A    between atoms: C14_41  and  N14_42 
REMARK   17  A    between atoms: C15_47  and  N16_48 
REMARK   18  A    between atoms: C18_55  and  O3_56 
REMARK   19  A    between atoms: C21_61  and  N18_62 
ROOT
HETATM    1  C5  UNL     1      10.344  44.009  -5.024  1.00  0.00     0.261 C 
ENDROOT
BRANCH   1   2
HETATM    2  C4  UNL     1      11.664  43.635  -4.394  1.00  0.00     0.075 A 
HETATM    3  N4  UNL     1      11.966  42.631  -3.571  1.00  0.00    -0.278 N 
HETATM    4  N3  UNL     1      13.247  42.630  -3.224  1.00  0.00    -0.176 N 
ATOM      5  H4  UNL     1      11.289  41.941  -3.245  1.00  0.00     0.189 HD
HETATM    6  C18 UNL     1      13.807  43.670  -3.839  1.00  0.00     0.180 A 
HETATM    7  C17 UNL     1      12.840  44.323  -4.582  1.00  0.00     0.090 A 
BRANCH   4   8
HETATM    8  N2  UNL     1      13.825  41.723  -2.365  1.00  0.00    -0.300 N 
ATOM      9  H2  UNL     1      14.838  41.787  -2.264  1.00  0.00     0.183 HD
BRANCH   8  10
HETATM   10  C3  UNL     1      13.184  40.709  -1.604  1.00  0.00     0.181 C 
BRANCH  10  11
HETATM   11  C2  UNL     1      13.356  39.340  -2.300  1.00  0.00     0.209 C 
HETATM   12  C1  UNL     1      12.040  38.937  -2.943  1.00  0.00     0.042 C 
BRANCH  11  13
HETATM   13  N1  UNL     1      14.334  39.472  -3.361  1.00  0.00    -0.073 N 
ATOM     14  H13 UNL     1      14.163  38.839  -4.141  1.00  0.00     0.274 HD
ATOM     15  H12 UNL     1      14.246  40.348  -3.877  1.00  0.00     0.274 HD
ATOM     16  H11 UNL     1      15.257  39.349  -2.942  1.00  0.00     0.274 HD
ENDBRANCH  11  13
ENDBRANCH  10  11
BRANCH  10  17
HETATM   17  C19 UNL     1      13.878  40.571  -0.239  1.00  0.00     0.044 A 
HETATM   18  C20 UNL     1      13.165  40.752   0.916  1.00  0.00     0.080 A 
HETATM   19  S1  UNL     1      14.348  40.499   2.116  1.00  0.00    -0.064 SA
HETATM   20  C21 UNL     1      15.675  40.181   1.098  1.00  0.00     0.142 A 
HETATM   21  N19 UNL     1      15.155  40.282  -0.120  1.00  0.00    -0.338 N 
ATOM     22  H19 UNL     1      15.735  40.138  -0.947  1.00  0.00     0.168 HD
BRANCH  20  23
HETATM   23  N18 UNL     1      16.925  39.900   1.404  1.00  0.00    -0.380 N 
ATOM     24 2H18 UNL     1      17.250  39.217   2.088  1.00  0.00     0.158 HD
ATOM     25 1H18 UNL     1      17.792  40.292   1.036  1.00  0.00     0.158 HD
ENDBRANCH  20  23
ENDBRANCH  10  17
ENDBRANCH   8  10
ENDBRANCH   4   8
BRANCH   6  26
HETATM   26  O3  UNL     1      15.132  44.112  -3.801  1.00  0.00    -0.344 OA
ATOM     27  H3  UNL     1      15.497  44.888  -3.391  1.00  0.00     0.219 HD
ENDBRANCH   6  26
ENDBRANCH   1   2
BRANCH   1  28
HETATM   28  N5  UNL     1       9.390  44.072  -3.964  1.00  0.00    -0.369 N 
ATOM     29  H5  UNL     1       9.352  43.334  -3.260  1.00  0.00     0.161 HD
BRANCH  28  30
HETATM   30  C6  UNL     1       8.508  45.155  -3.898  1.00  0.00     0.137 C 
BRANCH  30  31
HETATM   31  C7  UNL     1       8.407  45.879  -2.642  1.00  0.00     0.192 C 
HETATM   32  O1  UNL     1       7.407  45.831  -1.967  1.00  0.00    -0.290 OA
BRANCH  31  33
HETATM   33  C8  UNL     1       9.548  46.695  -2.169  1.00  0.00     0.355 C 
BRANCH  33  34
HETATM   34  N6  UNL     1       9.193  47.664  -1.163  1.00  0.00     0.087 N 
HETATM   35  C9  UNL     1       9.256  49.028  -1.649  1.00  0.00     0.309 C 
HETATM   36  C10 UNL     1      10.164  47.519  -0.085  1.00  0.00     0.309 C 
ENDBRANCH  33  34
ENDBRANCH  31  33
ENDBRANCH  30  31
ENDBRANCH  28  30
ENDBRANCH   1  28
BRANCH   1  37
HETATM   37  N7  UNL     1       9.929  42.925  -5.915  1.00  0.00    -0.134 N 
HETATM   38  C11 UNL     1       9.985  42.913  -7.244  1.00  0.00     0.175 A 
HETATM   39  N12 UNL     1       9.493  41.697  -7.600  1.00  0.00    -0.246 N 
HETATM   40  N13 UNL     1       9.154  41.002  -6.546  1.00  0.00     0.093 N 
ATOM     41  H12 UNL     1       9.400  41.370  -8.561  1.00  0.00     0.190 HD
HETATM   42  C14 UNL     1       8.632  39.766  -6.377  1.00  0.00     0.727 A 
HETATM   43  C16 UNL     1       9.411  41.734  -5.474  1.00  0.00     0.739 A 
HETATM   44  N15 UNL     1       8.399  39.338  -5.121  1.00  0.00    -0.020 N 
HETATM   45  C15 UNL     1       8.662  40.089  -4.037  1.00  0.00     0.705 A 
ATOM     46  H15 UNL     1       8.006  38.407  -4.987  1.00  0.00     0.203 HD
HETATM   47  N17 UNL     1       9.179  41.309  -4.216  1.00  0.00    -0.019 N 
ATOM     48  H17 UNL     1       9.393  41.907  -3.418  1.00  0.00     0.203 HD
BRANCH  38  49
HETATM   49  C12 UNL     1      10.458  43.935  -8.134  1.00  0.00     0.149 A 
HETATM   50  N8  UNL     1       9.855  44.875  -8.853  1.00  0.00    -0.234 N 
HETATM   51  O2  UNL     1      10.725  45.569  -9.501  1.00  0.00    -0.155 OA
ATOM     52  H8  UNL     1       8.847  45.027  -8.887  1.00  0.00     0.197 HD
HETATM   53  N9  UNL     1      11.917  45.154  -9.267  1.00  0.00    -0.222 N 
HETATM   54  C13 UNL     1      11.814  44.137  -8.422  1.00  0.00     0.174 A 
ATOM     55  H9  UNL     1      12.779  45.533  -9.657  1.00  0.00     0.198 HD
BRANCH  54  56
HETATM   56  N10 UNL     1      12.805  43.436  -7.937  1.00  0.00    -0.289 N 
ATOM     57  H10 UNL     1      12.694  42.996  -7.023  1.00  0.00     0.188 HD
BRANCH  56  58
HETATM   58  N11 UNL     1      13.991  43.269  -8.614  1.00  0.00    -0.344 N 
ATOM     59 2H11 UNL     1      14.261  43.989  -9.285  1.00  0.00     0.176 HD
ATOM     60 1H11 UNL     1      14.597  42.461  -8.465  1.00  0.00     0.176 HD
ENDBRANCH  56  58
ENDBRANCH  54  56
ENDBRANCH  38  49
BRANCH  42  61
HETATM   61  N14 UNL     1       8.381  39.047  -7.404  1.00  0.00    -0.232 N 
ATOM     62 2H14 UNL     1       9.012  38.995  -8.203  1.00  0.00     0.174 HD
ATOM     63 1H14 UNL     1       7.519  38.502  -7.433  1.00  0.00     0.174 HD
ENDBRANCH  42  61
BRANCH  45  64
HETATM   64  N16 UNL     1       8.414  39.621  -2.833  1.00  0.00    -0.234 N 
ATOM     65 2H16 UNL     1       8.014  38.693  -2.696  1.00  0.00     0.174 HD
ATOM     66 1H16 UNL     1       8.619  40.188  -2.010  1.00  0.00     0.174 HD
ENDBRANCH  45  64
ENDBRANCH   1  37
TORSDOF 19
ENDMDL
MODEL 5
REMARK VINA RESULT: -6.523464061      2.282      5.643
REMARK  19 active torsions:
REMARK  status: ('A' for Active; 'I' for Inactive)
REMARK    1  A    between atoms: C2_2  and  N1_3 
REMARK    2  A    between atoms: C2_2  and  C3_7 
REMARK    3  A    between atoms: C3_7  and  N2_8 
REMARK    4  A    between atoms: C3_7  and  C19_58 
REMARK    5  A    between atoms: N2_8  and  N3_10 
REMARK    6  A    between atoms: C4_13  and  C5_14 
REMARK    7  A    between atoms: C5_14  and  N5_15 
REMARK    8  A    between atoms: C5_14  and  N7_24 
REMARK    9  A    between atoms: N5_15  and  C6_17 
REMARK   10  A    between atoms: C6_17  and  C7_18 
REMARK   11  A    between atoms: C7_18  and  C8_20 
REMARK   12  A    between atoms: C8_20  and  N6_21 
REMARK   13  A    between atoms: C11_25  and  C12_26 
REMARK   14  A    between atoms: C13_32  and  N10_33 
REMARK   15  A    between atoms: N10_33  and  N11_35 
REMARK   16  A    between atoms: C14_41  and  N14_42 
REMARK   17  A    between atoms: C15_47  and  N16_48 
REMARK   18  A    between atoms: C18_55  and  O3_56 
REMARK   19  A    between atoms: C21_61  and  N18_62 
ROOT
HETATM    1  C5  UNL     1       9.444  43.903  -6.959  1.00  0.00     0.261 C 
ENDROOT
BRANCH   1   2
HETATM    2  C4  UNL     1       9.828  44.657  -8.209  1.00  0.00     0.075 A 
HETATM    3  N4  UNL     1       9.516  44.419  -9.482  1.00  0.00    -0.278 N 
HETATM    4  N3  UNL     1      10.048  45.312 -10.309  1.00  0.00    -0.176 N 
ATOM      5  H4  UNL     1       8.934  43.639  -9.788  1.00  0.00     0.189 HD
HETATM    6  C18 UNL     1      10.735  46.166  -9.552  1.00  0.00     0.180 A 
HETATM    7  C17 UNL     1      10.617  45.783  -8.227  1.00  0.00     0.090 A 
BRANCH   4   8
HETATM    8  N2  UNL     1       9.910  45.292 -11.677  1.00  0.00    -0.300 N 
ATOM      9  H2  UNL     1      10.456  44.587 -12.172  1.00  0.00     0.183 HD
BRANCH   8  10
HETATM   10  C3  UNL     1       9.100  46.134 -12.486  1.00  0.00     0.181 C 
BRANCH  10  11
HETATM   11  C2  UNL     1       9.993  46.984 -13.419  1.00  0.00     0.209 C 
HETATM   12  C1  UNL     1       9.118  47.688 -14.443  1.00  0.00     0.042 C 
BRANCH  11  13
HETATM   13  N1  UNL     1      10.652  48.008 -12.634  1.00  0.00    -0.073 N 
ATOM     14  H13 UNL     1      10.101  48.861 -12.548  1.00  0.00     0.274 HD
ATOM     15  H12 UNL     1      10.699  47.779 -11.640  1.00  0.00     0.274 HD
ATOM     16  H11 UNL     1      11.571  48.167 -13.049  1.00  0.00     0.274 HD
ENDBRANCH  11  13
ENDBRANCH  10  11
BRANCH  10  17
HETATM   17  C19 UNL     1       8.228  45.274 -13.416  1.00  0.00     0.044 A 
HETATM   18  C20 UNL     1       8.796  44.281 -14.167  1.00  0.00     0.080 A 
HETATM   19  S1  UNL     1       7.454  43.641 -14.999  1.00  0.00    -0.064 SA
HETATM   20  C21 UNL     1       6.251  44.659 -14.354  1.00  0.00     0.142 A 
HETATM   21  N19 UNL     1       6.930  45.448 -13.528  1.00  0.00    -0.338 N 
ATOM     22  H19 UNL     1       6.453  46.173 -12.993  1.00  0.00     0.168 HD
BRANCH  20  23
HETATM   23  N18 UNL     1       4.955  44.689 -14.592  1.00  0.00    -0.380 N 
ATOM     24 2H18 UNL     1       4.305  43.905 -14.543  1.00  0.00     0.158 HD
ATOM     25 1H18 UNL     1       4.358  45.472 -14.862  1.00  0.00     0.158 HD
ENDBRANCH  20  23
ENDBRANCH  10  17
ENDBRANCH   8  10
ENDBRANCH   4   8
BRANCH   6  26
HETATM   26  O3  UNL     1      11.481  47.284  -9.934  1.00  0.00    -0.344 OA
ATOM     27  H3  UNL     1      12.335  47.570  -9.632  1.00  0.00     0.219 HD
ENDBRANCH   6  26
ENDBRANCH   1   2
BRANCH   1  28
HETATM   28  N5  UNL     1       9.821  44.727  -5.855  1.00  0.00    -0.369 N 
ATOM     29  H5  UNL     1      10.690  45.260  -5.884  1.00  0.00     0.161 HD
BRANCH  28  30
HETATM   30  C6  UNL     1       8.987  44.796  -4.734  1.00  0.00     0.137 C 
BRANCH  30  31
HETATM   31  C7  UNL     1       9.549  45.303  -3.494  1.00  0.00     0.192 C 
HETATM   32  O1  UNL     1      10.620  44.922  -3.086  1.00  0.00    -0.290 OA
BRANCH  31  33
HETATM   33  C8  UNL     1       8.804  46.311  -2.706  1.00  0.00     0.355 C 
BRANCH  33  34
HETATM   34  N6  UNL     1       9.261  47.663  -2.910  1.00  0.00     0.087 N 
HETATM   35  C9  UNL     1       9.150  48.480  -1.718  1.00  0.00     0.309 C 
HETATM   36  C10 UNL     1       8.405  48.240  -3.939  1.00  0.00     0.309 C 
ENDBRANCH  33  34
ENDBRANCH  31  33
ENDBRANCH  30  31
ENDBRANCH  28  30
ENDBRANCH   1  28
BRANCH   1  37
HETATM   37  N7  UNL     1      10.248  42.683  -6.883  1.00  0.00    -0.134 N 
HETATM   38  C11 UNL     1       9.973  41.505  -7.435  1.00  0.00     0.175 A 
HETATM   39  N12 UNL     1      11.014  40.707  -7.083  1.00  0.00    -0.246 N 
HETATM   40  N13 UNL     1      11.881  41.360  -6.356  1.00  0.00     0.093 N 
ATOM     41  H12 UNL     1      11.107  39.727  -7.351  1.00  0.00     0.190 HD
HETATM   42  C14 UNL     1      13.055  41.018  -5.778  1.00  0.00     0.727 A 
HETATM   43  C16 UNL     1      11.439  42.599  -6.208  1.00  0.00     0.739 A 
HETATM   44  N15 UNL     1      13.720  41.958  -5.078  1.00  0.00    -0.020 N 
HETATM   45  C15 UNL     1      13.263  43.214  -4.932  1.00  0.00     0.705 A 
ATOM     46  H15 UNL     1      14.606  41.706  -4.641  1.00  0.00     0.203 HD
HETATM   47  N17 UNL     1      12.101  43.541  -5.509  1.00  0.00    -0.019 N 
ATOM     48  H17 UNL     1      11.724  44.485  -5.421  1.00  0.00     0.203 HD
BRANCH  38  49
HETATM   49  C12 UNL     1       8.841  41.128  -8.233  1.00  0.00     0.149 A 
HETATM   50  N8  UNL     1       8.511  41.321  -9.505  1.00  0.00    -0.234 N 
HETATM   51  O2  UNL     1       7.373  40.775  -9.760  1.00  0.00    -0.155 OA
ATOM     52  H8  UNL     1       9.078  41.830 -10.184  1.00  0.00     0.197 HD
HETATM   53  N9  UNL     1       6.888  40.205  -8.718  1.00  0.00    -0.222 N 
HETATM   54  C13 UNL     1       7.759  40.392  -7.734  1.00  0.00     0.174 A 
ATOM     55  H9  UNL     1       6.002  39.704  -8.656  1.00  0.00     0.198 HD
BRANCH  54  56
HETATM   56  N10 UNL     1       7.635  39.965  -6.505  1.00  0.00    -0.289 N 
ATOM     57  H10 UNL     1       8.173  40.423  -5.769  1.00  0.00     0.188 HD
BRANCH  56  58
HETATM   58  N11 UNL     1       6.804  38.921  -6.166  1.00  0.00    -0.344 N 
ATOM     59 2H11 UNL     1       7.233  38.015  -5.975  1.00  0.00     0.176 HD
ATOM     60 1H11 UNL     1       5.791  39.027  -6.103  1.00  0.00     0.176 HD
ENDBRANCH  56  58
ENDBRANCH  54  56
ENDBRANCH  38  49
BRANCH  42  61
HETATM   61  N14 UNL     1      13.495  39.825  -5.914  1.00  0.00    -0.232 N 
ATOM     62 2H14 UNL     1      13.151  39.048  -5.350  1.00  0.00     0.174 HD
ATOM     63 1H14 UNL     1      14.218  39.636  -6.608  1.00  0.00     0.174 HD
ENDBRANCH  42  61
BRANCH  45  64
HETATM   64  N16 UNL     1      13.953  44.092  -4.237  1.00  0.00    -0.234 N 
ATOM     65 2H16 UNL     1      14.369  43.848  -3.338  1.00  0.00     0.174 HD
ATOM     66 1H16 UNL     1      14.083  45.040  -4.592  1.00  0.00     0.174 HD
ENDBRANCH  45  64
ENDBRANCH   1  37
TORSDOF 19
ENDMDL
