MODEL 1
REMARK VINA RESULT: -5.352704805      0.000      0.000
REMARK  3 active torsions:
REMARK  status: ('A' for Active; 'I' for Inactive)
REMARK    1  A    between atoms: N1_2  and  C2_4 
REMARK    2  A    between atoms: C3_7  and  N3_8 
REMARK    3  A    between atoms: C5_13  and  N5_14 
ROOT
HETATM    1  C2  UNL     1      43.906  23.375  98.165  1.00  0.00     0.683 A 
HETATM    2  N2  UNL     1      44.007  22.333  99.002  1.00  0.00    -0.169 N 
ATOM      3  H2  UNL     1      44.452  21.477  98.670  1.00  0.00     0.186 HD
HETATM    4  C3  UNL     1      43.545  22.377 100.263  1.00  0.00     0.216 A 
HETATM    5  C4  UNL     1      42.950  23.549 100.682  1.00  0.00     0.141 A 
HETATM    6  N4  UNL     1      42.440  23.671 101.996  1.00  0.00    -0.094 NA
HETATM    7  C5  UNL     1      42.833  24.636  99.840  1.00  0.00     0.145 A 
HETATM    8  N6  UNL     1      43.326  24.510  98.582  1.00  0.00    -0.171 N 
HETATM    9  C6  UNL     1      43.230  25.610  97.666  1.00  0.00     0.177 C 
ENDROOT
BRANCH   1  10
HETATM   10  N1  UNL     1      44.354  23.312  96.965  1.00  0.00    -0.230 N 
HETATM   11  C1  UNL     1      44.732  22.016  96.441  1.00  0.00     0.165 C 
ATOM     12  H1  UNL     1      44.441  24.153  96.394  1.00  0.00     0.177 HD
ENDBRANCH   1  10
BRANCH   4  13
HETATM   13  N3  UNL     1      43.664  21.246 101.145  1.00  0.00    -0.095 N 
HETATM   14  O1  UNL     1      42.772  20.379 101.104  1.00  0.00    -0.530 OA
HETATM   15  O2  UNL     1      44.701  21.095 102.006  1.00  0.00    -0.530 OA
ENDBRANCH   4  13
BRANCH   7  16
HETATM   16  N5  UNL     1      42.277  25.753 100.210  1.00  0.00    -0.383 N 
ATOM     17  H52 UNL     1      42.827  26.457 100.700  1.00  0.00     0.157 HD
ATOM     18  H51 UNL     1      41.295  25.964 100.029  1.00  0.00     0.157 HD
ENDBRANCH   7  16
TORSDOF 3
ENDMDL
MODEL 2
REMARK VINA RESULT: -5.256787534      2.141      3.160
REMARK  3 active torsions:
REMARK  status: ('A' for Active; 'I' for Inactive)
REMARK    1  A    between atoms: N1_2  and  C2_4 
REMARK    2  A    between atoms: C3_7  and  N3_8 
REMARK    3  A    between atoms: C5_13  and  N5_14 
ROOT
HETATM    1  C2  UNL     1      44.476  24.144  98.858  1.00  0.00     0.683 A 
HETATM    2  N2  UNL     1      44.273  24.723 100.049  1.00  0.00    -0.169 N 
ATOM      3  H2  UNL     1      44.499  25.711 100.161  1.00  0.00     0.186 HD
HETATM    4  C3  UNL     1      43.781  24.047 101.102  1.00  0.00     0.216 A 
HETATM    5  C4  UNL     1      43.484  22.713 100.920  1.00  0.00     0.141 A 
HETATM    6  N4  UNL     1      42.963  21.937 101.981  1.00  0.00    -0.094 NA
HETATM    7  C5  UNL     1      43.684  22.093  99.702  1.00  0.00     0.145 A 
HETATM    8  N6  UNL     1      44.184  22.845  98.690  1.00  0.00    -0.171 N 
HETATM    9  C6  UNL     1      44.410  22.250  97.405  1.00  0.00     0.177 C 
ENDROOT
BRANCH   1  10
HETATM   10  N1  UNL     1      44.946  24.806  97.866  1.00  0.00    -0.230 N 
HETATM   11  C1  UNL     1      44.175  25.924  97.361  1.00  0.00     0.165 C 
ATOM     12  H1  UNL     1      45.839  24.553  97.444  1.00  0.00     0.177 HD
ENDBRANCH   1  10
BRANCH   4  13
HETATM   13  N3  UNL     1      43.572  24.690 102.373  1.00  0.00    -0.095 N 
HETATM   14  O1  UNL     1      42.519  25.333 102.534  1.00  0.00    -0.530 OA
HETATM   15  O2  UNL     1      44.471  24.618 103.386  1.00  0.00    -0.530 OA
ENDBRANCH   4  13
BRANCH   7  16
HETATM   16  N5  UNL     1      43.412  20.836  99.503  1.00  0.00    -0.383 N 
ATOM     17  H52 UNL     1      43.119  20.250 100.284  1.00  0.00     0.157 HD
ATOM     18  H51 UNL     1      43.478  20.398  98.585  1.00  0.00     0.157 HD
ENDBRANCH   7  16
TORSDOF 3
ENDMDL
MODEL 3
REMARK VINA RESULT: -4.897477723      3.380      5.269
REMARK  3 active torsions:
REMARK  status: ('A' for Active; 'I' for Inactive)
REMARK    1  A    between atoms: N1_2  and  C2_4 
REMARK    2  A    between atoms: C3_7  and  N3_8 
REMARK    3  A    between atoms: C5_13  and  N5_14 
ROOT
HETATM    1  C2  UNL     1      42.939  24.467  99.827  1.00  0.00     0.683 A 
HETATM    2  N2  UNL     1      42.897  25.599  99.110  1.00  0.00    -0.169 N 
ATOM      3  H2  UNL     1      42.482  26.431  99.529  1.00  0.00     0.186 HD
HETATM    4  C3  UNL     1      43.382  25.676  97.859  1.00  0.00     0.216 A 
HETATM    5  C4  UNL     1      43.938  24.534  97.320  1.00  0.00     0.141 A 
HETATM    6  N4  UNL     1      44.470  24.538  96.010  1.00  0.00    -0.094 NA
HETATM    7  C5  UNL     1      43.994  23.356  98.038  1.00  0.00     0.145 A 
HETATM    8  N6  UNL     1      43.481  23.362  99.294  1.00  0.00    -0.171 N 
HETATM    9  C6  UNL     1      43.514  22.164 100.083  1.00  0.00     0.177 C 
ENDROOT
BRANCH   1  10
HETATM   10  N1  UNL     1      42.470  24.415 101.019  1.00  0.00    -0.230 N 
HETATM   11  C1  UNL     1      43.032  25.302 102.016  1.00  0.00     0.165 C 
ATOM     12  H1  UNL     1      41.720  23.766 101.258  1.00  0.00     0.177 HD
ENDBRANCH   1  10
BRANCH   4  13
HETATM   13  N3  UNL     1      43.326  26.902  97.107  1.00  0.00    -0.095 N 
HETATM   14  O1  UNL     1      42.273  27.163  96.497  1.00  0.00    -0.530 OA
HETATM   15  O2  UNL     1      44.366  27.769  97.042  1.00  0.00    -0.530 OA
ENDBRANCH   4  13
BRANCH   7  16
HETATM   16  N5  UNL     1      44.513  22.265  97.554  1.00  0.00    -0.383 N 
ATOM     17  H52 UNL     1      43.988  21.708  96.880  1.00  0.00     0.157 HD
ATOM     18  H51 UNL     1      45.439  21.931  97.821  1.00  0.00     0.157 HD
ENDBRANCH   7  16
TORSDOF 3
ENDMDL
MODEL 4
REMARK VINA RESULT: -4.889502873      2.052      3.311
REMARK  3 active torsions:
REMARK  status: ('A' for Active; 'I' for Inactive)
REMARK    1  A    between atoms: N1_2  and  C2_4 
REMARK    2  A    between atoms: C3_7  and  N3_8 
REMARK    3  A    between atoms: C5_13  and  N5_14 
ROOT
HETATM    1  C2  UNL     1      43.533  25.474  98.366  1.00  0.00     0.683 A 
HETATM    2  N2  UNL     1      43.582  25.624  99.697  1.00  0.00    -0.169 N 
ATOM      3  H2  UNL     1      43.419  26.550 100.094  1.00  0.00     0.186 HD
HETATM    4  C3  UNL     1      43.838  24.599 100.527  1.00  0.00     0.216 A 
HETATM    5  C4  UNL     1      44.053  23.360  99.961  1.00  0.00     0.141 A 
HETATM    6  N4  UNL     1      44.326  22.232 100.771  1.00  0.00    -0.094 NA
HETATM    7  C5  UNL     1      44.008  23.178  98.593  1.00  0.00     0.145 A 
HETATM    8  N6  UNL     1      43.744  24.265  97.824  1.00  0.00    -0.171 N 
HETATM    9  C6  UNL     1      43.686  24.131  96.398  1.00  0.00     0.177 C 
ENDROOT
BRANCH   1  10
HETATM   10  N1  UNL     1      43.288  26.466  97.592  1.00  0.00    -0.230 N 
HETATM   11  C1  UNL     1      44.381  27.349  97.242  1.00  0.00     0.165 C 
ATOM     12  H1  UNL     1      42.348  26.628  97.231  1.00  0.00     0.177 HD
ENDBRANCH   1  10
BRANCH   4  13
HETATM   13  N3  UNL     1      43.885  24.783 101.954  1.00  0.00    -0.095 N 
HETATM   14  O1  UNL     1      42.817  25.019 102.547  1.00  0.00    -0.530 OA
HETATM   15  O2  UNL     1      45.039  24.710 102.663  1.00  0.00    -0.530 OA
ENDBRANCH   4  13
BRANCH   7  16
HETATM   16  N5  UNL     1      44.207  22.021  98.033  1.00  0.00    -0.383 N 
ATOM     17  H52 UNL     1      44.164  21.170  98.594  1.00  0.00     0.157 HD
ATOM     18  H51 UNL     1      44.408  21.919  97.038  1.00  0.00     0.157 HD
ENDBRANCH   7  16
TORSDOF 3
ENDMDL
MODEL 5
REMARK VINA RESULT: -4.878130082      2.125      3.179
REMARK  3 active torsions:
REMARK  status: ('A' for Active; 'I' for Inactive)
REMARK    1  A    between atoms: N1_2  and  C2_4 
REMARK    2  A    between atoms: C3_7  and  N3_8 
REMARK    3  A    between atoms: C5_13  and  N5_14 
ROOT
HETATM    1  C2  UNL     1      42.846  24.524 100.634  1.00  0.00     0.683 A 
HETATM    2  N2  UNL     1      42.746  23.275 100.157  1.00  0.00    -0.169 N 
ATOM      3  H2  UNL     1      42.283  23.127  99.260  1.00  0.00     0.186 HD
HETATM    4  C3  UNL     1      43.234  22.212 100.819  1.00  0.00     0.216 A 
HETATM    5  C4  UNL     1      43.854  22.445 102.028  1.00  0.00     0.141 A 
HETATM    6  N4  UNL     1      44.393  21.375 102.782  1.00  0.00    -0.094 NA
HETATM    7  C5  UNL     1      43.971  23.721 102.541  1.00  0.00     0.145 A 
HETATM    8  N6  UNL     1      43.452  24.740 101.811  1.00  0.00    -0.171 N 
HETATM    9  C6  UNL     1      43.546  26.086 102.299  1.00  0.00     0.177 C 
ENDROOT
BRANCH   1  10
HETATM   10  N1  UNL     1      42.374  25.524  99.987  1.00  0.00    -0.230 N 
HETATM   11  C1  UNL     1      42.697  25.645  98.580  1.00  0.00     0.165 C 
ATOM     12  H1  UNL     1      41.786  26.217 100.450  1.00  0.00     0.177 HD
ENDBRANCH   1  10
BRANCH   4  13
HETATM   13  N3  UNL     1      43.114  20.879 100.288  1.00  0.00    -0.095 N 
HETATM   14  O1  UNL     1      43.610  20.651  99.170  1.00  0.00    -0.530 OA
HETATM   15  O2  UNL     1      42.489  19.878 100.957  1.00  0.00    -0.530 OA
ENDBRANCH   4  13
BRANCH   7  16
HETATM   16  N5  UNL     1      44.552  23.969 103.679  1.00  0.00    -0.383 N 
ATOM     17  H52 UNL     1      44.375  23.365 104.482  1.00  0.00     0.157 HD
ATOM     18  H51 UNL     1      45.190  24.753 103.811  1.00  0.00     0.157 HD
ENDBRANCH   7  16
TORSDOF 3
ENDMDL
