MODEL 1
REMARK VINA RESULT: -6.015175255      0.000      0.000
REMARK  2 active torsions:
REMARK  status: ('A' for Active; 'I' for Inactive)
REMARK    1  A    between atoms: C1_2  and  C2_4 
REMARK    2  A    between atoms: N5_12  and  O2_13 
ROOT
HETATM    1  C2  UNL     1      43.477  24.831  99.803  1.00  0.00     0.136 A 
HETATM    2  N2  UNL     1      43.900  25.550 100.853  1.00  0.00    -0.337 N 
ATOM      3  H2  UNL     1      43.948  26.568 100.893  1.00  0.00     0.167 HD
HETATM    4  C3  UNL     1      44.254  24.707 101.857  1.00  0.00     0.133 A 
HETATM    5  N3  UNL     1      44.750  25.017 103.136  1.00  0.00    -0.082 NA
HETATM    6  C4  UNL     1      44.050  23.397 101.434  1.00  0.00     0.089 A 
HETATM    7  C5  UNL     1      44.131  22.056 101.761  1.00  0.00     0.186 A 
HETATM    8  N4  UNL     1      44.588  21.542 103.006  1.00  0.00    -0.077 NA
HETATM    9  N5  UNL     1      43.694  21.409 100.667  1.00  0.00    -0.106 N 
HETATM   10  O3  UNL     1      43.367  22.263  99.733  1.00  0.00    -0.205 OA
HETATM   11  C6  UNL     1      43.566  23.499 100.151  1.00  0.00     0.150 A 
ENDROOT
BRANCH   1  12
HETATM   12  C1  UNL     1      43.010  25.365  98.530  1.00  0.00     0.284 C 
HETATM   13  N1  UNL     1      43.664  25.045  97.315  1.00  0.00    -0.056 NA
HETATM   14  O1  UNL     1      42.015  26.123  98.490  1.00  0.00    -0.269 OA
ENDBRANCH   1  12
BRANCH   9  15
HETATM   15  O2  UNL     1      43.623  20.032 100.598  1.00  0.00    -0.261 OA
ATOM     16  H2  UNL     1      43.121  19.579  99.932  1.00  0.00     0.247 HD
ENDBRANCH   9  15
TORSDOF 2
ENDMDL
MODEL 2
REMARK VINA RESULT: -5.900847757      2.138      3.263
REMARK  2 active torsions:
REMARK  status: ('A' for Active; 'I' for Inactive)
REMARK    1  A    between atoms: C1_2  and  C2_4 
REMARK    2  A    between atoms: N5_12  and  O2_13 
ROOT
HETATM    1  C2  UNL     1      44.053  23.244  99.163  1.00  0.00     0.136 A 
HETATM    2  N2  UNL     1      44.339  22.050  99.702  1.00  0.00    -0.337 N 
ATOM      3  H2  UNL     1      44.482  21.185  99.180  1.00  0.00     0.167 HD
HETATM    4  C3  UNL     1      44.409  22.175 101.052  1.00  0.00     0.133 A 
HETATM    5  N3  UNL     1      44.682  21.188 102.016  1.00  0.00    -0.082 NA
HETATM    6  C4  UNL     1      44.158  23.500 101.393  1.00  0.00     0.089 A 
HETATM    7  C5  UNL     1      44.038  24.423 102.415  1.00  0.00     0.186 A 
HETATM    8  N4  UNL     1      44.196  24.138 103.800  1.00  0.00    -0.077 NA
HETATM    9  N5  UNL     1      43.754  25.584 101.799  1.00  0.00    -0.106 N 
HETATM   10  O3  UNL     1      43.698  25.410 100.505  1.00  0.00    -0.205 OA
HETATM   11  C6  UNL     1      43.939  24.149 100.200  1.00  0.00     0.150 A 
ENDROOT
BRANCH   1  12
HETATM   12  C1  UNL     1      43.893  23.530  97.744  1.00  0.00     0.284 C 
HETATM   13  N1  UNL     1      44.399  22.649  96.756  1.00  0.00    -0.056 NA
HETATM   14  O1  UNL     1      43.302  24.568  97.370  1.00  0.00    -0.269 OA
ENDBRANCH   1  12
BRANCH   9  15
HETATM   15  O2  UNL     1      43.558  26.762 102.490  1.00  0.00    -0.261 OA
ATOM     16  H2  UNL     1      43.237  27.552 102.072  1.00  0.00     0.247 HD
ENDBRANCH   9  15
TORSDOF 2
ENDMDL
MODEL 3
REMARK VINA RESULT: -5.672843960      2.256      3.189
REMARK  2 active torsions:
REMARK  status: ('A' for Active; 'I' for Inactive)
REMARK    1  A    between atoms: C1_2  and  C2_4 
REMARK    2  A    between atoms: N5_12  and  O2_13 
ROOT
HETATM    1  C2  UNL     1      43.449  25.171  98.069  1.00  0.00     0.136 A 
HETATM    2  N2  UNL     1      43.886  24.014  97.550  1.00  0.00    -0.337 N 
ATOM      3  H2  UNL     1      44.198  23.878  96.588  1.00  0.00     0.167 HD
HETATM    4  C3  UNL     1      43.848  23.053  98.508  1.00  0.00     0.133 A 
HETATM    5  N3  UNL     1      44.212  21.698  98.413  1.00  0.00    -0.082 NA
HETATM    6  C4  UNL     1      43.370  23.614  99.688  1.00  0.00     0.089 A 
HETATM    7  C5  UNL     1      43.040  23.401 101.013  1.00  0.00     0.186 A 
HETATM    8  N4  UNL     1      43.151  22.158 101.696  1.00  0.00    -0.077 NA
HETATM    9  N5  UNL     1      42.615  24.597 101.458  1.00  0.00    -0.106 N 
HETATM   10  O3  UNL     1      42.671  25.485 100.501  1.00  0.00    -0.205 OA
HETATM   11  C6  UNL     1      43.127  24.935  99.391  1.00  0.00     0.150 A 
ENDROOT
BRANCH   1  12
HETATM   12  C1  UNL     1      43.339  26.440  97.364  1.00  0.00     0.284 C 
HETATM   13  N1  UNL     1      44.465  27.278  97.177  1.00  0.00    -0.056 NA
HETATM   14  O1  UNL     1      42.235  26.815  96.908  1.00  0.00    -0.269 OA
ENDBRANCH   1  12
BRANCH   9  15
HETATM   15  O2  UNL     1      42.191  24.797 102.756  1.00  0.00    -0.261 OA
ATOM     16  H2  UNL     1      42.675  24.476 103.507  1.00  0.00     0.247 HD
ENDBRANCH   9  15
TORSDOF 2
ENDMDL
MODEL 4
REMARK VINA RESULT: -5.668963793      2.401      4.367
REMARK  2 active torsions:
REMARK  status: ('A' for Active; 'I' for Inactive)
REMARK    1  A    between atoms: C1_2  and  C2_4 
REMARK    2  A    between atoms: N5_12  and  O2_13 
ROOT
HETATM    1  C2  UNL     1      42.992  24.517  99.990  1.00  0.00     0.136 A 
HETATM    2  N2  UNL     1      42.537  25.672  99.484  1.00  0.00    -0.337 N 
ATOM      3  H2  UNL     1      42.071  26.408 100.016  1.00  0.00     0.167 HD
HETATM    4  C3  UNL     1      42.794  25.708  98.152  1.00  0.00     0.133 A 
HETATM    5  N3  UNL     1      42.495  26.720  97.222  1.00  0.00    -0.082 NA
HETATM    6  C4  UNL     1      43.440  24.530  97.789  1.00  0.00     0.089 A 
HETATM    7  C5  UNL     1      44.007  23.797  96.762  1.00  0.00     0.186 A 
HETATM    8  N4  UNL     1      44.085  24.213  95.404  1.00  0.00    -0.077 NA
HETATM    9  N5  UNL     1      44.436  22.665  97.345  1.00  0.00    -0.106 N 
HETATM   10  O3  UNL     1      44.165  22.680  98.624  1.00  0.00    -0.205 OA
HETATM   11  C6  UNL     1      43.553  23.803  98.951  1.00  0.00     0.150 A 
ENDROOT
BRANCH   1  12
HETATM   12  C1  UNL     1      42.909  24.098 101.383  1.00  0.00     0.284 C 
HETATM   13  N1  UNL     1      42.933  25.043 102.437  1.00  0.00    -0.056 NA
HETATM   14  O1  UNL     1      42.815  22.883 101.672  1.00  0.00    -0.269 OA
ENDBRANCH   1  12
BRANCH   9  15
HETATM   15  O2  UNL     1      45.067  21.660  96.640  1.00  0.00    -0.261 OA
ATOM     16  H2  UNL     1      44.991  20.744  96.878  1.00  0.00     0.247 HD
ENDBRANCH   9  15
TORSDOF 2
ENDMDL
MODEL 5
REMARK VINA RESULT: -5.665445176      1.904      2.814
REMARK  2 active torsions:
REMARK  status: ('A' for Active; 'I' for Inactive)
REMARK    1  A    between atoms: C1_2  and  C2_4 
REMARK    2  A    between atoms: N5_12  and  O2_13 
ROOT
HETATM    1  C2  UNL     1      43.375  24.223  99.356  1.00  0.00     0.136 A 
HETATM    2  N2  UNL     1      43.418  22.985  98.844  1.00  0.00    -0.337 N 
ATOM      3  H2  UNL     1      43.265  22.744  97.864  1.00  0.00     0.167 HD
HETATM    4  C3  UNL     1      43.698  22.102  99.836  1.00  0.00     0.133 A 
HETATM    5  N3  UNL     1      43.838  20.704  99.760  1.00  0.00    -0.082 NA
HETATM    6  C4  UNL     1      43.840  22.800 101.031  1.00  0.00     0.089 A 
HETATM    7  C5  UNL     1      44.097  22.721 102.387  1.00  0.00     0.186 A 
HETATM    8  N4  UNL     1      44.361  21.521 103.103  1.00  0.00    -0.077 NA
HETATM    9  N5  UNL     1      44.038  23.992 102.823  1.00  0.00    -0.106 N 
HETATM   10  O3  UNL     1      43.766  24.800 101.832  1.00  0.00    -0.205 OA
HETATM   11  C6  UNL     1      43.635  24.121 100.708  1.00  0.00     0.150 A 
ENDROOT
BRANCH   1  12
HETATM   12  C1  UNL     1      43.105  25.449  98.616  1.00  0.00     0.284 C 
HETATM   13  N1  UNL     1      44.067  26.004  97.738  1.00  0.00    -0.056 NA
HETATM   14  O1  UNL     1      42.007  26.037  98.747  1.00  0.00    -0.269 OA
ENDBRANCH   1  12
BRANCH   9  15
HETATM   15  O2  UNL     1      44.242  24.333 104.144  1.00  0.00    -0.261 OA
ATOM     16  H2  UNL     1      44.125  23.715 104.855  1.00  0.00     0.247 HD
ENDBRANCH   9  15
TORSDOF 2
ENDMDL
