MODEL 1
REMARK VINA RESULT: -6.384495144      0.000      0.000
REMARK  3 active torsions:
REMARK  status: ('A' for Active; 'I' for Inactive)
REMARK    1  A    between atoms: N1_2  and  C2_4 
REMARK    2  A    between atoms: C4_9  and  N4_10 
REMARK    3  A    between atoms: N5_14  and  N6_16 
ROOT
HETATM    1  C2  UNL     1      43.820  25.070  99.428  1.00  0.00     0.680 A 
HETATM    2  N2  UNL     1      43.695  23.832  98.872  1.00  0.00    -0.176 N 
ATOM      3  H2  UNL     1      43.577  23.717  97.866  1.00  0.00     0.185 HD
HETATM    4  C3  UNL     1      43.732  22.759  99.698  1.00  0.00     0.168 A 
HETATM    5  N3  UNL     1      43.604  21.442  99.148  1.00  0.00    -0.079 NA
HETATM    6  C4  UNL     1      43.890  22.891 101.055  1.00  0.00     0.190 A 
HETATM    7  C5  UNL     1      44.016  24.138 101.599  1.00  0.00     0.172 A 
HETATM    8  N5  UNL     1      44.192  24.439 102.820  1.00  0.00    -0.289 N 
ATOM      9  H5  UNL     1      44.266  25.430 103.049  1.00  0.00     0.188 HD
HETATM   10  N7  UNL     1      43.972  25.206 100.729  1.00  0.00    -0.173 N 
ATOM     11  H7  UNL     1      44.063  26.148 101.111  1.00  0.00     0.186 HD
ENDROOT
BRANCH   6  12
HETATM   12  N4  UNL     1      43.903  21.749 101.877  1.00  0.00    -0.108 N 
HETATM   13  O1  UNL     1      44.989  21.211 102.253  1.00  0.00    -0.532 OA
HETATM   14  O2  UNL     1      42.762  21.142 102.329  1.00  0.00    -0.532 OA
ENDBRANCH   6  12
BRANCH   8  15
HETATM   15  N6  UNL     1      44.292  23.548 103.858  1.00  0.00    -0.344 N 
ATOM     16  H62 UNL     1      45.071  22.891 103.811  1.00  0.00     0.176 HD
ATOM     17  H61 UNL     1      43.662  23.492 104.658  1.00  0.00     0.176 HD
ENDBRANCH   8  15
BRANCH   1  18
HETATM   18  N1  UNL     1      43.778  26.045  98.582  1.00  0.00    -0.230 N 
HETATM   19  C1  UNL     1      42.856  26.036  97.475  1.00  0.00     0.165 C 
ATOM     20  H1  UNL     1      44.410  26.837  98.700  1.00  0.00     0.177 HD
ENDBRANCH   1  18
TORSDOF 3
ENDMDL
MODEL 2
REMARK VINA RESULT: -6.068202264      0.649      2.713
REMARK  3 active torsions:
REMARK  status: ('A' for Active; 'I' for Inactive)
REMARK    1  A    between atoms: N1_2  and  C2_4 
REMARK    2  A    between atoms: C4_9  and  N4_10 
REMARK    3  A    between atoms: N5_14  and  N6_16 
ROOT
HETATM    1  C2  UNL     1      43.742  25.015  99.636  1.00  0.00     0.680 A 
HETATM    2  N2  UNL     1      44.022  25.344 100.929  1.00  0.00    -0.176 N 
ATOM      3  H2  UNL     1      44.165  26.315 101.205  1.00  0.00     0.185 HD
HETATM    4  C3  UNL     1      44.106  24.340 101.835  1.00  0.00     0.168 A 
HETATM    5  N3  UNL     1      44.399  24.650 103.203  1.00  0.00    -0.079 NA
HETATM    6  C4  UNL     1      43.918  23.027 101.484  1.00  0.00     0.190 A 
HETATM    7  C5  UNL     1      43.635  22.711 100.186  1.00  0.00     0.172 A 
HETATM    8  N5  UNL     1      43.409  21.561  99.697  1.00  0.00    -0.289 N 
ATOM      9  H5  UNL     1      43.214  21.511  98.698  1.00  0.00     0.188 HD
HETATM   10  N7  UNL     1      43.559  23.757  99.291  1.00  0.00    -0.173 N 
ATOM     11  H7  UNL     1      43.350  23.547  98.315  1.00  0.00     0.186 HD
ENDROOT
BRANCH   6  12
HETATM   12  N4  UNL     1      44.034  22.015 102.457  1.00  0.00    -0.108 N 
HETATM   13  O1  UNL     1      43.012  21.470 102.975  1.00  0.00    -0.532 OA
HETATM   14  O2  UNL     1      45.240  21.550 102.907  1.00  0.00    -0.532 OA
ENDBRANCH   6  12
BRANCH   8  15
HETATM   15  N6  UNL     1      43.406  20.380 100.396  1.00  0.00    -0.344 N 
ATOM     16  H62 UNL     1      42.617  20.235 101.025  1.00  0.00     0.176 HD
ATOM     17  H61 UNL     1      44.117  19.652 100.336  1.00  0.00     0.176 HD
ENDBRANCH   8  15
BRANCH   1  18
HETATM   18  N1  UNL     1      43.675  26.021  98.829  1.00  0.00    -0.230 N 
HETATM   19  C1  UNL     1      42.857  25.977  97.644  1.00  0.00     0.165 C 
ATOM     20  H1  UNL     1      44.212  26.863  99.034  1.00  0.00     0.177 HD
ENDBRANCH   1  18
TORSDOF 3
ENDMDL
MODEL 3
REMARK VINA RESULT: -5.638844776      1.554      1.687
REMARK  3 active torsions:
REMARK  status: ('A' for Active; 'I' for Inactive)
REMARK    1  A    between atoms: N1_2  and  C2_4 
REMARK    2  A    between atoms: C4_9  and  N4_10 
REMARK    3  A    between atoms: N5_14  and  N6_16 
ROOT
HETATM    1  C2  UNL     1      43.480  25.182  97.977  1.00  0.00     0.680 A 
HETATM    2  N2  UNL     1      43.828  23.872  97.831  1.00  0.00    -0.176 N 
ATOM      3  H2  UNL     1      44.194  23.521  96.946  1.00  0.00     0.185 HD
HETATM    4  C3  UNL     1      43.670  23.051  98.897  1.00  0.00     0.168 A 
HETATM    5  N3  UNL     1      44.026  21.668  98.779  1.00  0.00    -0.079 NA
HETATM    6  C4  UNL     1      43.179  23.503 100.096  1.00  0.00     0.190 A 
HETATM    7  C5  UNL     1      42.837  24.818 100.230  1.00  0.00     0.172 A 
HETATM    8  N5  UNL     1      42.394  25.405 101.266  1.00  0.00    -0.289 N 
ATOM      9  H5  UNL     1      42.190  26.401 101.185  1.00  0.00     0.188 HD
HETATM   10  N7  UNL     1      43.009  25.624  99.125  1.00  0.00    -0.173 N 
ATOM     11  H7  UNL     1      42.759  26.610  99.199  1.00  0.00     0.186 HD
ENDROOT
BRANCH   6  12
HETATM   12  N4  UNL     1      43.014  22.609 101.171  1.00  0.00    -0.108 N 
HETATM   13  O1  UNL     1      43.883  22.506 102.091  1.00  0.00    -0.532 OA
HETATM   14  O2  UNL     1      41.920  21.797 101.304  1.00  0.00    -0.532 OA
ENDBRANCH   6  12
BRANCH   8  15
HETATM   15  N6  UNL     1      42.167  24.817 102.484  1.00  0.00    -0.344 N 
ATOM     16  H62 UNL     1      41.531  24.019 102.484  1.00  0.00     0.176 HD
ATOM     17  H61 UNL     1      42.575  25.108 103.372  1.00  0.00     0.176 HD
ENDBRANCH   8  15
BRANCH   1  18
HETATM   18  N1  UNL     1      43.659  25.905  96.923  1.00  0.00    -0.230 N 
HETATM   19  C1  UNL     1      42.661  26.847  96.483  1.00  0.00     0.165 C 
ATOM     20  H1  UNL     1      44.523  25.808  96.390  1.00  0.00     0.177 HD
ENDBRANCH   1  18
TORSDOF 3
ENDMDL
MODEL 4
REMARK VINA RESULT: -5.155233750      1.915      2.614
REMARK  3 active torsions:
REMARK  status: ('A' for Active; 'I' for Inactive)
REMARK    1  A    between atoms: N1_2  and  C2_4 
REMARK    2  A    between atoms: C4_9  and  N4_10 
REMARK    3  A    between atoms: N5_14  and  N6_16 
ROOT
HETATM    1  C2  UNL     1      44.702  23.507  97.734  1.00  0.00     0.680 A 
HETATM    2  N2  UNL     1      44.301  22.271  98.147  1.00  0.00    -0.176 N 
ATOM      3  H2  UNL     1      44.400  21.457  97.542  1.00  0.00     0.185 HD
HETATM    4  C3  UNL     1      43.766  22.159  99.387  1.00  0.00     0.168 A 
HETATM    5  N3  UNL     1      43.335  20.875  99.854  1.00  0.00    -0.079 NA
HETATM    6  C4  UNL     1      43.624  23.242 100.218  1.00  0.00     0.190 A 
HETATM    7  C5  UNL     1      44.032  24.474  99.793  1.00  0.00     0.172 A 
HETATM    8  N5  UNL     1      43.997  25.569 100.435  1.00  0.00    -0.289 N 
ATOM      9  H5  UNL     1      44.347  26.400  99.958  1.00  0.00     0.188 HD
HETATM   10  N7  UNL     1      44.569  24.551  98.525  1.00  0.00    -0.173 N 
ATOM     11  H7  UNL     1      44.880  25.461  98.184  1.00  0.00     0.186 HD
ENDROOT
BRANCH   6  12
HETATM   12  N4  UNL     1      43.045  23.081 101.491  1.00  0.00    -0.108 N 
HETATM   13  O1  UNL     1      41.805  23.267 101.687  1.00  0.00    -0.532 OA
HETATM   14  O2  UNL     1      43.765  22.716 102.597  1.00  0.00    -0.532 OA
ENDBRANCH   6  12
BRANCH   8  15
HETATM   15  N6  UNL     1      43.531  25.733 101.714  1.00  0.00    -0.344 N 
ATOM     16  H62 UNL     1      43.778  24.999 102.378  1.00  0.00     0.176 HD
ATOM     17  H61 UNL     1      42.966  26.514 102.047  1.00  0.00     0.176 HD
ENDBRANCH   8  15
BRANCH   1  18
HETATM   18  N1  UNL     1      45.203  23.538  96.544  1.00  0.00    -0.230 N 
HETATM   19  C1  UNL     1      45.896  22.403  95.993  1.00  0.00     0.165 C 
ATOM     20  H1  UNL     1      45.106  24.385  95.983  1.00  0.00     0.177 HD
ENDBRANCH   1  18
TORSDOF 3
ENDMDL
MODEL 5
REMARK VINA RESULT: -4.867417094      2.453      4.303
REMARK  3 active torsions:
REMARK  status: ('A' for Active; 'I' for Inactive)
REMARK    1  A    between atoms: N1_2  and  C2_4 
REMARK    2  A    between atoms: C4_9  and  N4_10 
REMARK    3  A    between atoms: N5_14  and  N6_16 
ROOT
HETATM    1  C2  UNL     1      42.888  21.535 102.318  1.00  0.00     0.680 A 
HETATM    2  N2  UNL     1      43.055  20.842 101.156  1.00  0.00    -0.176 N 
ATOM      3  H2  UNL     1      42.900  19.834 101.119  1.00  0.00     0.185 HD
HETATM    4  C3  UNL     1      43.433  21.532 100.054  1.00  0.00     0.168 A 
HETATM    5  N3  UNL     1      43.617  20.835  98.816  1.00  0.00    -0.079 NA
HETATM    6  C4  UNL     1      43.646  22.888 100.083  1.00  0.00     0.190 A 
HETATM    7  C5  UNL     1      43.474  23.571 101.252  1.00  0.00     0.172 A 
HETATM    8  N5  UNL     1      43.603  24.819 101.450  1.00  0.00    -0.289 N 
ATOM      9  H5  UNL     1      43.433  25.160 102.396  1.00  0.00     0.188 HD
HETATM   10  N7  UNL     1      43.090  22.836 102.354  1.00  0.00    -0.173 N 
ATOM     11  H7  UNL     1      42.957  23.324 103.240  1.00  0.00     0.186 HD
ENDROOT
BRANCH   6  12
HETATM   12  N4  UNL     1      44.057  23.561  98.916  1.00  0.00    -0.108 N 
HETATM   13  O1  UNL     1      43.227  24.158  98.165  1.00  0.00    -0.532 OA
HETATM   14  O2  UNL     1      45.364  23.622  98.512  1.00  0.00    -0.532 OA
ENDBRANCH   6  12
BRANCH   8  15
HETATM   15  N6  UNL     1      43.951  25.748 100.503  1.00  0.00    -0.344 N 
ATOM     16  H62 UNL     1      44.885  26.149 100.592  1.00  0.00     0.176 HD
ATOM     17  H61 UNL     1      43.362  26.063  99.733  1.00  0.00     0.176 HD
ENDBRANCH   8  15
BRANCH   1  18
HETATM   18  N1  UNL     1      42.526  20.814 103.326  1.00  0.00    -0.230 N 
HETATM   19  C1  UNL     1      41.273  20.105 103.328  1.00  0.00     0.165 C 
ATOM     20  H1  UNL     1      43.140  20.746 104.138  1.00  0.00     0.177 HD
ENDBRANCH   1  18
TORSDOF 3
ENDMDL
