MODEL 1
REMARK VINA RESULT: -12.955667892      0.000      0.000
REMARK  1 active torsions:
REMARK  status: ('A' for Active; 'I' for Inactive)
REMARK    1  A    between atoms: N3_25  and  C21_26 
ROOT
HETATM    1  C1  UNL     1       3.297  29.227  -2.279  1.00  0.00     0.043 C 
HETATM    2  C2  UNL     1       2.895  28.092  -1.803  1.00  0.00     0.026 C 
HETATM    3  C3  UNL     1       1.950  27.826  -0.691  1.00  0.00     0.040 C 
HETATM    4  C4  UNL     1       1.819  26.550  -0.484  1.00  0.00    -0.001 C 
HETATM    5  C5  UNL     1       1.276  25.373   0.174  1.00  0.00     0.001 A 
HETATM    6  C6  UNL     1       0.468  25.250   1.264  1.00  0.00     0.014 A 
HETATM    7  C7  UNL     1       0.040  23.996   1.642  1.00  0.00     0.001 A 
HETATM    8  C8  UNL     1       0.458  22.902   0.885  1.00  0.00     0.002 A 
HETATM    9  C9  UNL     1       1.282  23.018  -0.227  1.00  0.00     0.030 A 
HETATM   10  C10 UNL     1       1.693  24.266  -0.583  1.00  0.00     0.048 A 
HETATM   11  N1  UNL     1       2.536  24.732  -1.643  1.00  0.00    -0.319 N 
HETATM   12  C11 UNL     1       3.094  24.600  -2.938  1.00  0.00     0.064 C 
HETATM   13  C12 UNL     1       2.942  23.494  -3.654  1.00  0.00     0.043 C 
HETATM   14  C13 UNL     1       3.805  25.878  -3.259  1.00  0.00     0.242 C 
HETATM   15  C14 UNL     1       5.268  25.703  -3.009  1.00  0.00     0.279 C 
HETATM   16  O1  UNL     1       5.777  25.996  -1.910  1.00  0.00    -0.268 OA
HETATM   17  N2  UNL     1       6.097  25.202  -4.024  1.00  0.00    -0.321 N 
ATOM     18  H2  UNL     1       7.022  24.843  -3.791  1.00  0.00     0.169 HD
HETATM   19  C15 UNL     1       5.651  25.191  -5.384  1.00  0.00     0.062 A 
HETATM   20  C16 UNL     1       6.469  24.676  -6.353  1.00  0.00     0.032 A 
HETATM   21  C17 UNL     1       6.002  24.660  -7.640  1.00  0.00     0.002 A 
HETATM   22  C18 UNL     1       4.760  25.137  -7.982  1.00  0.00     0.002 A 
HETATM   23  C19 UNL     1       3.960  25.652  -6.971  1.00  0.00     0.032 A 
HETATM   24  C20 UNL     1       4.372  25.702  -5.635  1.00  0.00     0.065 A 
HETATM   25  N3  UNL     1       3.527  26.224  -4.612  1.00  0.00    -0.304 N 
HETATM   26  N4  UNL     1       3.298  26.782  -2.256  1.00  0.00    -0.315 N 
HETATM   27  C33 UNL     1       3.072  25.956  -1.131  1.00  0.00     0.230 C 
ENDROOT
BRANCH  25  28
HETATM   28  C21 UNL     1       2.436  27.064  -5.010  1.00  0.00     0.041 A 
HETATM   29  C22 UNL     1       1.115  26.721  -4.818  1.00  0.00     0.031 A 
HETATM   30  C23 UNL     1       0.089  27.559  -5.178  1.00  0.00     0.017 A 
HETATM   31  C24 UNL     1       0.365  28.787  -5.751  1.00  0.00     0.011 A 
HETATM   32  C25 UNL     1       1.670  29.168  -5.960  1.00  0.00     0.089 A 
HETATM   33  C32 UNL     1      -0.457  29.817  -6.204  1.00  0.00     0.011 A 
HETATM   34  C26 UNL     1       2.677  28.294  -5.584  1.00  0.00     0.067 A 
HETATM   35  O2  UNL     1       1.641  30.357  -6.508  1.00  0.00    -0.309 OA
HETATM   36  C27 UNL     1       0.414  30.775  -6.668  1.00  0.00     0.087 A 
HETATM   37  C28 UNL     1      -0.138  31.943  -7.193  1.00  0.00     0.038 A 
HETATM   38  C29 UNL     1      -1.506  32.121  -7.239  1.00  0.00     0.003 A 
HETATM   39  C30 UNL     1      -2.385  31.159  -6.772  1.00  0.00     0.001 A 
HETATM   40  C31 UNL     1      -1.804  29.995  -6.251  1.00  0.00     0.015 A 
ENDBRANCH  25  28
TORSDOF 1
ENDMDL
MODEL 2
REMARK VINA RESULT: -12.764706656      0.791      1.351
REMARK  1 active torsions:
REMARK  status: ('A' for Active; 'I' for Inactive)
REMARK    1  A    between atoms: N3_25  and  C21_26 
ROOT
HETATM    1  C1  UNL     1       3.753  29.231  -2.236  1.00  0.00     0.043 C 
HETATM    2  C2  UNL     1       3.253  28.124  -1.783  1.00  0.00     0.026 C 
HETATM    3  C3  UNL     1       2.307  27.916  -0.661  1.00  0.00     0.040 C 
HETATM    4  C4  UNL     1       2.060  26.652  -0.487  1.00  0.00    -0.001 C 
HETATM    5  C5  UNL     1       1.418  25.513   0.149  1.00  0.00     0.001 A 
HETATM    6  C6  UNL     1       0.621  25.434   1.250  1.00  0.00     0.014 A 
HETATM    7  C7  UNL     1       0.083  24.215   1.602  1.00  0.00     0.001 A 
HETATM    8  C8  UNL     1       0.384  23.109   0.808  1.00  0.00     0.002 A 
HETATM    9  C9  UNL     1       1.197  23.180  -0.316  1.00  0.00     0.030 A 
HETATM   10  C10 UNL     1       1.717  24.394  -0.645  1.00  0.00     0.048 A 
HETATM   11  N1  UNL     1       2.582  24.810  -1.709  1.00  0.00    -0.319 N 
HETATM   12  C11 UNL     1       3.104  24.663  -3.017  1.00  0.00     0.064 C 
HETATM   13  C12 UNL     1       2.837  23.597  -3.760  1.00  0.00     0.043 C 
HETATM   14  C13 UNL     1       3.927  25.878  -3.317  1.00  0.00     0.242 C 
HETATM   15  C14 UNL     1       5.371  25.560  -3.100  1.00  0.00     0.279 C 
HETATM   16  O1  UNL     1       5.924  25.772  -2.004  1.00  0.00    -0.268 OA
HETATM   17  N2  UNL     1       6.131  25.013  -4.144  1.00  0.00    -0.321 N 
ATOM     18  H2  UNL     1       7.023  24.563  -3.939  1.00  0.00     0.169 HD
HETATM   19  C15 UNL     1       5.664  25.084  -5.495  1.00  0.00     0.062 A 
HETATM   20  C16 UNL     1       6.414  24.522  -6.493  1.00  0.00     0.032 A 
HETATM   21  C17 UNL     1       5.926  24.588  -7.771  1.00  0.00     0.002 A 
HETATM   22  C18 UNL     1       4.730  25.188  -8.076  1.00  0.00     0.002 A 
HETATM   23  C19 UNL     1       3.998  25.747  -7.036  1.00  0.00     0.032 A 
HETATM   24  C20 UNL     1       4.435  25.719  -5.707  1.00  0.00     0.065 A 
HETATM   25  N3  UNL     1       3.660  26.288  -4.655  1.00  0.00    -0.304 N 
HETATM   26  N4  UNL     1       3.524  26.796  -2.279  1.00  0.00    -0.315 N 
HETATM   27  C33 UNL     1       3.239  25.962  -1.174  1.00  0.00     0.230 C 
ENDROOT
BRANCH  25  28
HETATM   28  C21 UNL     1       2.647  27.237  -5.008  1.00  0.00     0.041 A 
HETATM   29  C22 UNL     1       2.909  28.573  -5.223  1.00  0.00     0.031 A 
HETATM   30  C23 UNL     1       1.926  29.455  -5.595  1.00  0.00     0.017 A 
HETATM   31  C24 UNL     1       0.626  29.012  -5.766  1.00  0.00     0.011 A 
HETATM   32  C25 UNL     1       0.321  27.687  -5.561  1.00  0.00     0.089 A 
HETATM   33  C32 UNL     1      -0.548  29.668  -6.130  1.00  0.00     0.011 A 
HETATM   34  C26 UNL     1       1.342  26.829  -5.187  1.00  0.00     0.067 A 
HETATM   35  O2  UNL     1      -0.961  27.547  -5.788  1.00  0.00    -0.309 OA
HETATM   36  C27 UNL     1      -1.509  28.685  -6.125  1.00  0.00     0.087 A 
HETATM   37  C28 UNL     1      -2.811  29.057  -6.458  1.00  0.00     0.038 A 
HETATM   38  C29 UNL     1      -3.112  30.366  -6.780  1.00  0.00     0.003 A 
HETATM   39  C30 UNL     1      -2.147  31.358  -6.786  1.00  0.00     0.001 A 
HETATM   40  C31 UNL     1      -0.848  30.956  -6.447  1.00  0.00     0.015 A 
ENDBRANCH  25  28
TORSDOF 1
ENDMDL
MODEL 3
REMARK VINA RESULT: -12.416734489      1.553      2.006
REMARK  1 active torsions:
REMARK  status: ('A' for Active; 'I' for Inactive)
REMARK    1  A    between atoms: N3_25  and  C21_26 
ROOT
HETATM    1  C1  UNL     1       4.067  29.207  -2.266  1.00  0.00     0.043 C 
HETATM    2  C2  UNL     1       3.540  28.089  -1.876  1.00  0.00     0.026 C 
HETATM    3  C3  UNL     1       2.878  27.767  -0.589  1.00  0.00     0.040 C 
HETATM    4  C4  UNL     1       2.502  26.523  -0.557  1.00  0.00    -0.001 C 
HETATM    5  C5  UNL     1       1.879  25.352   0.040  1.00  0.00     0.001 A 
HETATM    6  C6  UNL     1       1.373  25.145   1.287  1.00  0.00     0.014 A 
HETATM    7  C7  UNL     1       0.769  23.941   1.573  1.00  0.00     0.001 A 
HETATM    8  C8  UNL     1       0.704  22.981   0.564  1.00  0.00     0.002 A 
HETATM    9  C9  UNL     1       1.218  23.182  -0.710  1.00  0.00     0.030 A 
HETATM   10  C10 UNL     1       1.811  24.380  -0.971  1.00  0.00     0.048 A 
HETATM   11  N1  UNL     1       2.440  24.902  -2.147  1.00  0.00    -0.319 N 
HETATM   12  C11 UNL     1       2.598  24.955  -3.553  1.00  0.00     0.064 C 
HETATM   13  C12 UNL     1       2.008  24.081  -4.356  1.00  0.00     0.043 C 
HETATM   14  C13 UNL     1       3.489  26.118  -3.867  1.00  0.00     0.242 C 
HETATM   15  C14 UNL     1       4.881  25.625  -4.095  1.00  0.00     0.279 C 
HETATM   16  O1  UNL     1       5.710  25.571  -3.167  1.00  0.00    -0.268 OA
HETATM   17  N2  UNL     1       5.276  25.214  -5.377  1.00  0.00    -0.321 N 
ATOM     18  H2  UNL     1       6.117  24.648  -5.490  1.00  0.00     0.169 HD
HETATM   19  C15 UNL     1       4.507  25.584  -6.526  1.00  0.00     0.062 A 
HETATM   20  C16 UNL     1       4.901  25.150  -7.763  1.00  0.00     0.032 A 
HETATM   21  C17 UNL     1       4.130  25.504  -8.838  1.00  0.00     0.002 A 
HETATM   22  C18 UNL     1       2.994  26.265  -8.715  1.00  0.00     0.002 A 
HETATM   23  C19 UNL     1       2.627  26.686  -7.443  1.00  0.00     0.032 A 
HETATM   24  C20 UNL     1       3.368  26.365  -6.300  1.00  0.00     0.065 A 
HETATM   25  N3  UNL     1       2.964  26.798  -5.003  1.00  0.00    -0.304 N 
HETATM   26  N4  UNL     1       3.488  26.859  -2.629  1.00  0.00    -0.315 N 
HETATM   27  C33 UNL     1       3.366  25.863  -1.633  1.00  0.00     0.230 C 
ENDROOT
BRANCH  25  28
HETATM   28  C21 UNL     1       2.042  27.891  -4.921  1.00  0.00     0.041 A 
HETATM   29  C22 UNL     1       2.306  29.139  -5.443  1.00  0.00     0.031 A 
HETATM   30  C23 UNL     1       1.391  30.160  -5.381  1.00  0.00     0.017 A 
HETATM   31  C24 UNL     1       0.161  29.953  -4.782  1.00  0.00     0.011 A 
HETATM   32  C25 UNL     1      -0.143  28.723  -4.248  1.00  0.00     0.089 A 
HETATM   33  C32 UNL     1      -0.936  30.788  -4.580  1.00  0.00     0.011 A 
HETATM   34  C26 UNL     1       0.808  27.719  -4.330  1.00  0.00     0.067 A 
HETATM   35  O2  UNL     1      -1.351  28.806  -3.751  1.00  0.00    -0.309 OA
HETATM   36  C27 UNL     1      -1.854  30.000  -3.925  1.00  0.00     0.087 A 
HETATM   37  C28 UNL     1      -3.075  30.582  -3.587  1.00  0.00     0.038 A 
HETATM   38  C29 UNL     1      -3.342  31.900  -3.902  1.00  0.00     0.003 A 
HETATM   39  C30 UNL     1      -2.420  32.695  -4.561  1.00  0.00     0.001 A 
HETATM   40  C31 UNL     1      -1.202  32.085  -4.888  1.00  0.00     0.015 A 
ENDBRANCH  25  28
TORSDOF 1
ENDMDL
MODEL 4
REMARK VINA RESULT: -11.987170762      1.197      1.229
REMARK  1 active torsions:
REMARK  status: ('A' for Active; 'I' for Inactive)
REMARK    1  A    between atoms: N3_25  and  C21_26 
ROOT
HETATM    1  C1  UNL     1       2.683  29.546  -3.624  1.00  0.00     0.043 C 
HETATM    2  C2  UNL     1       2.491  28.436  -2.984  1.00  0.00     0.026 C 
HETATM    3  C3  UNL     1       1.629  28.173  -1.807  1.00  0.00     0.040 C 
HETATM    4  C4  UNL     1       1.723  26.933  -1.427  1.00  0.00    -0.001 C 
HETATM    5  C5  UNL     1       1.402  25.784  -0.595  1.00  0.00     0.001 A 
HETATM    6  C6  UNL     1       0.649  25.680   0.534  1.00  0.00     0.014 A 
HETATM    7  C7  UNL     1       0.451  24.436   1.094  1.00  0.00     0.001 A 
HETATM    8  C8  UNL     1       1.036  23.334   0.472  1.00  0.00     0.002 A 
HETATM    9  C9  UNL     1       1.806  23.431  -0.680  1.00  0.00     0.030 A 
HETATM   10  C10 UNL     1       1.989  24.669  -1.215  1.00  0.00     0.048 A 
HETATM   11  N1  UNL     1       2.718  25.119  -2.363  1.00  0.00    -0.319 N 
HETATM   12  C11 UNL     1       3.265  24.904  -3.652  1.00  0.00     0.064 C 
HETATM   13  C12 UNL     1       3.292  23.700  -4.207  1.00  0.00     0.043 C 
HETATM   14  C13 UNL     1       3.740  26.226  -4.171  1.00  0.00     0.242 C 
HETATM   15  C14 UNL     1       5.216  26.335  -3.962  1.00  0.00     0.279 C 
HETATM   16  O1  UNL     1       5.689  26.858  -2.935  1.00  0.00    -0.268 OA
HETATM   17  N2  UNL     1       6.098  25.845  -4.936  1.00  0.00    -0.321 N 
ATOM     18  H2  UNL     1       7.076  25.682  -4.698  1.00  0.00     0.169 HD
HETATM   19  C15 UNL     1       5.634  25.571  -6.262  1.00  0.00     0.062 A 
HETATM   20  C16 UNL     1       6.510  25.071  -7.188  1.00  0.00     0.032 A 
HETATM   21  C17 UNL     1       6.027  24.800  -8.440  1.00  0.00     0.002 A 
HETATM   22  C18 UNL     1       4.716  25.010  -8.790  1.00  0.00     0.002 A 
HETATM   23  C19 UNL     1       3.859  25.518  -7.823  1.00  0.00     0.032 A 
HETATM   24  C20 UNL     1       4.282  25.821  -6.524  1.00  0.00     0.065 A 
HETATM   25  N3  UNL     1       3.380  26.331  -5.545  1.00  0.00    -0.304 N 
HETATM   26  N4  UNL     1       3.105  27.163  -3.275  1.00  0.00    -0.315 N 
HETATM   27  C33 UNL     1       3.046  26.473  -2.042  1.00  0.00     0.230 C 
ENDROOT
BRANCH  25  28
HETATM   28  C21 UNL     1       2.154  26.912  -6.004  1.00  0.00     0.041 A 
HETATM   29  C22 UNL     1       0.922  26.330  -5.796  1.00  0.00     0.031 A 
HETATM   30  C23 UNL     1      -0.241  26.925  -6.216  1.00  0.00     0.017 A 
HETATM   31  C24 UNL     1      -0.200  28.144  -6.868  1.00  0.00     0.011 A 
HETATM   32  C25 UNL     1       1.009  28.760  -7.096  1.00  0.00     0.089 A 
HETATM   33  C32 UNL     1      -1.199  28.961  -7.394  1.00  0.00     0.011 A 
HETATM   34  C26 UNL     1       2.160  28.126  -6.657  1.00  0.00     0.067 A 
HETATM   35  O2  UNL     1       0.758  29.881  -7.723  1.00  0.00    -0.309 OA
HETATM   36  C27 UNL     1      -0.524  30.040  -7.917  1.00  0.00     0.087 A 
HETATM   37  C28 UNL     1      -1.284  31.041  -8.521  1.00  0.00     0.038 A 
HETATM   38  C29 UNL     1      -2.660  30.944  -8.587  1.00  0.00     0.003 A 
HETATM   39  C30 UNL     1      -3.342  29.859  -8.061  1.00  0.00     0.001 A 
HETATM   40  C31 UNL     1      -2.554  28.868  -7.460  1.00  0.00     0.015 A 
ENDBRANCH  25  28
TORSDOF 1
ENDMDL
MODEL 5
REMARK VINA RESULT: -10.941886386      1.953      5.782
REMARK  1 active torsions:
REMARK  status: ('A' for Active; 'I' for Inactive)
REMARK    1  A    between atoms: N3_25  and  C21_26 
ROOT
HETATM    1  C1  UNL     1      -0.364  25.617  -4.909  1.00  0.00     0.043 C 
HETATM    2  C2  UNL     1       0.909  25.549  -5.144  1.00  0.00     0.026 C 
HETATM    3  C3  UNL     1       1.617  25.479  -6.444  1.00  0.00     0.040 C 
HETATM    4  C4  UNL     1       2.902  25.391  -6.271  1.00  0.00    -0.001 C 
HETATM    5  C5  UNL     1       4.286  25.303  -6.710  1.00  0.00     0.001 A 
HETATM    6  C6  UNL     1       4.822  25.151  -7.953  1.00  0.00     0.014 A 
HETATM    7  C7  UNL     1       6.193  25.166  -8.097  1.00  0.00     0.001 A 
HETATM    8  C8  UNL     1       6.973  25.335  -6.953  1.00  0.00     0.002 A 
HETATM    9  C9  UNL     1       6.434  25.489  -5.683  1.00  0.00     0.030 A 
HETATM   10  C10 UNL     1       5.079  25.472  -5.564  1.00  0.00     0.048 A 
HETATM   11  N1  UNL     1       4.214  25.589  -4.427  1.00  0.00    -0.319 N 
HETATM   12  C11 UNL     1       3.937  26.053  -3.119  1.00  0.00     0.064 C 
HETATM   13  C12 UNL     1       4.872  26.612  -2.363  1.00  0.00     0.043 C 
HETATM   14  C13 UNL     1       2.488  25.794  -2.841  1.00  0.00     0.242 C 
HETATM   15  C14 UNL     1       2.358  24.544  -2.031  1.00  0.00     0.279 C 
HETATM   16  O1  UNL     1       2.189  23.435  -2.573  1.00  0.00    -0.268 OA
HETATM   17  N2  UNL     1       2.424  24.608  -0.632  1.00  0.00    -0.321 N 
ATOM     18  H2  UNL     1       2.593  23.758  -0.094  1.00  0.00     0.169 HD
HETATM   19  C15 UNL     1       2.256  25.858   0.045  1.00  0.00     0.062 A 
HETATM   20  C16 UNL     1       2.348  25.897   1.411  1.00  0.00     0.032 A 
HETATM   21  C17 UNL     1       2.205  27.113   2.024  1.00  0.00     0.002 A 
HETATM   22  C18 UNL     1       1.976  28.272   1.325  1.00  0.00     0.002 A 
HETATM   23  C19 UNL     1       1.889  28.191  -0.058  1.00  0.00     0.032 A 
HETATM   24  C20 UNL     1       2.023  26.984  -0.753  1.00  0.00     0.065 A 
HETATM   25  N3  UNL     1       1.942  26.928  -2.175  1.00  0.00    -0.304 N 
HETATM   26  N4  UNL     1       1.960  25.515  -4.156  1.00  0.00    -0.315 N 
HETATM   27  C33 UNL     1       3.033  24.890  -4.831  1.00  0.00     0.230 C 
ENDROOT
BRANCH  25  28
HETATM   28  C21 UNL     1       1.323  28.027  -2.853  1.00  0.00     0.041 A 
HETATM   29  C22 UNL     1       2.017  28.899  -3.664  1.00  0.00     0.031 A 
HETATM   30  C23 UNL     1       1.393  29.924  -4.329  1.00  0.00     0.017 A 
HETATM   31  C24 UNL     1       0.028  30.106  -4.198  1.00  0.00     0.011 A 
HETATM   32  C25 UNL     1      -0.703  29.259  -3.399  1.00  0.00     0.089 A 
HETATM   33  C32 UNL     1      -0.850  31.040  -4.743  1.00  0.00     0.011 A 
HETATM   34  C26 UNL     1      -0.036  28.237  -2.744  1.00  0.00     0.067 A 
HETATM   35  O2  UNL     1      -1.949  29.655  -3.456  1.00  0.00    -0.309 OA
HETATM   36  C27 UNL     1      -2.080  30.697  -4.234  1.00  0.00     0.087 A 
HETATM   37  C28 UNL     1      -3.173  31.475  -4.615  1.00  0.00     0.038 A 
HETATM   38  C29 UNL     1      -3.015  32.546  -5.472  1.00  0.00     0.003 A 
HETATM   39  C30 UNL     1      -1.778  32.893  -5.987  1.00  0.00     0.001 A 
HETATM   40  C31 UNL     1      -0.697  32.096  -5.587  1.00  0.00     0.015 A 
ENDBRANCH  25  28
TORSDOF 1
ENDMDL
