MODEL 1
REMARK VINA RESULT: -6.665858910      0.000      0.000
REMARK  0 active torsions:
REMARK  status: ('A' for Active; 'I' for Inactive)
ROOT
HETATM    1  N1  UNL     1      50.613  39.858  71.101  1.00  0.00    -0.385 N 
ATOM      2  H11 UNL     1      51.509  39.411  70.909  1.00  0.00     0.157 HD
ATOM      3  H12 UNL     1      49.830  39.250  71.344  1.00  0.00     0.157 HD
HETATM    4  C1  UNL     1      50.555  41.146  71.018  1.00  0.00     0.136 C 
HETATM    5  N2  UNL     1      49.300  41.770  71.288  1.00  0.00    -0.295 N 
ATOM      6  H2  UNL     1      48.439  41.240  71.152  1.00  0.00     0.172 HD
HETATM    7  C2  UNL     1      49.223  43.118  71.743  1.00  0.00     0.328 C 
HETATM    8  O1  UNL     1      48.112  43.686  71.985  1.00  0.00    -0.247 OA
HETATM    9  N3  UNL     1      50.464  43.796  71.910  1.00  0.00    -0.275 N 
ATOM     10  H3  UNL     1      50.467  44.764  72.234  1.00  0.00     0.173 HD
HETATM   11  C3  UNL     1      51.701  43.146  71.634  1.00  0.00     0.281 C 
HETATM   12  O2  UNL     1      52.783  43.496  72.171  1.00  0.00    -0.268 OA
HETATM   13  C4  UNL     1      51.676  42.018  70.670  1.00  0.00     0.307 A 
HETATM   14  O3  UNL     1      52.889  41.420  70.419  1.00  0.00    -0.238 OA
HETATM   15  N4  UNL     1      52.802  41.860  69.126  1.00  0.00    -0.229 N 
ATOM     16  H4  UNL     1      53.414  41.736  68.319  1.00  0.00     0.197 HD
HETATM   17  C5  UNL     1      51.576  42.548  69.289  1.00  0.00     0.296 A 
HETATM   18  O4  UNL     1      50.830  43.245  68.567  1.00  0.00    -0.267 OA
ENDROOT
TORSDOF 0
ENDMDL
MODEL 2
REMARK VINA RESULT: -6.480380861      1.483      2.671
REMARK  0 active torsions:
REMARK  status: ('A' for Active; 'I' for Inactive)
ROOT
HETATM    1  N1  UNL     1      49.873  44.284  69.142  1.00  0.00    -0.385 N 
ATOM      2  H11 UNL     1      50.501  44.216  68.342  1.00  0.00     0.157 HD
ATOM      3  H12 UNL     1      49.083  44.924  69.063  1.00  0.00     0.157 HD
HETATM    4  C1  UNL     1      50.138  43.556  70.176  1.00  0.00     0.136 C 
HETATM    5  N2  UNL     1      49.259  43.651  71.296  1.00  0.00    -0.295 N 
ATOM      6  H2  UNL     1      48.719  44.506  71.435  1.00  0.00     0.172 HD
HETATM    7  C2  UNL     1      49.119  42.580  72.225  1.00  0.00     0.328 C 
HETATM    8  O1  UNL     1      48.340  42.654  73.226  1.00  0.00    -0.247 OA
HETATM    9  N3  UNL     1      49.903  41.420  71.967  1.00  0.00    -0.275 N 
ATOM     10  H3  UNL     1      49.841  40.623  72.601  1.00  0.00     0.173 HD
HETATM   11  C3  UNL     1      50.771  41.353  70.841  1.00  0.00     0.281 C 
HETATM   12  O2  UNL     1      51.115  40.263  70.316  1.00  0.00    -0.268 OA
HETATM   13  C4  UNL     1      51.271  42.637  70.289  1.00  0.00     0.307 A 
HETATM   14  O3  UNL     1      52.115  42.535  69.208  1.00  0.00    -0.238 OA
HETATM   15  N4  UNL     1      53.115  43.062  69.980  1.00  0.00    -0.229 N 
ATOM     16  H4  UNL     1      54.085  43.299  69.773  1.00  0.00     0.197 HD
HETATM   17  C5  UNL     1      52.346  43.166  71.163  1.00  0.00     0.296 A 
HETATM   18  O4  UNL     1      52.547  43.536  72.341  1.00  0.00    -0.267 OA
ENDROOT
TORSDOF 0
ENDMDL
MODEL 3
REMARK VINA RESULT: -6.315604254      1.513      3.683
REMARK  0 active torsions:
REMARK  status: ('A' for Active; 'I' for Inactive)
ROOT
HETATM    1  N1  UNL     1      50.296  40.350  71.791  1.00  0.00    -0.385 N 
ATOM      2  H11 UNL     1      49.740  40.951  72.400  1.00  0.00     0.157 HD
ATOM      3  H12 UNL     1      50.209  39.343  71.924  1.00  0.00     0.157 HD
HETATM    4  C1  UNL     1      51.054  40.923  70.916  1.00  0.00     0.136 C 
HETATM    5  N2  UNL     1      51.832  40.082  70.064  1.00  0.00    -0.295 N 
ATOM      6  H2  UNL     1      52.086  39.147  70.383  1.00  0.00     0.172 HD
HETATM    7  C2  UNL     1      52.262  40.520  68.779  1.00  0.00     0.328 C 
HETATM    8  O1  UNL     1      52.956  39.781  68.012  1.00  0.00    -0.247 OA
HETATM    9  N3  UNL     1      51.871  41.835  68.401  1.00  0.00    -0.275 N 
ATOM     10  H3  UNL     1      52.153  42.200  67.490  1.00  0.00     0.173 HD
HETATM   11  C3  UNL     1      51.094  42.651  69.271  1.00  0.00     0.281 C 
HETATM   12  O2  UNL     1      50.358  43.581  68.850  1.00  0.00    -0.268 OA
HETATM   13  C4  UNL     1      51.178  42.367  70.726  1.00  0.00     0.307 A 
HETATM   14  O3  UNL     1      50.422  43.181  71.538  1.00  0.00    -0.238 OA
HETATM   15  N4  UNL     1      51.583  43.662  72.082  1.00  0.00    -0.229 N 
ATOM     16  H4  UNL     1      51.761  44.338  72.824  1.00  0.00     0.197 HD
HETATM   17  C5  UNL     1      52.452  42.904  71.262  1.00  0.00     0.296 A 
HETATM   18  O4  UNL     1      53.690  42.794  71.119  1.00  0.00    -0.267 OA
ENDROOT
TORSDOF 0
ENDMDL
MODEL 4
REMARK VINA RESULT: -6.247879337      1.551      2.463
REMARK  0 active torsions:
REMARK  status: ('A' for Active; 'I' for Inactive)
ROOT
HETATM    1  N1  UNL     1      52.776  43.667  72.103  1.00  0.00    -0.385 N 
ATOM      2  H11 UNL     1      53.642  43.681  71.564  1.00  0.00     0.157 HD
ATOM      3  H12 UNL     1      52.825  43.970  73.075  1.00  0.00     0.157 HD
HETATM    4  C1  UNL     1      51.704  43.266  71.503  1.00  0.00     0.136 C 
HETATM    5  N2  UNL     1      50.492  43.247  72.256  1.00  0.00    -0.295 N 
ATOM      6  H2  UNL     1      50.537  43.158  73.272  1.00  0.00     0.172 HD
HETATM    7  C2  UNL     1      49.221  43.348  71.622  1.00  0.00     0.328 C 
HETATM    8  O1  UNL     1      48.135  43.330  72.282  1.00  0.00    -0.247 OA
HETATM    9  N3  UNL     1      49.235  43.470  70.204  1.00  0.00    -0.275 N 
ATOM     10  H3  UNL     1      48.352  43.545  69.698  1.00  0.00     0.173 HD
HETATM   11  C3  UNL     1      50.460  43.487  69.478  1.00  0.00     0.281 C 
HETATM   12  O2  UNL     1      50.570  44.029  68.349  1.00  0.00    -0.268 OA
HETATM   13  C4  UNL     1      51.633  42.831  70.108  1.00  0.00     0.307 A 
HETATM   14  O3  UNL     1      52.797  42.858  69.376  1.00  0.00    -0.238 OA
HETATM   15  N4  UNL     1      52.729  41.494  69.277  1.00  0.00    -0.229 N 
ATOM     16  H4  UNL     1      53.347  40.809  68.844  1.00  0.00     0.197 HD
HETATM   17  C5  UNL     1      51.507  41.360  69.978  1.00  0.00     0.296 A 
HETATM   18  O4  UNL     1      50.747  40.417  70.295  1.00  0.00    -0.267 OA
ENDROOT
TORSDOF 0
ENDMDL
MODEL 5
REMARK VINA RESULT: -6.183036008      1.747      3.887
REMARK  0 active torsions:
REMARK  status: ('A' for Active; 'I' for Inactive)
ROOT
HETATM    1  N1  UNL     1      52.926  44.077  72.272  1.00  0.00    -0.385 N 
ATOM      2  H11 UNL     1      52.208  44.515  72.849  1.00  0.00     0.157 HD
ATOM      3  H12 UNL     1      53.889  44.380  72.415  1.00  0.00     0.157 HD
HETATM    4  C1  UNL     1      52.545  43.186  71.417  1.00  0.00     0.136 C 
HETATM    5  N2  UNL     1      53.550  42.574  70.609  1.00  0.00    -0.295 N 
ATOM      6  H2  UNL     1      54.418  43.077  70.426  1.00  0.00     0.172 HD
HETATM    7  C2  UNL     1      53.367  41.275  70.052  1.00  0.00     0.328 C 
HETATM    8  O1  UNL     1      54.253  40.720  69.330  1.00  0.00    -0.247 OA
HETATM    9  N3  UNL     1      52.132  40.633  70.350  1.00  0.00    -0.275 N 
ATOM     10  H3  UNL     1      51.948  39.702  69.977  1.00  0.00     0.173 HD
HETATM   11  C3  UNL     1      51.148  41.269  71.161  1.00  0.00     0.281 C 
HETATM   12  O2  UNL     1      50.290  40.623  71.815  1.00  0.00    -0.268 OA
HETATM   13  C4  UNL     1      51.164  42.752  71.212  1.00  0.00     0.307 A 
HETATM   14  O3  UNL     1      50.194  43.333  71.996  1.00  0.00    -0.238 OA
HETATM   15  N4  UNL     1      49.656  43.885  70.865  1.00  0.00    -0.229 N 
ATOM     16  H4  UNL     1      48.861  44.507  70.720  1.00  0.00     0.197 HD
HETATM   17  C5  UNL     1      50.576  43.297  69.965  1.00  0.00     0.296 A 
HETATM   18  O4  UNL     1      50.746  43.289  68.726  1.00  0.00    -0.267 OA
ENDROOT
TORSDOF 0
ENDMDL
