MODEL 1
REMARK VINA RESULT: -7.633434747      0.000      0.000
REMARK  0 active torsions:
REMARK  status: ('A' for Active; 'I' for Inactive)
ROOT
HETATM    1  O1  UNL     1      48.107  42.918  72.663  1.00  0.00    -0.262 OA
HETATM    2  C1  UNL     1      48.983  42.279  72.036  1.00  0.00     0.311 A 
HETATM    3  N1  UNL     1      49.379  41.084  72.495  1.00  0.00    -0.262 N 
ATOM      4  H1  UNL     1      48.972  40.699  73.347  1.00  0.00     0.190 HD
HETATM    5  N2  UNL     1      50.304  40.408  71.832  1.00  0.00    -0.282 N 
ATOM      6  H2  UNL     1      50.585  39.501  72.206  1.00  0.00     0.188 HD
HETATM    7  C2  UNL     1      50.899  40.825  70.707  1.00  0.00     0.141 A 
HETATM    8  N3  UNL     1      51.840  40.108  70.058  1.00  0.00    -0.337 N 
ATOM      9  H3  UNL     1      52.108  39.204  70.449  1.00  0.00     0.168 HD
HETATM   10  C3  UNL     1      52.445  40.511  68.930  1.00  0.00     0.185 A 
HETATM   11  N4  UNL     1      52.086  41.703  68.425  1.00  0.00    -0.319 N 
ATOM     12  H4  UNL     1      52.528  42.039  67.569  1.00  0.00     0.169 HD
HETATM   13  C4  UNL     1      51.139  42.473  69.038  1.00  0.00     0.264 A 
HETATM   14  O2  UNL     1      50.794  43.590  68.574  1.00  0.00    -0.267 OA
HETATM   15  C5  UNL     1      50.528  42.052  70.188  1.00  0.00     0.133 A 
HETATM   16  C6  UNL     1      49.562  42.753  70.884  1.00  0.00     0.260 A 
HETATM   17  O3  UNL     1      49.213  43.871  70.426  1.00  0.00    -0.281 OA
ENDROOT
TORSDOF 0
ENDMDL
MODEL 2
REMARK VINA RESULT: -6.946096145      1.348      3.646
REMARK  0 active torsions:
REMARK  status: ('A' for Active; 'I' for Inactive)
ROOT
HETATM    1  O1  UNL     1      52.543  40.926  68.061  1.00  0.00    -0.262 OA
HETATM    2  C1  UNL     1      51.809  41.086  69.064  1.00  0.00     0.311 A 
HETATM    3  N1  UNL     1      51.746  40.122  69.992  1.00  0.00    -0.262 N 
ATOM      4  H1  UNL     1      52.291  39.266  69.884  1.00  0.00     0.190 HD
HETATM    5  N2  UNL     1      50.972  40.291  71.052  1.00  0.00    -0.282 N 
ATOM      6  H2  UNL     1      50.945  39.540  71.742  1.00  0.00     0.188 HD
HETATM    7  C2  UNL     1      50.220  41.374  71.286  1.00  0.00     0.141 A 
HETATM    8  N3  UNL     1      49.440  41.511  72.380  1.00  0.00    -0.337 N 
ATOM      9  H3  UNL     1      49.427  40.749  73.057  1.00  0.00     0.168 HD
HETATM   10  C3  UNL     1      48.682  42.590  72.629  1.00  0.00     0.185 A 
HETATM   11  N4  UNL     1      48.706  43.588  71.731  1.00  0.00    -0.319 N 
ATOM     12  H4  UNL     1      48.140  44.421  71.890  1.00  0.00     0.169 HD
HETATM   13  C4  UNL     1      49.477  43.505  70.605  1.00  0.00     0.264 A 
HETATM   14  O2  UNL     1      49.508  44.433  69.757  1.00  0.00    -0.267 OA
HETATM   15  C5  UNL     1      50.247  42.400  70.360  1.00  0.00     0.133 A 
HETATM   16  C6  UNL     1      51.057  42.219  69.256  1.00  0.00     0.260 A 
HETATM   17  O3  UNL     1      51.093  43.143  68.403  1.00  0.00    -0.281 OA
ENDROOT
TORSDOF 0
ENDMDL
MODEL 3
REMARK VINA RESULT: -6.775401980      1.046      3.566
REMARK  0 active torsions:
REMARK  status: ('A' for Active; 'I' for Inactive)
ROOT
HETATM    1  O1  UNL     1      50.997  43.973  68.002  1.00  0.00    -0.262 OA
HETATM    2  C1  UNL     1      50.835  43.117  68.902  1.00  0.00     0.311 A 
HETATM    3  N1  UNL     1      51.555  41.989  68.873  1.00  0.00    -0.262 N 
ATOM      4  H1  UNL     1      52.230  41.828  68.125  1.00  0.00     0.190 HD
HETATM    5  N2  UNL     1      51.384  41.084  69.823  1.00  0.00    -0.282 N 
ATOM      6  H2  UNL     1      51.948  40.234  69.774  1.00  0.00     0.188 HD
HETATM    7  C2  UNL     1      50.527  41.200  70.845  1.00  0.00     0.141 A 
HETATM    8  N3  UNL     1      50.378  40.255  71.798  1.00  0.00    -0.337 N 
ATOM      9  H3  UNL     1      50.950  39.412  71.730  1.00  0.00     0.168 HD
HETATM   10  C3  UNL     1      49.524  40.356  72.828  1.00  0.00     0.185 A 
HETATM   11  N4  UNL     1      48.775  41.468  72.907  1.00  0.00    -0.319 N 
ATOM     12  H4  UNL     1      48.115  41.575  73.677  1.00  0.00     0.169 HD
HETATM   13  C4  UNL     1      48.882  42.459  71.972  1.00  0.00     0.264 A 
HETATM   14  O2  UNL     1      48.187  43.505  72.036  1.00  0.00    -0.267 OA
HETATM   15  C5  UNL     1      49.757  42.346  70.925  1.00  0.00     0.133 A 
HETATM   16  C6  UNL     1      49.940  43.287  69.930  1.00  0.00     0.260 A 
HETATM   17  O3  UNL     1      49.247  44.335  69.987  1.00  0.00    -0.281 OA
ENDROOT
TORSDOF 0
ENDMDL
MODEL 4
REMARK VINA RESULT: -6.485758925      2.216      2.679
REMARK  0 active torsions:
REMARK  status: ('A' for Active; 'I' for Inactive)
ROOT
HETATM    1  O1  UNL     1      48.388  42.385  73.616  1.00  0.00    -0.262 OA
HETATM    2  C1  UNL     1      48.901  42.705  72.519  1.00  0.00     0.311 A 
HETATM    3  N1  UNL     1      48.631  43.906  71.993  1.00  0.00    -0.262 N 
ATOM      4  H1  UNL     1      48.012  44.554  72.480  1.00  0.00     0.190 HD
HETATM    5  N2  UNL     1      49.173  44.245  70.834  1.00  0.00    -0.282 N 
ATOM      6  H2  UNL     1      48.949  45.167  70.458  1.00  0.00     0.188 HD
HETATM    7  C2  UNL     1      49.995  43.468  70.117  1.00  0.00     0.141 A 
HETATM    8  N3  UNL     1      50.530  43.847  68.937  1.00  0.00    -0.337 N 
ATOM      9  H3  UNL     1      50.292  44.772  68.578  1.00  0.00     0.168 HD
HETATM   10  C3  UNL     1      51.355  43.080  68.207  1.00  0.00     0.185 A 
HETATM   11  N4  UNL     1      51.661  41.864  68.688  1.00  0.00    -0.319 N 
ATOM     12  H4  UNL     1      52.285  41.256  68.157  1.00  0.00     0.169 HD
HETATM   13  C4  UNL     1      51.150  41.426  69.877  1.00  0.00     0.264 A 
HETATM   14  O2  UNL     1      51.429  40.290  70.337  1.00  0.00    -0.267 OA
HETATM   15  C5  UNL     1      50.309  42.216  70.614  1.00  0.00     0.133 A 
HETATM   16  C6  UNL     1      49.740  41.868  71.824  1.00  0.00     0.260 A 
HETATM   17  O3  UNL     1      50.014  40.733  72.290  1.00  0.00    -0.281 OA
ENDROOT
TORSDOF 0
ENDMDL
MODEL 5
REMARK VINA RESULT: -6.078742163      2.290      3.709
REMARK  0 active torsions:
REMARK  status: ('A' for Active; 'I' for Inactive)
ROOT
HETATM    1  O1  UNL     1      50.681  44.534  68.084  1.00  0.00    -0.262 OA
HETATM    2  C1  UNL     1      50.310  43.914  69.107  1.00  0.00     0.311 A 
HETATM    3  N1  UNL     1      49.455  44.501  69.956  1.00  0.00    -0.262 N 
ATOM      4  H1  UNL     1      49.110  45.442  69.771  1.00  0.00     0.190 HD
HETATM    5  N2  UNL     1      49.062  43.846  71.038  1.00  0.00    -0.282 N 
ATOM      6  H2  UNL     1      48.411  44.319  71.665  1.00  0.00     0.188 HD
HETATM    7  C2  UNL     1      49.456  42.611  71.370  1.00  0.00     0.141 A 
HETATM    8  N3  UNL     1      49.035  41.974  72.483  1.00  0.00    -0.337 N 
ATOM      9  H3  UNL     1      48.384  42.464  73.098  1.00  0.00     0.168 HD
HETATM   10  C3  UNL     1      49.420  40.736  72.831  1.00  0.00     0.185 A 
HETATM   11  N4  UNL     1      50.277  40.100  72.015  1.00  0.00    -0.319 N 
ATOM     12  H4  UNL     1      50.590  39.159  72.251  1.00  0.00     0.169 HD
HETATM   13  C4  UNL     1      50.738  40.695  70.874  1.00  0.00     0.264 A 
HETATM   14  O2  UNL     1      51.540  40.110  70.103  1.00  0.00    -0.267 OA
HETATM   15  C5  UNL     1      50.339  41.958  70.529  1.00  0.00     0.133 A 
HETATM   16  C6  UNL     1      50.745  42.645  69.402  1.00  0.00     0.260 A 
HETATM   17  O3  UNL     1      51.548  42.066  68.626  1.00  0.00    -0.281 OA
ENDROOT
TORSDOF 0
ENDMDL
