MODEL 1
REMARK VINA RESULT: -6.624163687      0.000      0.000
REMARK  3 active torsions:
REMARK  status: ('A' for Active; 'I' for Inactive)
REMARK    1  A    between atoms: C2_5  and  N3_6 
REMARK    2  A    between atoms: C2_5  and  C4_11 
REMARK    3  A    between atoms: N7_13  and  N8_15 
ROOT
HETATM    1  N1  UNL     1      50.339  43.885  69.431  1.00  0.00    -0.172 NA
HETATM    2  C1  UNL     1      51.133  43.014  69.458  1.00  0.00     0.183 C 
HETATM    3  N2  UNL     1      52.068  42.018  69.456  1.00  0.00    -0.276 N 
ATOM      4  H2  UNL     1      52.702  41.983  68.658  1.00  0.00     0.179 HD
HETATM    5  C2  UNL     1      52.221  41.141  70.341  1.00  0.00     0.159 C 
ENDROOT
BRANCH   5   6
HETATM    6  N3  UNL     1      53.264  40.135  70.207  1.00  0.00    -0.316 N 
HETATM    7  C3  UNL     1      53.283  39.335  69.216  1.00  0.00     0.202 C 
HETATM    8  N4  UNL     1      54.311  38.369  69.118  1.00  0.00    -0.066 NA
HETATM    9  N5  UNL     1      52.275  39.424  68.227  1.00  0.00    -0.066 NA
ATOM     10  H3  UNL     1      53.992  40.069  70.919  1.00  0.00     0.169 HD
ENDBRANCH   5   6
BRANCH   5  11
HETATM   11  C4  UNL     1      51.409  41.042  71.540  1.00  0.00     0.177 C 
HETATM   12  N6  UNL     1      51.442  42.057  72.519  1.00  0.00    -0.077 NA
HETATM   13  N7  UNL     1      50.666  39.989  71.666  1.00  0.00    -0.271 N 
ATOM     14  H7  UNL     1      50.700  39.301  70.914  1.00  0.00     0.190 HD
BRANCH  13  15
HETATM   15  N8  UNL     1      49.838  39.723  72.724  1.00  0.00    -0.248 N 
HETATM   16  N9  UNL     1      48.916  40.511  73.145  1.00  0.00    -0.331 N 
ATOM     17  H92 UNL     1      48.805  41.393  72.645  1.00  0.00     0.178 HD
ATOM     18  H91 UNL     1      48.299  40.313  73.932  1.00  0.00     0.178 HD
ATOM     19  H8  UNL     1      49.963  38.837  73.212  1.00  0.00     0.207 HD
ENDBRANCH  13  15
ENDBRANCH   5  11
TORSDOF 3
ENDMDL
MODEL 2
REMARK VINA RESULT: -6.533025145      0.689      1.033
REMARK  3 active torsions:
REMARK  status: ('A' for Active; 'I' for Inactive)
REMARK    1  A    between atoms: C2_5  and  N3_6 
REMARK    2  A    between atoms: C2_5  and  C4_11 
REMARK    3  A    between atoms: N7_13  and  N8_15 
ROOT
HETATM    1  N1  UNL     1      50.426  43.831  69.391  1.00  0.00    -0.172 NA
HETATM    2  C1  UNL     1      51.088  42.858  69.334  1.00  0.00     0.183 C 
HETATM    3  N2  UNL     1      51.868  41.739  69.234  1.00  0.00    -0.276 N 
ATOM      4  H2  UNL     1      52.385  41.616  68.364  1.00  0.00     0.179 HD
HETATM    5  C2  UNL     1      52.008  40.850  70.109  1.00  0.00     0.159 C 
ENDROOT
BRANCH   5   6
HETATM    6  N3  UNL     1      52.874  39.707  69.863  1.00  0.00    -0.316 N 
HETATM    7  C3  UNL     1      54.126  39.858  69.678  1.00  0.00     0.202 C 
HETATM    8  N4  UNL     1      54.937  38.724  69.442  1.00  0.00    -0.066 NA
HETATM    9  N5  UNL     1      54.685  41.157  69.710  1.00  0.00    -0.066 NA
ATOM     10  H3  UNL     1      52.473  38.769  69.840  1.00  0.00     0.169 HD
ENDBRANCH   5   6
BRANCH   5  11
HETATM   11  C4  UNL     1      51.348  40.866  71.401  1.00  0.00     0.177 C 
HETATM   12  N6  UNL     1      51.594  41.905  72.324  1.00  0.00    -0.077 NA
HETATM   13  N7  UNL     1      50.535  39.893  71.662  1.00  0.00    -0.271 N 
ATOM     14  H7  UNL     1      50.411  39.182  70.942  1.00  0.00     0.190 HD
BRANCH  13  15
HETATM   15  N8  UNL     1      49.826  39.740  72.825  1.00  0.00    -0.248 N 
HETATM   16  N9  UNL     1      48.868  40.508  73.202  1.00  0.00    -0.331 N 
ATOM     17  H92 UNL     1      48.632  41.282  72.580  1.00  0.00     0.178 HD
ATOM     18  H91 UNL     1      48.340  40.394  74.067  1.00  0.00     0.178 HD
ATOM     19  H8  UNL     1      50.076  38.962  73.433  1.00  0.00     0.207 HD
ENDBRANCH  13  15
ENDBRANCH   5  11
TORSDOF 3
ENDMDL
MODEL 3
REMARK VINA RESULT: -6.092260587      1.350      1.964
REMARK  3 active torsions:
REMARK  status: ('A' for Active; 'I' for Inactive)
REMARK    1  A    between atoms: C2_5  and  N3_6 
REMARK    2  A    between atoms: C2_5  and  C4_11 
REMARK    3  A    between atoms: N7_13  and  N8_15 
ROOT
HETATM    1  N1  UNL     1      53.088  43.517  72.640  1.00  0.00    -0.172 NA
HETATM    2  C1  UNL     1      52.963  42.938  71.622  1.00  0.00     0.183 C 
HETATM    3  N2  UNL     1      52.851  42.280  70.429  1.00  0.00    -0.276 N 
ATOM      4  H2  UNL     1      53.594  42.431  69.748  1.00  0.00     0.179 HD
HETATM    5  C2  UNL     1      51.920  41.508  70.090  1.00  0.00     0.159 C 
ENDROOT
BRANCH   5   6
HETATM    6  N3  UNL     1      51.930  40.874  68.781  1.00  0.00    -0.316 N 
HETATM    7  C3  UNL     1      52.653  39.851  68.550  1.00  0.00     0.202 C 
HETATM    8  N4  UNL     1      52.638  39.261  67.265  1.00  0.00    -0.066 NA
HETATM    9  N5  UNL     1      53.461  39.319  69.583  1.00  0.00    -0.066 NA
ATOM     10  H3  UNL     1      51.349  41.255  68.034  1.00  0.00     0.169 HD
ENDBRANCH   5   6
BRANCH   5  11
HETATM   11  C4  UNL     1      50.784  41.181  70.933  1.00  0.00     0.177 C 
HETATM   12  N6  UNL     1      49.673  42.046  71.012  1.00  0.00    -0.077 NA
HETATM   13  N7  UNL     1      50.842  40.073  71.599  1.00  0.00    -0.271 N 
ATOM     14  H7  UNL     1      51.681  39.503  71.487  1.00  0.00     0.190 HD
BRANCH  13  15
HETATM   15  N8  UNL     1      49.871  39.601  72.442  1.00  0.00    -0.248 N 
HETATM   16  N9  UNL     1      49.195  40.329  73.256  1.00  0.00    -0.331 N 
ATOM     17  H92 UNL     1      49.409  41.326  73.263  1.00  0.00     0.178 HD
ATOM     18  H91 UNL     1      48.471  39.978  73.883  1.00  0.00     0.178 HD
ATOM     19  H8  UNL     1      49.671  38.602  72.422  1.00  0.00     0.207 HD
ENDBRANCH  13  15
ENDBRANCH   5  11
TORSDOF 3
ENDMDL
MODEL 4
REMARK VINA RESULT: -5.936571804      1.953      2.980
REMARK  3 active torsions:
REMARK  status: ('A' for Active; 'I' for Inactive)
REMARK    1  A    between atoms: C2_5  and  N3_6 
REMARK    2  A    between atoms: C2_5  and  C4_11 
REMARK    3  A    between atoms: N7_13  and  N8_15 
ROOT
HETATM    1  N1  UNL     1      48.784  43.754  70.839  1.00  0.00    -0.172 NA
HETATM    2  C1  UNL     1      49.948  43.618  70.722  1.00  0.00     0.183 C 
HETATM    3  N2  UNL     1      51.303  43.499  70.585  1.00  0.00    -0.276 N 
ATOM      4  H2  UNL     1      51.831  44.362  70.463  1.00  0.00     0.179 HD
HETATM    5  C2  UNL     1      51.959  42.429  70.593  1.00  0.00     0.159 C 
ENDROOT
BRANCH   5   6
HETATM    6  N3  UNL     1      53.405  42.452  70.434  1.00  0.00    -0.316 N 
HETATM    7  C3  UNL     1      54.158  42.958  71.328  1.00  0.00     0.202 C 
HETATM    8  N4  UNL     1      55.560  42.963  71.140  1.00  0.00    -0.066 NA
HETATM    9  N5  UNL     1      53.581  43.508  72.497  1.00  0.00    -0.066 NA
ATOM     10  H3  UNL     1      53.824  42.055  69.592  1.00  0.00     0.169 HD
ENDBRANCH   5   6
BRANCH   5  11
HETATM   11  C4  UNL     1      51.371  41.112  70.755  1.00  0.00     0.177 C 
HETATM   12  N6  UNL     1      51.385  40.180  69.695  1.00  0.00    -0.077 NA
HETATM   13  N7  UNL     1      50.838  40.839  71.902  1.00  0.00    -0.271 N 
ATOM     14  H7  UNL     1      50.869  41.567  72.616  1.00  0.00     0.190 HD
BRANCH  13  15
HETATM   15  N8  UNL     1      50.237  39.655  72.238  1.00  0.00    -0.248 N 
HETATM   16  N9  UNL     1      49.461  39.490  73.248  1.00  0.00    -0.331 N 
ATOM     17  H92 UNL     1      49.291  40.310  73.831  1.00  0.00     0.178 HD
ATOM     18  H91 UNL     1      49.014  38.609  73.498  1.00  0.00     0.178 HD
ATOM     19  H8  UNL     1      50.419  38.846  71.644  1.00  0.00     0.207 HD
ENDBRANCH  13  15
ENDBRANCH   5  11
TORSDOF 3
ENDMDL
MODEL 5
REMARK VINA RESULT: -5.928102746      1.862      3.349
REMARK  3 active torsions:
REMARK  status: ('A' for Active; 'I' for Inactive)
REMARK    1  A    between atoms: C2_5  and  N3_6 
REMARK    2  A    between atoms: C2_5  and  C4_11 
REMARK    3  A    between atoms: N7_13  and  N8_15 
ROOT
HETATM    1  N1  UNL     1      51.979  39.757  68.182  1.00  0.00    -0.172 NA
HETATM    2  C1  UNL     1      52.269  40.662  68.879  1.00  0.00     0.183 C 
HETATM    3  N2  UNL     1      52.635  41.719  69.664  1.00  0.00    -0.276 N 
ATOM      4  H2  UNL     1      53.467  42.236  69.382  1.00  0.00     0.179 HD
HETATM    5  C2  UNL     1      52.045  42.116  70.699  1.00  0.00     0.159 C 
ENDROOT
BRANCH   5   6
HETATM    6  N3  UNL     1      52.550  43.261  71.440  1.00  0.00    -0.316 N 
HETATM    7  C3  UNL     1      53.708  43.243  71.971  1.00  0.00     0.202 C 
HETATM    8  N4  UNL     1      54.166  44.375  72.684  1.00  0.00    -0.066 NA
HETATM    9  N5  UNL     1      54.518  42.091  71.840  1.00  0.00    -0.066 NA
ATOM     10  H3  UNL     1      51.968  44.093  71.535  1.00  0.00     0.169 HD
ENDBRANCH   5   6
BRANCH   5  11
HETATM   11  C4  UNL     1      50.848  41.499  71.242  1.00  0.00     0.177 C 
HETATM   12  N6  UNL     1      49.577  42.065  71.011  1.00  0.00    -0.077 NA
HETATM   13  N7  UNL     1      51.004  40.422  71.942  1.00  0.00    -0.271 N 
ATOM     14  H7  UNL     1      51.956  40.077  72.063  1.00  0.00     0.190 HD
BRANCH  13  15
HETATM   15  N8  UNL     1      49.997  39.705  72.532  1.00  0.00    -0.248 N 
HETATM   16  N9  UNL     1      49.081  40.211  73.277  1.00  0.00    -0.331 N 
ATOM     17  H92 UNL     1      49.121  41.219  73.429  1.00  0.00     0.178 HD
ATOM     18  H91 UNL     1      48.331  39.678  73.716  1.00  0.00     0.178 HD
ATOM     19  H8  UNL     1      49.972  38.699  72.369  1.00  0.00     0.207 HD
ENDBRANCH  13  15
ENDBRANCH   5  11
TORSDOF 3
ENDMDL
