MODEL 1
REMARK VINA RESULT: -6.283132277      0.000      0.000
REMARK  4 active torsions:
REMARK  status: ('A' for Active; 'I' for Inactive)
REMARK       I    between atoms: C2_2  and  N1_4 
REMARK    1  A    between atoms: N1_4  and  C3_6 
REMARK    2  A    between atoms: C4_11  and  C5_12 
REMARK    3  A    between atoms: C5_12  and  O2_16 
REMARK    4  A    between atoms: N5_18  and  N6_19 
ROOT
HETATM    1  C3  UNL     1      51.928  41.104  70.756  1.00  0.00     0.722 A 
HETATM    2  N2  UNL     1      51.339  39.974  71.187  1.00  0.00    -0.128 N 
ATOM      3  H2  UNL     1      51.634  39.033  70.924  1.00  0.00     0.205 HD
HETATM    4  N3  UNL     1      50.329  40.242  71.997  1.00  0.00    -0.266 N 
ATOM      5  H3  UNL     1      49.725  39.560  72.456  1.00  0.00     0.189 HD
HETATM    6  C4  UNL     1      50.243  41.593  72.108  1.00  0.00     0.210 A 
HETATM    7  N5  UNL     1      51.230  42.107  71.342  1.00  0.00    -0.069 N 
ENDROOT
BRANCH   6   8
HETATM    8  C5  UNL     1      49.262  42.314  72.908  1.00  0.00     0.182 C 
HETATM    9  N4  UNL     1      48.861  41.797  74.010  1.00  0.00    -0.377 N 
ATOM     10  H42 UNL     1      49.233  40.896  74.308  1.00  0.00     0.158 HD
ATOM     11  H41 UNL     1      48.174  42.302  74.571  1.00  0.00     0.158 HD
BRANCH   8  12
HETATM   12  O2  UNL     1      48.758  43.536  72.505  1.00  0.00    -0.344 OA
ATOM     13  H2  UNL     1      48.046  43.596  71.879  1.00  0.00     0.219 HD
ENDBRANCH   8  12
ENDBRANCH   6   8
BRANCH   7  14
HETATM   14  N6  UNL     1      51.490  43.467  71.178  1.00  0.00    -0.322 N 
ATOM     15  H62 UNL     1      51.043  44.216  71.707  1.00  0.00     0.178 HD
ATOM     16  H61 UNL     1      52.155  43.861  70.513  1.00  0.00     0.178 HD
ENDBRANCH   7  14
BRANCH   1  17
HETATM   17  N1  UNL     1      52.941  41.178  69.956  1.00  0.00    -0.157 N 
HETATM   18  C2  UNL     1      53.332  40.141  69.102  1.00  0.00     0.232 C 
HETATM   19  C1  UNL     1      52.760  40.023  67.739  1.00  0.00     0.118 C 
HETATM   20  O1  UNL     1      54.182  39.295  69.499  1.00  0.00    -0.273 OA
ATOM     21  H1  UNL     1      53.485  42.041  69.946  1.00  0.00     0.187 HD
ENDBRANCH   1  17
TORSDOF 4
ENDMDL
MODEL 2
REMARK VINA RESULT: -6.124061822      1.928      2.137
REMARK  4 active torsions:
REMARK  status: ('A' for Active; 'I' for Inactive)
REMARK       I    between atoms: C2_2  and  N1_4 
REMARK    1  A    between atoms: N1_4  and  C3_6 
REMARK    2  A    between atoms: C4_11  and  C5_12 
REMARK    3  A    between atoms: C5_12  and  O2_16 
REMARK    4  A    between atoms: N5_18  and  N6_19 
ROOT
HETATM    1  C3  UNL     1      52.184  41.561  70.526  1.00  0.00     0.722 A 
HETATM    2  N2  UNL     1      51.947  40.249  70.707  1.00  0.00    -0.128 N 
ATOM      3  H2  UNL     1      52.506  39.500  70.298  1.00  0.00     0.205 HD
HETATM    4  N3  UNL     1      50.894  40.057  71.484  1.00  0.00    -0.266 N 
ATOM      5  H3  UNL     1      50.512  39.156  71.772  1.00  0.00     0.189 HD
HETATM    6  C4  UNL     1      50.416  41.280  71.830  1.00  0.00     0.210 A 
HETATM    7  N5  UNL     1      51.216  42.191  71.235  1.00  0.00    -0.069 N 
ENDROOT
BRANCH   6   8
HETATM    8  C5  UNL     1      49.259  41.524  72.681  1.00  0.00     0.182 C 
HETATM    9  N4  UNL     1      48.730  40.538  73.306  1.00  0.00    -0.377 N 
ATOM     10  H42 UNL     1      49.125  39.604  73.199  1.00  0.00     0.158 HD
ATOM     11  H41 UNL     1      47.920  40.709  73.901  1.00  0.00     0.158 HD
BRANCH   8  12
HETATM   12  O2  UNL     1      48.723  42.789  72.826  1.00  0.00    -0.344 OA
ATOM     13  H2  UNL     1      47.998  42.956  73.417  1.00  0.00     0.219 HD
ENDBRANCH   8  12
ENDBRANCH   6   8
BRANCH   7  14
HETATM   14  N6  UNL     1      51.069  43.573  71.336  1.00  0.00    -0.322 N 
ATOM     15  H62 UNL     1      51.415  44.250  70.656  1.00  0.00     0.178 HD
ATOM     16  H61 UNL     1      50.600  44.059  72.101  1.00  0.00     0.178 HD
ENDBRANCH   7  14
BRANCH   1  17
HETATM   17  N1  UNL     1      53.138  42.072  69.819  1.00  0.00    -0.157 N 
HETATM   18  C2  UNL     1      54.229  42.755  70.368  1.00  0.00     0.232 C 
HETATM   19  C1  UNL     1      55.453  42.025  70.779  1.00  0.00     0.118 C 
HETATM   20  O1  UNL     1      54.170  44.008  70.514  1.00  0.00    -0.273 OA
ATOM     21  H1  UNL     1      53.093  41.971  68.805  1.00  0.00     0.187 HD
ENDBRANCH   1  17
TORSDOF 4
ENDMDL
MODEL 3
REMARK VINA RESULT: -5.976843616      2.518      2.978
REMARK  4 active torsions:
REMARK  status: ('A' for Active; 'I' for Inactive)
REMARK       I    between atoms: C2_2  and  N1_4 
REMARK    1  A    between atoms: N1_4  and  C3_6 
REMARK    2  A    between atoms: C4_11  and  C5_12 
REMARK    3  A    between atoms: C5_12  and  O2_16 
REMARK    4  A    between atoms: N5_18  and  N6_19 
ROOT
HETATM    1  C3  UNL     1      51.499  42.938  70.782  1.00  0.00     0.722 A 
HETATM    2  N2  UNL     1      50.519  43.859  70.830  1.00  0.00    -0.128 N 
ATOM      3  H2  UNL     1      50.501  44.712  70.270  1.00  0.00     0.205 HD
HETATM    4  N3  UNL     1      49.583  43.514  71.698  1.00  0.00    -0.266 N 
ATOM      5  H3  UNL     1      48.738  44.043  71.916  1.00  0.00     0.189 HD
HETATM    6  C4  UNL     1      49.951  42.327  72.244  1.00  0.00     0.210 A 
HETATM    7  N5  UNL     1      51.127  41.987  71.673  1.00  0.00    -0.069 N 
ENDROOT
BRANCH   6   8
HETATM    8  C5  UNL     1      49.198  41.591  73.251  1.00  0.00     0.182 C 
HETATM    9  N4  UNL     1      49.012  40.334  73.089  1.00  0.00    -0.377 N 
ATOM     10  H42 UNL     1      49.393  39.871  72.264  1.00  0.00     0.158 HD
ATOM     11  H41 UNL     1      48.485  39.818  73.793  1.00  0.00     0.158 HD
BRANCH   8  12
HETATM   12  O2  UNL     1      48.682  42.218  74.369  1.00  0.00    -0.344 OA
ATOM     13  H2  UNL     1      49.205  42.344  75.153  1.00  0.00     0.219 HD
ENDBRANCH   8  12
ENDBRANCH   6   8
BRANCH   7  14
HETATM   14  N6  UNL     1      51.850  40.830  71.958  1.00  0.00    -0.322 N 
ATOM     15  H62 UNL     1      51.981  40.436  72.890  1.00  0.00     0.178 HD
ATOM     16  H61 UNL     1      52.327  40.251  71.267  1.00  0.00     0.178 HD
ENDBRANCH   7  14
BRANCH   1  17
HETATM   17  N1  UNL     1      52.552  42.985  70.034  1.00  0.00    -0.157 N 
HETATM   18  C2  UNL     1      53.801  43.430  70.480  1.00  0.00     0.232 C 
HETATM   19  C1  UNL     1      54.764  42.490  71.104  1.00  0.00     0.118 C 
HETATM   20  O1  UNL     1      54.111  44.648  70.350  1.00  0.00    -0.273 OA
ATOM     21  H1  UNL     1      52.468  42.680  69.064  1.00  0.00     0.187 HD
ENDBRANCH   1  17
TORSDOF 4
ENDMDL
MODEL 4
REMARK VINA RESULT: -5.976520794      1.227      2.095
REMARK  4 active torsions:
REMARK  status: ('A' for Active; 'I' for Inactive)
REMARK       I    between atoms: C2_2  and  N1_4 
REMARK    1  A    between atoms: N1_4  and  C3_6 
REMARK    2  A    between atoms: C4_11  and  C5_12 
REMARK    3  A    between atoms: C5_12  and  O2_16 
REMARK    4  A    between atoms: N5_18  and  N6_19 
ROOT
HETATM    1  C3  UNL     1      52.607  41.571  71.462  1.00  0.00     0.722 A 
HETATM    2  N2  UNL     1      52.794  42.872  71.750  1.00  0.00    -0.128 N 
ATOM      3  H2  UNL     1      53.663  43.380  71.584  1.00  0.00     0.205 HD
HETATM    4  N3  UNL     1      51.704  43.405  72.275  1.00  0.00    -0.266 N 
ATOM      5  H3  UNL     1      51.590  44.373  72.576  1.00  0.00     0.189 HD
HETATM    6  C4  UNL     1      50.763  42.429  72.339  1.00  0.00     0.210 A 
HETATM    7  N5  UNL     1      51.331  41.311  71.837  1.00  0.00    -0.069 N 
ENDROOT
BRANCH   6   8
HETATM    8  C5  UNL     1      49.411  42.592  72.856  1.00  0.00     0.182 C 
HETATM    9  N4  UNL     1      48.993  41.789  73.763  1.00  0.00    -0.377 N 
ATOM     10  H42 UNL     1      49.610  41.054  74.108  1.00  0.00     0.158 HD
ATOM     11  H41 UNL     1      48.046  41.903  74.125  1.00  0.00     0.158 HD
BRANCH   8  12
HETATM   12  O2  UNL     1      48.574  43.588  72.389  1.00  0.00    -0.344 OA
ATOM     13  H2  UNL     1      47.855  43.919  72.915  1.00  0.00     0.219 HD
ENDBRANCH   8  12
ENDBRANCH   6   8
BRANCH   7  14
HETATM   14  N6  UNL     1      50.699  40.073  71.723  1.00  0.00    -0.322 N 
ATOM     15  H62 UNL     1      50.873  39.269  72.326  1.00  0.00     0.178 HD
ATOM     16  H61 UNL     1      49.995  39.837  71.024  1.00  0.00     0.178 HD
ENDBRANCH   7  14
BRANCH   1  17
HETATM   17  N1  UNL     1      53.480  40.773  70.941  1.00  0.00    -0.157 N 
HETATM   18  C2  UNL     1      54.073  40.981  69.691  1.00  0.00     0.232 C 
HETATM   19  C1  UNL     1      55.311  41.789  69.562  1.00  0.00     0.118 C 
HETATM   20  O1  UNL     1      53.547  40.475  68.660  1.00  0.00    -0.273 OA
ATOM     21  H1  UNL     1      53.753  39.945  71.471  1.00  0.00     0.187 HD
ENDBRANCH   1  17
TORSDOF 4
ENDMDL
MODEL 5
REMARK VINA RESULT: -5.805676420      1.814      2.497
REMARK  4 active torsions:
REMARK  status: ('A' for Active; 'I' for Inactive)
REMARK       I    between atoms: C2_2  and  N1_4 
REMARK    1  A    between atoms: N1_4  and  C3_6 
REMARK    2  A    between atoms: C4_11  and  C5_12 
REMARK    3  A    between atoms: C5_12  and  O2_16 
REMARK    4  A    between atoms: N5_18  and  N6_19 
ROOT
HETATM    1  C3  UNL     1      52.223  40.405  69.740  1.00  0.00     0.722 A 
HETATM    2  N2  UNL     1      52.314  41.458  68.907  1.00  0.00    -0.128 N 
ATOM      3  H2  UNL     1      52.976  41.526  68.134  1.00  0.00     0.205 HD
HETATM    4  N3  UNL     1      51.433  42.392  69.222  1.00  0.00    -0.266 N 
ATOM      5  H3  UNL     1      51.302  43.284  68.744  1.00  0.00     0.189 HD
HETATM    6  C4  UNL     1      50.735  41.948  70.298  1.00  0.00     0.210 A 
HETATM    7  N5  UNL     1      51.230  40.729  70.604  1.00  0.00    -0.069 N 
ENDROOT
BRANCH   6   8
HETATM    8  C5  UNL     1      49.664  42.673  70.968  1.00  0.00     0.182 C 
HETATM    9  N4  UNL     1      49.774  43.941  71.120  1.00  0.00    -0.377 N 
ATOM     10  H42 UNL     1      50.604  44.419  70.771  1.00  0.00     0.158 HD
ATOM     11  H41 UNL     1      49.025  44.449  71.589  1.00  0.00     0.158 HD
BRANCH   8  12
HETATM   12  O2  UNL     1      48.538  42.026  71.442  1.00  0.00    -0.344 OA
ATOM     13  H2  UNL     1      47.690  42.452  71.456  1.00  0.00     0.219 HD
ENDBRANCH   8  12
ENDBRANCH   6   8
BRANCH   7  14
HETATM   14  N6  UNL     1      50.786  39.924  71.652  1.00  0.00    -0.322 N 
ATOM     15  H62 UNL     1      49.975  40.121  72.238  1.00  0.00     0.178 HD
ATOM     16  H61 UNL     1      51.224  39.052  71.948  1.00  0.00     0.178 HD
ENDBRANCH   7  14
BRANCH   1  17
HETATM   17  N1  UNL     1      52.944  39.334  69.695  1.00  0.00    -0.157 N 
HETATM   18  C2  UNL     1      53.674  38.936  68.569  1.00  0.00     0.232 C 
HETATM   19  C1  UNL     1      55.064  39.411  68.359  1.00  0.00     0.118 C 
HETATM   20  O1  UNL     1      53.142  38.165  67.722  1.00  0.00    -0.273 OA
ATOM     21  H1  UNL     1      52.984  38.745  70.527  1.00  0.00     0.187 HD
ENDBRANCH   1  17
TORSDOF 4
ENDMDL
