MODEL 1
REMARK VINA RESULT: -5.880135020      0.000      0.000
REMARK  2 active torsions:
REMARK  status: ('A' for Active; 'I' for Inactive)
REMARK    1  A    between atoms: C1_2  and  C2_4 
REMARK       I    between atoms: C2_4  and  N2_6 
REMARK    2  A    between atoms: N2_6  and  N3_8 
REMARK       I    between atoms: N3_8  and  C3_10 
REMARK       I    between atoms: C3_10  and  N4_12 
ROOT
HETATM    1  N3  UNL     1      51.445  39.960  71.105  1.00  0.00    -0.248 N 
ATOM      2  H3  UNL     1      51.745  39.214  71.733  1.00  0.00     0.192 HD
HETATM    3  C3  UNL     1      52.168  40.162  69.927  1.00  0.00     0.341 C 
HETATM    4  O3  UNL     1      51.855  41.041  69.109  1.00  0.00    -0.245 OA
HETATM    5  N4  UNL     1      53.292  39.346  69.658  1.00  0.00    -0.284 N 
ATOM      6  H4  UNL     1      53.173  38.334  69.616  1.00  0.00     0.172 HD
HETATM    7  C4  UNL     1      54.468  39.856  69.464  1.00  0.00     0.204 C 
HETATM    8  N5  UNL     1      55.536  38.980  69.203  1.00  0.00    -0.066 NA
HETATM    9  N6  UNL     1      54.631  41.259  69.512  1.00  0.00    -0.066 NA
ENDROOT
BRANCH   1  10
HETATM   10  N2  UNL     1      50.325  40.728  71.473  1.00  0.00    -0.258 N 
HETATM   11  C2  UNL     1      50.475  41.914  72.235  1.00  0.00     0.325 C 
HETATM   12  O2  UNL     1      51.626  42.257  72.571  1.00  0.00    -0.261 OA
ATOM     13  H2  UNL     1      49.393  40.428  71.187  1.00  0.00     0.190 HD
BRANCH  11  14
HETATM   14  C1  UNL     1      49.310  42.685  72.600  1.00  0.00     0.324 C 
HETATM   15  N1  UNL     1      48.741  43.640  71.671  1.00  0.00    -0.053 NA
HETATM   16  O1  UNL     1      48.732  42.583  73.709  1.00  0.00    -0.266 OA
ENDBRANCH  11  14
ENDBRANCH   1  10
TORSDOF 2
ENDMDL
MODEL 2
REMARK VINA RESULT: -5.498758532      2.311      5.817
REMARK  2 active torsions:
REMARK  status: ('A' for Active; 'I' for Inactive)
REMARK    1  A    between atoms: C1_2  and  C2_4 
REMARK       I    between atoms: C2_4  and  N2_6 
REMARK    2  A    between atoms: N2_6  and  N3_8 
REMARK       I    between atoms: N3_8  and  C3_10 
REMARK       I    between atoms: C3_10  and  N4_12 
ROOT
HETATM    1  N3  UNL     1      50.993  40.238  70.226  1.00  0.00    -0.248 N 
ATOM      2  H3  UNL     1      50.608  39.431  70.716  1.00  0.00     0.192 HD
HETATM    3  C3  UNL     1      50.956  41.479  70.869  1.00  0.00     0.341 C 
HETATM    4  O3  UNL     1      51.418  42.502  70.341  1.00  0.00    -0.245 OA
HETATM    5  N4  UNL     1      50.376  41.573  72.155  1.00  0.00    -0.284 N 
ATOM      6  H4  UNL     1      50.746  40.998  72.912  1.00  0.00     0.172 HD
HETATM    7  C4  UNL     1      49.385  42.374  72.394  1.00  0.00     0.204 C 
HETATM    8  N5  UNL     1      48.860  42.412  73.697  1.00  0.00    -0.066 NA
HETATM    9  N6  UNL     1      48.879  43.180  71.348  1.00  0.00    -0.066 NA
ENDROOT
BRANCH   1  10
HETATM   10  N2  UNL     1      51.531  40.042  68.942  1.00  0.00    -0.258 N 
HETATM   11  C2  UNL     1      52.891  39.677  68.771  1.00  0.00     0.325 C 
HETATM   12  O2  UNL     1      53.595  39.534  69.790  1.00  0.00    -0.261 OA
ATOM     13  H2  UNL     1      50.937  40.165  68.122  1.00  0.00     0.190 HD
BRANCH  11  14
HETATM   14  C1  UNL     1      53.420  39.482  67.442  1.00  0.00     0.324 C 
HETATM   15  N1  UNL     1      52.540  39.139  66.344  1.00  0.00    -0.053 NA
HETATM   16  O1  UNL     1      54.638  39.592  67.159  1.00  0.00    -0.266 OA
ENDBRANCH  11  14
ENDBRANCH   1  10
TORSDOF 2
ENDMDL
MODEL 3
REMARK VINA RESULT: -5.495288164      1.716      1.898
REMARK  2 active torsions:
REMARK  status: ('A' for Active; 'I' for Inactive)
REMARK    1  A    between atoms: C1_2  and  C2_4 
REMARK       I    between atoms: C2_4  and  N2_6 
REMARK    2  A    between atoms: N2_6  and  N3_8 
REMARK       I    between atoms: N3_8  and  C3_10 
REMARK       I    between atoms: C3_10  and  N4_12 
ROOT
HETATM    1  N3  UNL     1      51.072  40.475  69.581  1.00  0.00    -0.248 N 
ATOM      2  H3  UNL     1      50.539  40.216  68.752  1.00  0.00     0.192 HD
HETATM    3  C3  UNL     1      52.467  40.494  69.491  1.00  0.00     0.341 C 
HETATM    4  O3  UNL     1      53.181  40.813  70.454  1.00  0.00    -0.245 OA
HETATM    5  N4  UNL     1      53.084  40.138  68.269  1.00  0.00    -0.284 N 
ATOM      6  H4  UNL     1      52.849  40.656  67.423  1.00  0.00     0.172 HD
HETATM    7  C4  UNL     1      53.941  39.168  68.201  1.00  0.00     0.204 C 
HETATM    8  N5  UNL     1      54.512  38.872  66.951  1.00  0.00    -0.066 NA
HETATM    9  N6  UNL     1      54.275  38.456  69.376  1.00  0.00    -0.066 NA
ENDROOT
BRANCH   1  10
HETATM   10  N2  UNL     1      50.364  40.795  70.754  1.00  0.00    -0.258 N 
HETATM   11  C2  UNL     1      49.947  42.126  71.012  1.00  0.00     0.325 C 
HETATM   12  O2  UNL     1      50.225  43.004  70.172  1.00  0.00    -0.261 OA
ATOM     13  H2  UNL     1      50.148  40.061  71.428  1.00  0.00     0.190 HD
BRANCH  11  14
HETATM   14  C1  UNL     1      49.221  42.428  72.223  1.00  0.00     0.324 C 
HETATM   15  N1  UNL     1      49.245  41.510  73.343  1.00  0.00    -0.053 NA
HETATM   16  O1  UNL     1      48.543  43.473  72.380  1.00  0.00    -0.266 OA
ENDBRANCH  11  14
ENDBRANCH   1  10
TORSDOF 2
ENDMDL
MODEL 4
REMARK VINA RESULT: -5.439565393      1.831      2.013
REMARK  2 active torsions:
REMARK  status: ('A' for Active; 'I' for Inactive)
REMARK    1  A    between atoms: C1_2  and  C2_4 
REMARK       I    between atoms: C2_4  and  N2_6 
REMARK    2  A    between atoms: N2_6  and  N3_8 
REMARK       I    between atoms: N3_8  and  C3_10 
REMARK       I    between atoms: C3_10  and  N4_12 
ROOT
HETATM    1  N3  UNL     1      51.580  42.030  69.658  1.00  0.00    -0.248 N 
ATOM      2  H3  UNL     1      52.001  42.810  69.154  1.00  0.00     0.192 HD
HETATM    3  C3  UNL     1      52.181  40.773  69.552  1.00  0.00     0.341 C 
HETATM    4  O3  UNL     1      51.733  39.781  70.147  1.00  0.00    -0.245 OA
HETATM    5  N4  UNL     1      53.331  40.625  68.743  1.00  0.00    -0.284 N 
ATOM      6  H4  UNL     1      54.155  41.194  68.938  1.00  0.00     0.172 HD
HETATM    7  C4  UNL     1      53.362  39.781  67.759  1.00  0.00     0.204 C 
HETATM    8  N5  UNL     1      54.542  39.691  66.998  1.00  0.00    -0.066 NA
HETATM    9  N6  UNL     1      52.225  38.985  67.493  1.00  0.00    -0.066 NA
ENDROOT
BRANCH   1  10
HETATM   10  N2  UNL     1      50.425  42.279  70.422  1.00  0.00    -0.258 N 
HETATM   11  C2  UNL     1      50.522  42.689  71.776  1.00  0.00     0.325 C 
HETATM   12  O2  UNL     1      51.659  42.823  72.271  1.00  0.00    -0.261 OA
ATOM     13  H2  UNL     1      49.505  42.162  69.997  1.00  0.00     0.190 HD
BRANCH  11  14
HETATM   14  C1  UNL     1      49.322  42.938  72.539  1.00  0.00     0.324 C 
HETATM   15  N1  UNL     1      49.048  42.184  73.744  1.00  0.00    -0.053 NA
HETATM   16  O1  UNL     1      48.464  43.796  72.217  1.00  0.00    -0.266 OA
ENDBRANCH  11  14
ENDBRANCH   1  10
TORSDOF 2
ENDMDL
MODEL 5
REMARK VINA RESULT: -5.424622169      1.966      2.381
REMARK  2 active torsions:
REMARK  status: ('A' for Active; 'I' for Inactive)
REMARK    1  A    between atoms: C1_2  and  C2_4 
REMARK       I    between atoms: C2_4  and  N2_6 
REMARK    2  A    between atoms: N2_6  and  N3_8 
REMARK       I    between atoms: N3_8  and  C3_10 
REMARK       I    between atoms: C3_10  and  N4_12 
ROOT
HETATM    1  N3  UNL     1      52.465  39.802  70.052  1.00  0.00    -0.248 N 
ATOM      2  H3  UNL     1      52.121  39.262  70.845  1.00  0.00     0.192 HD
HETATM    3  C3  UNL     1      53.557  39.304  69.336  1.00  0.00     0.341 C 
HETATM    4  O3  UNL     1      54.022  39.899  68.352  1.00  0.00    -0.245 OA
HETATM    5  N4  UNL     1      54.153  38.088  69.745  1.00  0.00    -0.284 N 
ATOM      6  H4  UNL     1      53.581  37.245  69.796  1.00  0.00     0.172 HD
HETATM    7  C4  UNL     1      55.410  38.021  70.057  1.00  0.00     0.204 C 
HETATM    8  N5  UNL     1      55.930  36.777  70.456  1.00  0.00    -0.066 NA
HETATM    9  N6  UNL     1      56.206  39.187  69.977  1.00  0.00    -0.066 NA
ENDROOT
BRANCH   1  10
HETATM   10  N2  UNL     1      51.814  41.008  69.737  1.00  0.00    -0.258 N 
HETATM   11  C2  UNL     1      50.903  41.603  70.648  1.00  0.00     0.325 C 
HETATM   12  O2  UNL     1      50.695  41.026  71.734  1.00  0.00    -0.261 OA
ATOM     13  H2  UNL     1      51.998  41.462  68.843  1.00  0.00     0.190 HD
BRANCH  11  14
HETATM   14  C1  UNL     1      50.247  42.841  70.302  1.00  0.00     0.324 C 
HETATM   15  N1  UNL     1      49.073  43.279  71.028  1.00  0.00    -0.053 NA
HETATM   16  O1  UNL     1      50.638  43.596  69.379  1.00  0.00    -0.266 OA
ENDBRANCH  11  14
ENDBRANCH   1  10
TORSDOF 2
ENDMDL
