MODEL 1
REMARK VINA RESULT: -5.909737988      0.000      0.000
REMARK  0 active torsions:
REMARK  status: ('A' for Active; 'I' for Inactive)
REMARK       I    between atoms: N3_4  and  C2_6 
REMARK       I    between atoms: C2_6  and  N4_8 
REMARK       I    between atoms: C3_10  and  N6_12 
REMARK       I    between atoms: N6_12  and  C4_14 
ROOT
HETATM    1  N1  UNL     1      54.864  41.186  69.011  1.00  0.00    -0.066 NA
HETATM    2  C1  UNL     1      54.584  40.172  69.945  1.00  0.00     0.204 C 
HETATM    3  N2  UNL     1      55.581  39.681  70.815  1.00  0.00    -0.066 NA
HETATM    4  N3  UNL     1      53.401  39.685  70.006  1.00  0.00    -0.285 N 
ATOM      5  H3  UNL     1      53.219  38.951  70.690  1.00  0.00     0.172 HD
HETATM    6  C2  UNL     1      52.332  40.108  69.178  1.00  0.00     0.328 C 
HETATM    7  O1  UNL     1      52.116  39.521  68.089  1.00  0.00    -0.247 OA
HETATM    8  N4  UNL     1      51.474  41.184  69.523  1.00  0.00    -0.282 N 
ATOM      9  H4  UNL     1      51.357  41.937  68.845  1.00  0.00     0.173 HD
HETATM   10  C3  UNL     1      50.840  41.272  70.625  1.00  0.00     0.201 C 
HETATM   11  N5  UNL     1      50.944  40.283  71.612  1.00  0.00    -0.063 NA
HETATM   12  N6  UNL     1      50.007  42.431  70.827  1.00  0.00    -0.275 N 
ATOM     13  H6  UNL     1      49.939  43.146  70.103  1.00  0.00     0.174 HD
HETATM   14  C4  UNL     1      49.283  42.572  72.033  1.00  0.00     0.290 C 
HETATM   15  O2  UNL     1      49.337  41.709  72.964  1.00  0.00    -0.629 OA
HETATM   16  O3  UNL     1      48.481  43.676  72.243  1.00  0.00    -0.629 OA
ENDROOT
TORSDOF 0
ENDMDL
MODEL 2
REMARK VINA RESULT: -5.829251406      1.830      2.491
REMARK  0 active torsions:
REMARK  status: ('A' for Active; 'I' for Inactive)
REMARK       I    between atoms: N3_4  and  C2_6 
REMARK       I    between atoms: C2_6  and  N4_8 
REMARK       I    between atoms: C3_10  and  N6_12 
REMARK       I    between atoms: N6_12  and  C4_14 
ROOT
HETATM    1  N1  UNL     1      53.647  38.790  69.327  1.00  0.00    -0.066 NA
HETATM    2  C1  UNL     1      52.898  39.575  68.433  1.00  0.00     0.204 C 
HETATM    3  N2  UNL     1      52.343  39.022  67.260  1.00  0.00    -0.066 NA
HETATM    4  N3  UNL     1      52.715  40.816  68.690  1.00  0.00    -0.285 N 
ATOM      5  H3  UNL     1      52.169  41.368  68.029  1.00  0.00     0.172 HD
HETATM    6  C2  UNL     1      53.230  41.467  69.839  1.00  0.00     0.328 C 
HETATM    7  O1  UNL     1      54.354  42.024  69.789  1.00  0.00    -0.247 OA
HETATM    8  N4  UNL     1      52.525  41.521  71.069  1.00  0.00    -0.282 N 
ATOM      9  H4  UNL     1      53.007  41.201  71.909  1.00  0.00     0.173 HD
HETATM   10  C3  UNL     1      51.330  41.944  71.193  1.00  0.00     0.201 C 
HETATM   11  N5  UNL     1      50.596  42.403  70.091  1.00  0.00    -0.063 NA
HETATM   12  N6  UNL     1      50.751  41.936  72.514  1.00  0.00    -0.275 N 
ATOM     13  H6  UNL     1      51.294  41.599  73.309  1.00  0.00     0.174 HD
HETATM   14  C4  UNL     1      49.429  42.397  72.702  1.00  0.00     0.290 C 
HETATM   15  O2  UNL     1      48.714  42.824  71.742  1.00  0.00    -0.629 OA
HETATM   16  O3  UNL     1      48.859  42.396  73.959  1.00  0.00    -0.629 OA
ENDROOT
TORSDOF 0
ENDMDL
MODEL 3
REMARK VINA RESULT: -5.633320283      2.154      3.004
REMARK  0 active torsions:
REMARK  status: ('A' for Active; 'I' for Inactive)
REMARK       I    between atoms: N3_4  and  C2_6 
REMARK       I    between atoms: C2_6  and  N4_8 
REMARK       I    between atoms: C3_10  and  N6_12 
REMARK       I    between atoms: N6_12  and  C4_14 
ROOT
HETATM    1  N1  UNL     1      53.249  37.792  67.514  1.00  0.00    -0.066 NA
HETATM    2  C1  UNL     1      52.802  39.014  66.978  1.00  0.00     0.204 C 
HETATM    3  N2  UNL     1      52.179  39.075  65.714  1.00  0.00    -0.066 NA
HETATM    4  N3  UNL     1      52.964  40.090  67.652  1.00  0.00    -0.285 N 
ATOM      5  H3  UNL     1      52.634  40.965  67.246  1.00  0.00     0.172 HD
HETATM    6  C2  UNL     1      53.578  40.135  68.929  1.00  0.00     0.328 C 
HETATM    7  O1  UNL     1      54.815  40.332  69.019  1.00  0.00    -0.247 OA
HETATM    8  N4  UNL     1      52.851  39.966  70.135  1.00  0.00    -0.282 N 
ATOM      9  H4  UNL     1      53.176  39.255  70.791  1.00  0.00     0.173 HD
HETATM   10  C3  UNL     1      51.819  40.642  70.452  1.00  0.00     0.201 C 
HETATM   11  N5  UNL     1      51.306  41.637  69.610  1.00  0.00    -0.063 NA
HETATM   12  N6  UNL     1      51.190  40.350  71.717  1.00  0.00    -0.275 N 
ATOM     13  H6  UNL     1      51.571  39.622  72.322  1.00  0.00     0.174 HD
HETATM   14  C4  UNL     1      50.043  41.074  72.113  1.00  0.00     0.290 C 
HETATM   15  O2  UNL     1      49.532  41.987  71.391  1.00  0.00    -0.629 OA
HETATM   16  O3  UNL     1      49.428  40.807  73.319  1.00  0.00    -0.629 OA
ENDROOT
TORSDOF 0
ENDMDL
MODEL 4
REMARK VINA RESULT: -5.550506703      1.757      5.521
REMARK  0 active torsions:
REMARK  status: ('A' for Active; 'I' for Inactive)
REMARK       I    between atoms: N3_4  and  C2_6 
REMARK       I    between atoms: C2_6  and  N4_8 
REMARK       I    between atoms: C3_10  and  N6_12 
REMARK       I    between atoms: N6_12  and  C4_14 
ROOT
HETATM    1  N1  UNL     1      50.498  43.235  72.436  1.00  0.00    -0.066 NA
HETATM    2  C1  UNL     1      49.792  42.797  71.301  1.00  0.00     0.204 C 
HETATM    3  N2  UNL     1      48.957  43.672  70.575  1.00  0.00    -0.066 NA
HETATM    4  N3  UNL     1      49.909  41.580  70.921  1.00  0.00    -0.285 N 
ATOM      5  H3  UNL     1      49.389  41.282  70.096  1.00  0.00     0.172 HD
HETATM    6  C2  UNL     1      50.721  40.623  71.581  1.00  0.00     0.328 C 
HETATM    7  O1  UNL     1      50.227  39.904  72.484  1.00  0.00    -0.247 OA
HETATM    8  N4  UNL     1      52.091  40.433  71.267  1.00  0.00    -0.282 N 
ATOM      9  H4  UNL     1      52.766  40.482  72.030  1.00  0.00     0.173 HD
HETATM   10  C3  UNL     1      52.534  40.206  70.094  1.00  0.00     0.201 C 
HETATM   11  N5  UNL     1      51.677  40.123  68.989  1.00  0.00    -0.063 NA
HETATM   12  N6  UNL     1      53.957  40.036  69.938  1.00  0.00    -0.275 N 
ATOM     13  H6  UNL     1      54.573  40.099  70.749  1.00  0.00     0.174 HD
HETATM   14  C4  UNL     1      54.496  39.781  68.656  1.00  0.00     0.290 C 
HETATM   15  O2  UNL     1      53.769  39.695  67.617  1.00  0.00    -0.629 OA
HETATM   16  O3  UNL     1      55.856  39.615  68.489  1.00  0.00    -0.629 OA
ENDROOT
TORSDOF 0
ENDMDL
MODEL 5
REMARK VINA RESULT: -5.531164302      3.522      5.546
REMARK  0 active torsions:
REMARK  status: ('A' for Active; 'I' for Inactive)
REMARK       I    between atoms: N3_4  and  C2_6 
REMARK       I    between atoms: C2_6  and  N4_8 
REMARK       I    between atoms: C3_10  and  N6_12 
REMARK       I    between atoms: N6_12  and  C4_14 
ROOT
HETATM    1  N1  UNL     1      49.679  41.864  73.616  1.00  0.00    -0.066 NA
HETATM    2  C1  UNL     1      49.527  42.576  72.412  1.00  0.00     0.204 C 
HETATM    3  N2  UNL     1      48.567  43.601  72.283  1.00  0.00    -0.066 NA
HETATM    4  N3  UNL     1      50.276  42.286  71.415  1.00  0.00    -0.285 N 
ATOM      5  H3  UNL     1      50.151  42.813  70.551  1.00  0.00     0.172 HD
HETATM    6  C2  UNL     1      51.269  41.275  71.442  1.00  0.00     0.328 C 
HETATM    7  O1  UNL     1      50.978  40.106  71.088  1.00  0.00    -0.247 OA
HETATM    8  N4  UNL     1      52.603  41.521  71.858  1.00  0.00    -0.282 N 
ATOM      9  H4  UNL     1      52.990  40.928  72.592  1.00  0.00     0.173 HD
HETATM   10  C3  UNL     1      53.348  42.435  71.376  1.00  0.00     0.201 C 
HETATM   11  N5  UNL     1      52.895  43.294  70.366  1.00  0.00    -0.063 NA
HETATM   12  N6  UNL     1      54.683  42.559  71.906  1.00  0.00    -0.275 N 
ATOM     13  H6  UNL     1      55.002  41.929  72.643  1.00  0.00     0.174 HD
HETATM   14  C4  UNL     1      55.547  43.557  71.403  1.00  0.00     0.290 C 
HETATM   15  O2  UNL     1      55.193  44.365  70.488  1.00  0.00    -0.629 OA
HETATM   16  O3  UNL     1      56.828  43.690  71.899  1.00  0.00    -0.629 OA
ENDROOT
TORSDOF 0
ENDMDL
