MODEL 1
REMARK VINA RESULT: -6.861296006      0.000      0.000
REMARK  5 active torsions:
REMARK  status: ('A' for Active; 'I' for Inactive)
REMARK    1  A    between atoms: N1_2  and  N2_3 
REMARK       I    between atoms: N1_2  and  C2_7 
REMARK    2  A    between atoms: N2_3  and  O1_5 
REMARK       I    between atoms: C2_7  and  N3_9 
REMARK    3  A    between atoms: N3_9  and  C3_11 
REMARK    4  A    between atoms: C6_16  and  O5_17 
REMARK    5  A    between atoms: O5_17  and  C7_18 
ROOT
HETATM    1  C3  UNL     1      33.171  43.913  20.767  1.00  0.00     0.123 C 
HETATM    2  C4  UNL     1      32.914  44.390  19.347  1.00  0.00     0.196 C 
HETATM    3  O3  UNL     1      32.326  43.334  18.673  1.00  0.00    -0.358 OA
HETATM    4  C5  UNL     1      31.615  42.601  19.593  1.00  0.00     0.273 C 
HETATM    5  O4  UNL     1      30.572  43.330  20.150  1.00  0.00    -0.330 OA
HETATM    6  C6  UNL     1      30.980  42.978  21.443  1.00  0.00     0.284 C 
HETATM    7  C8  UNL     1      32.329  42.675  20.902  1.00  0.00     0.122 C 
ENDROOT
BRANCH   1   8
HETATM    8  N3  UNL     1      34.552  43.722  21.025  1.00  0.00    -0.334 N 
HETATM    9  C2  UNL     1      35.332  44.796  21.529  1.00  0.00     0.338 C 
HETATM   10  N1  UNL     1      36.715  44.672  21.808  1.00  0.00    -0.228 N 
HETATM   11  O2  UNL     1      34.814  45.941  21.757  1.00  0.00    -0.245 OA
HETATM   12  C1  UNL     1      37.477  45.787  22.320  1.00  0.00     0.185 C 
ATOM     13  H3  UNL     1      34.983  42.815  20.849  1.00  0.00     0.164 HD
BRANCH  10  14
HETATM   14  N2  UNL     1      37.312  43.418  21.565  1.00  0.00    -0.204 N 
ATOM     15  H2  UNL     1      37.951  43.315  20.778  1.00  0.00     0.216 HD
BRANCH  14  16
HETATM   16  O1  UNL     1      37.077  42.439  22.286  1.00  0.00    -0.274 OA
ATOM     17  H1  UNL     1      37.325  41.560  22.027  1.00  0.00     0.246 HD
ENDBRANCH  14  16
ENDBRANCH  10  14
ENDBRANCH   1   8
BRANCH   6  18
HETATM   18  O5  UNL     1      30.213  41.890  21.894  1.00  0.00    -0.274 OA
BRANCH  18  19
HETATM   19  C7  UNL     1      29.771  41.713  23.183  1.00  0.00     0.375 C 
HETATM   20  N4  UNL     1      29.104  40.553  23.648  1.00  0.00    -0.032 NA
HETATM   21  O6  UNL     1      29.981  42.661  24.003  1.00  0.00    -0.242 OA
ENDBRANCH  18  19
ENDBRANCH   6  18
TORSDOF 5
ENDMDL
MODEL 2
REMARK VINA RESULT: -6.826706151      1.190      1.277
REMARK  5 active torsions:
REMARK  status: ('A' for Active; 'I' for Inactive)
REMARK    1  A    between atoms: N1_2  and  N2_3 
REMARK       I    between atoms: N1_2  and  C2_7 
REMARK    2  A    between atoms: N2_3  and  O1_5 
REMARK       I    between atoms: C2_7  and  N3_9 
REMARK    3  A    between atoms: N3_9  and  C3_11 
REMARK    4  A    between atoms: C6_16  and  O5_17 
REMARK    5  A    between atoms: O5_17  and  C7_18 
ROOT
HETATM    1  C3  UNL     1      32.524  44.257  20.422  1.00  0.00     0.123 C 
HETATM    2  C4  UNL     1      32.416  44.268  18.907  1.00  0.00     0.196 C 
HETATM    3  O3  UNL     1      32.289  42.949  18.508  1.00  0.00    -0.358 OA
HETATM    4  C5  UNL     1      31.654  42.270  19.520  1.00  0.00     0.273 C 
HETATM    5  O4  UNL     1      30.362  42.733  19.731  1.00  0.00    -0.330 OA
HETATM    6  C6  UNL     1      30.601  42.854  21.106  1.00  0.00     0.284 C 
HETATM    7  C8  UNL     1      32.058  42.884  20.819  1.00  0.00     0.122 C 
ENDROOT
BRANCH   1   8
HETATM    8  N3  UNL     1      33.827  44.591  20.868  1.00  0.00    -0.334 N 
HETATM    9  C2  UNL     1      34.059  45.843  21.498  1.00  0.00     0.338 C 
HETATM   10  N1  UNL     1      35.337  46.238  21.965  1.00  0.00    -0.228 N 
HETATM   11  O2  UNL     1      33.113  46.682  21.673  1.00  0.00    -0.245 OA
HETATM   12  C1  UNL     1      35.536  47.520  22.601  1.00  0.00     0.185 C 
ATOM     13  H3  UNL     1      34.596  43.934  20.737  1.00  0.00     0.164 HD
BRANCH  10  14
HETATM   14  N2  UNL     1      36.400  45.330  21.784  1.00  0.00    -0.204 N 
ATOM     15  H2  UNL     1      37.185  45.594  21.189  1.00  0.00     0.216 HD
BRANCH  14  16
HETATM   16  O1  UNL     1      36.402  44.219  22.330  1.00  0.00    -0.274 OA
ATOM     17  H1  UNL     1      36.307  44.129  23.271  1.00  0.00     0.246 HD
ENDBRANCH  14  16
ENDBRANCH  10  14
ENDBRANCH   1   8
BRANCH   6  18
HETATM   18  O5  UNL     1      30.103  41.719  21.767  1.00  0.00    -0.274 OA
BRANCH  18  19
HETATM   19  C7  UNL     1      29.766  41.662  23.099  1.00  0.00     0.375 C 
HETATM   20  N4  UNL     1      29.092  40.575  23.708  1.00  0.00    -0.032 NA
HETATM   21  O6  UNL     1      30.085  42.659  23.821  1.00  0.00    -0.242 OA
ENDBRANCH  18  19
ENDBRANCH   6  18
TORSDOF 5
ENDMDL
MODEL 3
REMARK VINA RESULT: -6.754137134      2.367      3.872
REMARK  5 active torsions:
REMARK  status: ('A' for Active; 'I' for Inactive)
REMARK    1  A    between atoms: N1_2  and  N2_3 
REMARK       I    between atoms: N1_2  and  C2_7 
REMARK    2  A    between atoms: N2_3  and  O1_5 
REMARK       I    between atoms: C2_7  and  N3_9 
REMARK    3  A    between atoms: N3_9  and  C3_11 
REMARK    4  A    between atoms: C6_16  and  O5_17 
REMARK    5  A    between atoms: O5_17  and  C7_18 
ROOT
HETATM    1  C3  UNL     1      32.157  42.607  21.559  1.00  0.00     0.123 C 
HETATM    2  C4  UNL     1      31.097  43.068  22.545  1.00  0.00     0.196 C 
HETATM    3  O3  UNL     1      30.160  43.781  21.817  1.00  0.00    -0.358 OA
HETATM    4  C5  UNL     1      30.140  43.261  20.545  1.00  0.00     0.273 C 
HETATM    5  O4  UNL     1      29.714  41.939  20.528  1.00  0.00    -0.330 OA
HETATM    6  C6  UNL     1      30.820  41.564  19.754  1.00  0.00     0.284 C 
HETATM    7  C8  UNL     1      31.518  42.792  20.210  1.00  0.00     0.122 C 
ENDROOT
BRANCH   1   8
HETATM    8  N3  UNL     1      33.384  43.295  21.732  1.00  0.00    -0.334 N 
HETATM    9  C2  UNL     1      34.565  42.567  22.033  1.00  0.00     0.338 C 
HETATM   10  N1  UNL     1      35.822  43.193  22.219  1.00  0.00    -0.228 N 
HETATM   11  O2  UNL     1      34.549  41.296  22.152  1.00  0.00    -0.245 OA
HETATM   12  C1  UNL     1      37.005  42.420  22.524  1.00  0.00     0.185 C 
ATOM     13  H3  UNL     1      33.417  44.310  21.641  1.00  0.00     0.164 HD
BRANCH  10  14
HETATM   14  N2  UNL     1      35.869  44.597  22.093  1.00  0.00    -0.204 N 
ATOM     15  H2  UNL     1      36.320  45.148  22.823  1.00  0.00     0.216 HD
BRANCH  14  16
HETATM   16  O1  UNL     1      35.375  45.175  21.116  1.00  0.00    -0.274 OA
ATOM     17  H1  UNL     1      35.876  45.325  20.323  1.00  0.00     0.246 HD
ENDBRANCH  14  16
ENDBRANCH  10  14
ENDBRANCH   1   8
BRANCH   6  18
HETATM   18  O5  UNL     1      30.444  41.508  18.400  1.00  0.00    -0.274 OA
BRANCH  18  19
HETATM   19  C7  UNL     1      31.155  40.879  17.407  1.00  0.00     0.375 C 
HETATM   20  N4  UNL     1      32.314  41.413  16.791  1.00  0.00    -0.032 NA
HETATM   21  O6  UNL     1      30.736  39.741  17.025  1.00  0.00    -0.242 OA
ENDBRANCH  18  19
ENDBRANCH   6  18
TORSDOF 5
ENDMDL
MODEL 4
REMARK VINA RESULT: -6.738774818      1.938      6.022
REMARK  5 active torsions:
REMARK  status: ('A' for Active; 'I' for Inactive)
REMARK    1  A    between atoms: N1_2  and  N2_3 
REMARK       I    between atoms: N1_2  and  C2_7 
REMARK    2  A    between atoms: N2_3  and  O1_5 
REMARK       I    between atoms: C2_7  and  N3_9 
REMARK    3  A    between atoms: N3_9  and  C3_11 
REMARK    4  A    between atoms: C6_16  and  O5_17 
REMARK    5  A    between atoms: O5_17  and  C7_18 
ROOT
HETATM    1  C3  UNL     1      32.692  44.147  21.387  1.00  0.00     0.123 C 
HETATM    2  C4  UNL     1      32.458  45.588  20.966  1.00  0.00     0.196 C 
HETATM    3  O3  UNL     1      33.258  46.374  21.776  1.00  0.00    -0.358 OA
HETATM    4  C5  UNL     1      34.364  45.630  22.112  1.00  0.00     0.273 C 
HETATM    5  O4  UNL     1      35.137  45.311  21.003  1.00  0.00    -0.330 OA
HETATM    6  C6  UNL     1      35.162  43.960  21.375  1.00  0.00     0.284 C 
HETATM    7  C8  UNL     1      33.953  44.198  22.205  1.00  0.00     0.122 C 
ENDROOT
BRANCH   1   8
HETATM    8  N3  UNL     1      31.572  43.598  22.060  1.00  0.00    -0.334 N 
HETATM    9  C2  UNL     1      30.713  42.694  21.380  1.00  0.00     0.338 C 
HETATM   10  N1  UNL     1      29.578  42.110  21.994  1.00  0.00    -0.228 N 
HETATM   11  O2  UNL     1      30.927  42.361  20.166  1.00  0.00    -0.245 OA
HETATM   12  C1  UNL     1      28.726  41.193  21.271  1.00  0.00     0.185 C 
ATOM     13  H3  UNL     1      31.383  43.851  23.030  1.00  0.00     0.164 HD
BRANCH  10  14
HETATM   14  N2  UNL     1      29.318  42.460  23.335  1.00  0.00    -0.204 N 
ATOM     15  H2  UNL     1      28.485  43.007  23.554  1.00  0.00     0.216 HD
BRANCH  14  16
HETATM   16  O1  UNL     1      30.076  42.118  24.251  1.00  0.00    -0.274 OA
ATOM     17  H1  UNL     1      30.605  42.753  24.720  1.00  0.00     0.246 HD
ENDBRANCH  14  16
ENDBRANCH  10  14
ENDBRANCH   1   8
BRANCH   6  18
HETATM   18  O5  UNL     1      36.360  43.687  22.057  1.00  0.00    -0.274 OA
BRANCH  18  19
HETATM   19  C7  UNL     1      36.740  42.452  22.525  1.00  0.00     0.375 C 
HETATM   20  N4  UNL     1      38.084  42.060  22.749  1.00  0.00    -0.032 NA
HETATM   21  O6  UNL     1      35.816  41.614  22.770  1.00  0.00    -0.242 OA
ENDBRANCH  18  19
ENDBRANCH   6  18
TORSDOF 5
ENDMDL
MODEL 5
REMARK VINA RESULT: -6.568592809      2.410      4.065
REMARK  5 active torsions:
REMARK  status: ('A' for Active; 'I' for Inactive)
REMARK    1  A    between atoms: N1_2  and  N2_3 
REMARK       I    between atoms: N1_2  and  C2_7 
REMARK    2  A    between atoms: N2_3  and  O1_5 
REMARK       I    between atoms: C2_7  and  N3_9 
REMARK    3  A    between atoms: N3_9  and  C3_11 
REMARK    4  A    between atoms: C6_16  and  O5_17 
REMARK    5  A    between atoms: O5_17  and  C7_18 
ROOT
HETATM    1  C3  UNL     1      31.873  43.130  21.402  1.00  0.00     0.123 C 
HETATM    2  C4  UNL     1      30.724  42.978  22.384  1.00  0.00     0.196 C 
HETATM    3  O3  UNL     1      29.565  43.280  21.690  1.00  0.00    -0.358 OA
HETATM    4  C5  UNL     1      29.769  42.935  20.375  1.00  0.00     0.273 C 
HETATM    5  O4  UNL     1      29.966  41.569  20.217  1.00  0.00    -0.330 OA
HETATM    6  C6  UNL     1      31.120  41.797  19.455  1.00  0.00     0.284 C 
HETATM    7  C8  UNL     1      31.210  43.154  20.053  1.00  0.00     0.122 C 
ENDROOT
BRANCH   1   8
HETATM    8  N3  UNL     1      32.674  44.264  21.688  1.00  0.00    -0.334 N 
HETATM    9  C2  UNL     1      34.089  44.149  21.681  1.00  0.00     0.338 C 
HETATM   10  N1  UNL     1      34.947  45.242  21.959  1.00  0.00    -0.228 N 
HETATM   11  O2  UNL     1      34.663  43.038  21.422  1.00  0.00    -0.245 OA
HETATM   12  C1  UNL     1      36.383  45.088  21.942  1.00  0.00     0.185 C 
ATOM     13  H3  UNL     1      32.235  45.160  21.898  1.00  0.00     0.164 HD
BRANCH  10  14
HETATM   14  N2  UNL     1      34.339  46.481  22.249  1.00  0.00    -0.204 N 
ATOM     15  H2  UNL     1      34.623  47.309  21.726  1.00  0.00     0.216 HD
BRANCH  14  16
HETATM   16  O1  UNL     1      33.470  46.586  23.124  1.00  0.00    -0.274 OA
ATOM     17  H1  UNL     1      32.591  46.251  22.992  1.00  0.00     0.246 HD
ENDBRANCH  14  16
ENDBRANCH  10  14
ENDBRANCH   1   8
BRANCH   6  18
HETATM   18  O5  UNL     1      30.800  41.721  18.089  1.00  0.00    -0.274 OA
BRANCH  18  19
HETATM   19  C7  UNL     1      31.411  40.894  17.178  1.00  0.00     0.375 C 
HETATM   20  N4  UNL     1      32.605  41.213  16.484  1.00  0.00    -0.032 NA
HETATM   21  O6  UNL     1      30.860  39.771  16.951  1.00  0.00    -0.242 OA
ENDBRANCH  18  19
ENDBRANCH   6  18
TORSDOF 5
ENDMDL
