MODEL 1
REMARK VINA RESULT: -6.528865609      0.000      0.000
REMARK  3 active torsions:
REMARK  status: ('A' for Active; 'I' for Inactive)
REMARK    1  A    between atoms: O1_2  and  C2_3 
REMARK    2  A    between atoms: C3_5  and  O3_6 
REMARK    3  A    between atoms: O3_6  and  S1_7 
ROOT
HETATM    1  C2  UNL     1      35.055  43.566  21.095  1.00  0.00     0.293 C 
HETATM    2  O2  UNL     1      33.887  42.929  20.708  1.00  0.00    -0.326 OA
HETATM    3  C3  UNL     1      32.873  43.768  21.220  1.00  0.00     0.309 C 
HETATM    4  C4  UNL     1      33.337  45.112  20.669  1.00  0.00     0.197 C 
HETATM    5  N1  UNL     1      32.752  46.224  21.354  1.00  0.00    -0.086 NA
HETATM    6  O7  UNL     1      33.636  47.271  21.263  1.00  0.00    -0.260 OA
HETATM    7  C5  UNL     1      34.715  47.014  22.105  1.00  0.00     0.365 C 
HETATM    8  O8  UNL     1      34.936  45.653  22.290  1.00  0.00    -0.353 OA
HETATM    9  C6  UNL     1      34.808  45.047  21.032  1.00  0.00     0.205 C 
ENDROOT
BRANCH   3  10
HETATM   10  O3  UNL     1      31.624  43.414  20.802  1.00  0.00    -0.222 OA
BRANCH  10  11
HETATM   11  S1  UNL     1      30.661  42.844  22.076  1.00  0.00     0.254 S 
HETATM   12  O4  UNL     1      30.807  43.713  23.287  1.00  0.00    -0.572 OA
HETATM   13  O5  UNL     1      31.078  41.428  22.380  1.00  0.00    -0.572 OA
HETATM   14  O6  UNL     1      29.078  42.807  21.512  1.00  0.00    -0.572 OA
ENDBRANCH  10  11
ENDBRANCH   3  10
BRANCH   1  15
HETATM   15  O1  UNL     1      35.376  43.123  22.366  1.00  0.00    -0.363 OA
HETATM   16  C1  UNL     1      36.702  42.693  22.344  1.00  0.00     0.204 C 
ENDBRANCH   1  15
TORSDOF 3
ENDMDL
MODEL 2
REMARK VINA RESULT: -6.509315125      2.735      4.413
REMARK  3 active torsions:
REMARK  status: ('A' for Active; 'I' for Inactive)
REMARK    1  A    between atoms: O1_2  and  C2_3 
REMARK    2  A    between atoms: C3_5  and  O3_6 
REMARK    3  A    between atoms: O3_6  and  S1_7 
ROOT
HETATM    1  C2  UNL     1      33.442  43.483  21.584  1.00  0.00     0.293 C 
HETATM    2  O2  UNL     1      33.510  44.402  22.618  1.00  0.00    -0.326 OA
HETATM    3  C3  UNL     1      33.758  45.623  21.954  1.00  0.00     0.309 C 
HETATM    4  C4  UNL     1      32.645  45.588  20.912  1.00  0.00     0.197 C 
HETATM    5  N1  UNL     1      32.880  46.484  19.820  1.00  0.00    -0.086 NA
HETATM    6  O7  UNL     1      32.250  45.959  18.718  1.00  0.00    -0.260 OA
HETATM    7  C5  UNL     1      32.973  44.854  18.279  1.00  0.00     0.365 C 
HETATM    8  O8  UNL     1      33.673  44.230  19.306  1.00  0.00    -0.353 OA
HETATM    9  C6  UNL     1      32.806  44.167  20.407  1.00  0.00     0.205 C 
ENDROOT
BRANCH   3  10
HETATM   10  O3  UNL     1      33.691  46.705  22.781  1.00  0.00    -0.222 OA
BRANCH  10  11
HETATM   11  S1  UNL     1      35.048  47.711  22.629  1.00  0.00     0.254 S 
HETATM   12  O4  UNL     1      36.280  46.907  22.343  1.00  0.00    -0.572 OA
HETATM   13  O5  UNL     1      35.201  48.486  23.911  1.00  0.00    -0.572 OA
HETATM   14  O6  UNL     1      34.709  48.805  21.399  1.00  0.00    -0.572 OA
ENDBRANCH  10  11
ENDBRANCH   3  10
BRANCH   1  15
HETATM   15  O1  UNL     1      34.728  43.043  21.325  1.00  0.00    -0.363 OA
HETATM   16  C1  UNL     1      35.063  42.107  22.303  1.00  0.00     0.204 C 
ENDBRANCH   1  15
TORSDOF 3
ENDMDL
MODEL 3
REMARK VINA RESULT: -6.447328876      2.746      4.412
REMARK  3 active torsions:
REMARK  status: ('A' for Active; 'I' for Inactive)
REMARK    1  A    between atoms: O1_2  and  C2_3 
REMARK    2  A    between atoms: C3_5  and  O3_6 
REMARK    3  A    between atoms: O3_6  and  S1_7 
ROOT
HETATM    1  C2  UNL     1      33.479  43.529  21.516  1.00  0.00     0.293 C 
HETATM    2  O2  UNL     1      33.528  44.426  22.571  1.00  0.00    -0.326 OA
HETATM    3  C3  UNL     1      33.771  45.664  21.935  1.00  0.00     0.309 C 
HETATM    4  C4  UNL     1      32.669  45.642  20.882  1.00  0.00     0.197 C 
HETATM    5  N1  UNL     1      32.906  46.563  19.813  1.00  0.00    -0.086 NA
HETATM    6  O7  UNL     1      32.291  46.057  18.694  1.00  0.00    -0.260 OA
HETATM    7  C5  UNL     1      33.029  44.969  18.237  1.00  0.00     0.365 C 
HETATM    8  O8  UNL     1      33.725  44.329  19.258  1.00  0.00    -0.353 OA
HETATM    9  C6  UNL     1      32.848  44.234  20.348  1.00  0.00     0.205 C 
ENDROOT
BRANCH   3  10
HETATM   10  O3  UNL     1      33.686  46.727  22.786  1.00  0.00    -0.222 OA
BRANCH  10  11
HETATM   11  S1  UNL     1      35.013  47.772  22.637  1.00  0.00     0.254 S 
HETATM   12  O4  UNL     1      34.808  48.741  21.513  1.00  0.00    -0.572 OA
HETATM   13  O5  UNL     1      36.244  46.935  22.403  1.00  0.00    -0.572 OA
HETATM   14  O6  UNL     1      35.190  48.549  24.117  1.00  0.00    -0.572 OA
ENDBRANCH  10  11
ENDBRANCH   3  10
BRANCH   1  15
HETATM   15  O1  UNL     1      34.772  43.107  21.260  1.00  0.00    -0.363 OA
HETATM   16  C1  UNL     1      35.136  42.217  22.269  1.00  0.00     0.204 C 
ENDBRANCH   1  15
TORSDOF 3
ENDMDL
MODEL 4
REMARK VINA RESULT: -6.431445871      2.663      4.540
REMARK  3 active torsions:
REMARK  status: ('A' for Active; 'I' for Inactive)
REMARK    1  A    between atoms: O1_2  and  C2_3 
REMARK    2  A    between atoms: C3_5  and  O3_6 
REMARK    3  A    between atoms: O3_6  and  S1_7 
ROOT
HETATM    1  C2  UNL     1      32.668  43.104  23.061  1.00  0.00     0.293 C 
HETATM    2  O2  UNL     1      32.905  44.218  22.273  1.00  0.00    -0.326 OA
HETATM    3  C3  UNL     1      32.085  43.998  21.144  1.00  0.00     0.309 C 
HETATM    4  C4  UNL     1      30.757  43.705  21.833  1.00  0.00     0.197 C 
HETATM    5  N1  UNL     1      29.825  43.037  20.977  1.00  0.00    -0.086 NA
HETATM    6  O7  UNL     1      29.000  42.286  21.779  1.00  0.00    -0.260 OA
HETATM    7  C5  UNL     1      29.718  41.190  22.249  1.00  0.00     0.365 C 
HETATM    8  O8  UNL     1      31.084  41.443  22.335  1.00  0.00    -0.353 OA
HETATM    9  C6  UNL     1      31.225  42.722  22.890  1.00  0.00     0.205 C 
ENDROOT
BRANCH   3  10
HETATM   10  O3  UNL     1      32.034  45.071  20.303  1.00  0.00    -0.222 OA
BRANCH  10  11
HETATM   11  S1  UNL     1      32.766  44.747  18.808  1.00  0.00     0.254 S 
HETATM   12  O4  UNL     1      32.214  43.494  18.202  1.00  0.00    -0.572 OA
HETATM   13  O5  UNL     1      34.251  44.625  19.031  1.00  0.00    -0.572 OA
HETATM   14  O6  UNL     1      32.498  46.091  17.834  1.00  0.00    -0.572 OA
ENDBRANCH  10  11
ENDBRANCH   3  10
BRANCH   1  15
HETATM   15  O1  UNL     1      33.543  42.110  22.662  1.00  0.00    -0.363 OA
HETATM   16  C1  UNL     1      34.760  42.714  22.349  1.00  0.00     0.204 C 
ENDBRANCH   1  15
TORSDOF 3
ENDMDL
MODEL 5
REMARK VINA RESULT: -6.410067400      1.938      2.884
REMARK  3 active torsions:
REMARK  status: ('A' for Active; 'I' for Inactive)
REMARK    1  A    between atoms: O1_2  and  C2_3 
REMARK    2  A    between atoms: C3_5  and  O3_6 
REMARK    3  A    between atoms: O3_6  and  S1_7 
ROOT
HETATM    1  C2  UNL     1      33.889  44.434  21.929  1.00  0.00     0.293 C 
HETATM    2  O2  UNL     1      33.373  43.355  22.628  1.00  0.00    -0.326 OA
HETATM    3  C3  UNL     1      32.245  42.982  21.865  1.00  0.00     0.309 C 
HETATM    4  C4  UNL     1      32.881  42.880  20.483  1.00  0.00     0.197 C 
HETATM    5  N1  UNL     1      31.918  42.925  19.425  1.00  0.00    -0.086 NA
HETATM    6  O7  UNL     1      32.545  43.454  18.323  1.00  0.00    -0.260 OA
HETATM    7  C5  UNL     1      32.731  44.817  18.532  1.00  0.00     0.365 C 
HETATM    8  O8  UNL     1      32.839  45.142  19.881  1.00  0.00    -0.353 OA
HETATM    9  C6  UNL     1      33.670  44.176  20.465  1.00  0.00     0.205 C 
ENDROOT
BRANCH   3  10
HETATM   10  O3  UNL     1      31.676  41.816  22.286  1.00  0.00    -0.222 OA
BRANCH  10  11
HETATM   11  S1  UNL     1      30.025  41.996  22.626  1.00  0.00     0.254 S 
HETATM   12  O4  UNL     1      29.809  42.327  24.071  1.00  0.00    -0.572 OA
HETATM   13  O5  UNL     1      29.329  40.710  22.263  1.00  0.00    -0.572 OA
HETATM   14  O6  UNL     1      29.446  43.202  21.608  1.00  0.00    -0.572 OA
ENDBRANCH  10  11
ENDBRANCH   3  10
BRANCH   1  15
HETATM   15  O1  UNL     1      33.248  45.574  22.380  1.00  0.00    -0.363 OA
HETATM   16  C1  UNL     1      34.213  46.567  22.546  1.00  0.00     0.204 C 
ENDBRANCH   1  15
TORSDOF 3
ENDMDL
