MODEL 1
REMARK VINA RESULT: -6.361071626      0.000      0.000
REMARK  2 active torsions:
REMARK  status: ('A' for Active; 'I' for Inactive)
REMARK    1  A    between atoms: C2_2  and  N1_5 
REMARK       I    between atoms: N1_5  and  C5_7 
REMARK       I    between atoms: C5_7  and  N3_16 
REMARK    2  A    between atoms: N2_8  and  C6_10 
ROOT
HETATM    1  N1  UNL     1      -3.295   6.331   7.942  1.00  0.00    -0.218 N 
ATOM      2  H1  UNL     1      -3.124   6.335   8.948  1.00  0.00     0.178 HD
HETATM    3  C5  UNL     1      -2.533   7.183   7.084  1.00  0.00     0.683 C 
HETATM    4  N2  UNL     1      -2.701   8.474   7.089  1.00  0.00    -0.221 N 
ATOM      5  H2  UNL     1      -3.386   8.902   7.712  1.00  0.00     0.178 HD
HETATM    6  N3  UNL     1      -1.587   6.556   6.228  1.00  0.00    -0.126 N 
ATOM      7  H3  UNL     1      -1.799   6.479   5.234  1.00  0.00     0.197 HD
HETATM    8  C12 UNL     1      -0.365   6.034   6.707  1.00  0.00     0.196 C 
HETATM    9  N4  UNL     1       0.639   5.596   7.098  1.00  0.00    -0.171 NA
ENDROOT
BRANCH   1  10
HETATM   10  C2  UNL     1      -4.297   5.474   7.388  1.00  0.00     0.036 C 
HETATM   11  C1  UNL     1      -4.873   6.053   6.118  1.00  0.00     0.038 C 
HETATM   12  C3  UNL     1      -3.777   4.082   7.168  1.00  0.00     0.038 C 
HETATM   13  C4  UNL     1      -5.456   5.364   8.383  1.00  0.00     0.038 C 
ENDBRANCH   1  10
BRANCH   4  14
HETATM   14  C6  UNL     1      -1.917   9.286   6.212  1.00  0.00     0.099 C 
HETATM   15  C7  UNL     1      -2.579  10.589   5.848  1.00  0.00     0.026 C 
HETATM   16  C8  UNL     1      -1.521  11.477   5.230  1.00  0.00     0.002 C 
HETATM   17  C9  UNL     1      -0.423  10.668   4.568  1.00  0.00     0.000 C 
HETATM   18  C10 UNL     1       0.366   9.860   5.573  1.00  0.00     0.002 C 
HETATM   19  C11 UNL     1      -0.551   9.613   6.772  1.00  0.00     0.026 C 
ENDBRANCH   4  14
TORSDOF 2
ENDMDL
MODEL 2
REMARK VINA RESULT: -6.297988443      0.067      1.070
REMARK  2 active torsions:
REMARK  status: ('A' for Active; 'I' for Inactive)
REMARK    1  A    between atoms: C2_2  and  N1_5 
REMARK       I    between atoms: N1_5  and  C5_7 
REMARK       I    between atoms: C5_7  and  N3_16 
REMARK    2  A    between atoms: N2_8  and  C6_10 
ROOT
HETATM    1  N1  UNL     1      -3.258   6.335   7.968  1.00  0.00    -0.218 N 
ATOM      2  H1  UNL     1      -3.081   6.345   8.973  1.00  0.00     0.178 HD
HETATM    3  C5  UNL     1      -2.508   7.188   7.102  1.00  0.00     0.683 C 
HETATM    4  N2  UNL     1      -2.685   8.478   7.102  1.00  0.00    -0.221 N 
ATOM      5  H2  UNL     1      -3.369   8.904   7.727  1.00  0.00     0.178 HD
HETATM    6  N3  UNL     1      -1.564   6.564   6.242  1.00  0.00    -0.126 N 
ATOM      7  H3  UNL     1      -1.781   6.482   5.250  1.00  0.00     0.197 HD
HETATM    8  C12 UNL     1      -0.335   6.053   6.715  1.00  0.00     0.196 C 
HETATM    9  N4  UNL     1       0.675   5.624   7.102  1.00  0.00    -0.171 NA
ENDROOT
BRANCH   1  10
HETATM   10  C2  UNL     1      -4.258   5.468   7.425  1.00  0.00     0.036 C 
HETATM   11  C1  UNL     1      -5.380   5.241   8.409  1.00  0.00     0.038 C 
HETATM   12  C3  UNL     1      -4.778   5.976   6.110  1.00  0.00     0.038 C 
HETATM   13  C4  UNL     1      -3.628   4.099   7.156  1.00  0.00     0.038 C 
ENDBRANCH   1  10
BRANCH   4  14
HETATM   14  C6  UNL     1      -1.913   9.292   6.216  1.00  0.00     0.099 C 
HETATM   15  C7  UNL     1      -2.585  10.590   5.853  1.00  0.00     0.026 C 
HETATM   16  C8  UNL     1      -1.536  11.482   5.224  1.00  0.00     0.002 C 
HETATM   17  C9  UNL     1      -0.439  10.677   4.556  1.00  0.00     0.000 C 
HETATM   18  C10 UNL     1       0.362   9.876   5.558  1.00  0.00     0.002 C 
HETATM   19  C11 UNL     1      -0.544   9.629   6.765  1.00  0.00     0.026 C 
ENDBRANCH   4  14
TORSDOF 2
ENDMDL
MODEL 3
REMARK VINA RESULT: -6.244481469      0.921      1.097
REMARK  2 active torsions:
REMARK  status: ('A' for Active; 'I' for Inactive)
REMARK    1  A    between atoms: C2_2  and  N1_5 
REMARK       I    between atoms: N1_5  and  C5_7 
REMARK       I    between atoms: C5_7  and  N3_16 
REMARK    2  A    between atoms: N2_8  and  C6_10 
ROOT
HETATM    1  N1  UNL     1      -3.278   6.227   8.032  1.00  0.00    -0.218 N 
ATOM      2  H1  UNL     1      -2.978   6.278   9.006  1.00  0.00     0.178 HD
HETATM    3  C5  UNL     1      -2.895   7.249   7.111  1.00  0.00     0.683 C 
HETATM    4  N2  UNL     1      -3.397   8.448   7.182  1.00  0.00    -0.221 N 
ATOM      5  H2  UNL     1      -4.078   8.679   7.904  1.00  0.00     0.178 HD
HETATM    6  N3  UNL     1      -1.943   6.895   6.116  1.00  0.00    -0.126 N 
ATOM      7  H3  UNL     1      -2.261   6.763   5.156  1.00  0.00     0.197 HD
HETATM    8  C12 UNL     1      -0.573   6.721   6.410  1.00  0.00     0.196 C 
HETATM    9  N4  UNL     1       0.556   6.567   6.648  1.00  0.00    -0.171 NA
ENDROOT
BRANCH   1  10
HETATM   10  C2  UNL     1      -4.083   5.131   7.587  1.00  0.00     0.036 C 
HETATM   11  C1  UNL     1      -4.818   5.473   6.312  1.00  0.00     0.038 C 
HETATM   12  C3  UNL     1      -3.275   3.875   7.432  1.00  0.00     0.038 C 
HETATM   13  C4  UNL     1      -5.153   4.845   8.644  1.00  0.00     0.038 C 
ENDBRANCH   1  10
BRANCH   4  14
HETATM   14  C6  UNL     1      -2.984   9.438   6.237  1.00  0.00     0.099 C 
HETATM   15  C7  UNL     1      -4.081  10.396   5.852  1.00  0.00     0.026 C 
HETATM   16  C8  UNL     1      -3.432  11.569   5.150  1.00  0.00     0.002 C 
HETATM   17  C9  UNL     1      -2.136  11.172   4.470  1.00  0.00     0.000 C 
HETATM   18  C10 UNL     1      -1.080  10.755   5.468  1.00  0.00     0.002 C 
HETATM   19  C11 UNL     1      -1.811  10.262   6.718  1.00  0.00     0.026 C 
ENDBRANCH   4  14
TORSDOF 2
ENDMDL
MODEL 4
REMARK VINA RESULT: -6.233439247      0.058      1.050
REMARK  2 active torsions:
REMARK  status: ('A' for Active; 'I' for Inactive)
REMARK    1  A    between atoms: C2_2  and  N1_5 
REMARK       I    between atoms: N1_5  and  C5_7 
REMARK       I    between atoms: C5_7  and  N3_16 
REMARK    2  A    between atoms: N2_8  and  C6_10 
ROOT
HETATM    1  N1  UNL     1      -3.258   6.340   7.983  1.00  0.00    -0.218 N 
ATOM      2  H1  UNL     1      -3.074   6.351   8.987  1.00  0.00     0.178 HD
HETATM    3  C5  UNL     1      -2.515   7.193   7.111  1.00  0.00     0.683 C 
HETATM    4  N2  UNL     1      -2.693   8.482   7.110  1.00  0.00    -0.221 N 
ATOM      5  H2  UNL     1      -3.372   8.908   7.740  1.00  0.00     0.178 HD
HETATM    6  N3  UNL     1      -1.575   6.568   6.246  1.00  0.00    -0.126 N 
ATOM      7  H3  UNL     1      -1.799   6.485   5.255  1.00  0.00     0.197 HD
HETATM    8  C12 UNL     1      -0.343   6.059   6.711  1.00  0.00     0.196 C 
HETATM    9  N4  UNL     1       0.670   5.631   7.091  1.00  0.00    -0.171 NA
ENDROOT
BRANCH   1  10
HETATM   10  C2  UNL     1      -4.261   5.472   7.447  1.00  0.00     0.036 C 
HETATM   11  C1  UNL     1      -3.679   4.131   7.068  1.00  0.00     0.038 C 
HETATM   12  C3  UNL     1      -5.422   5.318   8.388  1.00  0.00     0.038 C 
HETATM   13  C4  UNL     1      -4.810   6.090   6.159  1.00  0.00     0.038 C 
ENDBRANCH   1  10
BRANCH   4  14
HETATM   14  C6  UNL     1      -1.927   9.296   6.218  1.00  0.00     0.099 C 
HETATM   15  C7  UNL     1      -2.605  10.590   5.853  1.00  0.00     0.026 C 
HETATM   16  C8  UNL     1      -1.562  11.483   5.217  1.00  0.00     0.002 C 
HETATM   17  C9  UNL     1      -0.465  10.680   4.547  1.00  0.00     0.000 C 
HETATM   18  C10 UNL     1       0.343   9.886   5.548  1.00  0.00     0.002 C 
HETATM   19  C11 UNL     1      -0.557   9.639   6.760  1.00  0.00     0.026 C 
ENDBRANCH   4  14
TORSDOF 2
ENDMDL
MODEL 5
REMARK VINA RESULT: -6.163107626      0.909      1.499
REMARK  2 active torsions:
REMARK  status: ('A' for Active; 'I' for Inactive)
REMARK    1  A    between atoms: C2_2  and  N1_5 
REMARK       I    between atoms: N1_5  and  C5_7 
REMARK       I    between atoms: C5_7  and  N3_16 
REMARK    2  A    between atoms: N2_8  and  C6_10 
ROOT
HETATM    1  N1  UNL     1      -3.385   6.325   8.126  1.00  0.00    -0.218 N 
ATOM      2  H1  UNL     1      -3.066   6.383   9.093  1.00  0.00     0.178 HD
HETATM    3  C5  UNL     1      -2.974   7.310   7.177  1.00  0.00     0.683 C 
HETATM    4  N2  UNL     1      -3.423   8.531   7.231  1.00  0.00    -0.221 N 
ATOM      5  H2  UNL     1      -4.082   8.806   7.959  1.00  0.00     0.178 HD
HETATM    6  N3  UNL     1      -2.055   6.896   6.175  1.00  0.00    -0.126 N 
ATOM      7  H3  UNL     1      -2.394   6.758   5.223  1.00  0.00     0.197 HD
HETATM    8  C12 UNL     1      -0.688   6.669   6.450  1.00  0.00     0.196 C 
HETATM    9  N4  UNL     1       0.437   6.472   6.674  1.00  0.00    -0.171 NA
ENDROOT
BRANCH   1  10
HETATM   10  C2  UNL     1      -4.243   5.256   7.717  1.00  0.00     0.036 C 
HETATM   11  C1  UNL     1      -5.330   5.006   8.734  1.00  0.00     0.038 C 
HETATM   12  C3  UNL     1      -4.818   5.498   6.350  1.00  0.00     0.038 C 
HETATM   13  C4  UNL     1      -3.419   3.968   7.632  1.00  0.00     0.038 C 
ENDBRANCH   1  10
BRANCH   4  14
HETATM   14  C6  UNL     1      -2.984   9.483   6.259  1.00  0.00     0.099 C 
HETATM   15  C7  UNL     1      -4.052  10.467   5.858  1.00  0.00     0.026 C 
HETATM   16  C8  UNL     1      -3.369  11.600   5.122  1.00  0.00     0.002 C 
HETATM   17  C9  UNL     1      -2.093  11.143   4.443  1.00  0.00     0.000 C 
HETATM   18  C10 UNL     1      -1.043  10.716   5.445  1.00  0.00     0.002 C 
HETATM   19  C11 UNL     1      -1.781  10.279   6.712  1.00  0.00     0.026 C 
ENDBRANCH   4  14
TORSDOF 2
ENDMDL
