MODEL 1
REMARK VINA RESULT: -6.813387855      0.000      0.000
REMARK  0 active torsions:
REMARK  status: ('A' for Active; 'I' for Inactive)
ROOT
HETATM    1  N1  UNL     1      -1.862   3.503  11.055  1.00  0.00    -0.405 N 
ATOM      2  H11 UNL     1      -1.771   3.990  11.947  1.00  0.00     0.155 HD
ATOM      3  H12 UNL     1      -1.781   2.708  11.688  1.00  0.00     0.155 HD
HETATM    4  C1  UNL     1      -2.003   3.752   9.823  1.00  0.00    -0.011 C 
HETATM    5  C2  UNL     1      -2.131   3.062   8.559  1.00  0.00     0.036 C 
HETATM    6  C3  UNL     1      -0.713   3.466   7.996  1.00  0.00     0.016 C 
HETATM    7  C4  UNL     1      -0.874   4.996   8.053  1.00  0.00    -0.002 C 
HETATM    8  C5  UNL     1      -1.204   5.637   6.693  1.00  0.00     0.038 C 
HETATM    9  C6  UNL     1      -2.458   6.498   6.718  1.00  0.00     0.190 C 
HETATM   10  N2  UNL     1      -2.237   7.914   6.335  1.00  0.00    -0.070 N 
ATOM     11  H21 UNL     1      -2.447   8.068   5.349  1.00  0.00     0.277 HD
ATOM     12  H22 UNL     1      -1.243   8.144   6.326  1.00  0.00     0.277 HD
HETATM   13  C7  UNL     1      -2.983   8.827   7.182  1.00  0.00     0.233 C 
HETATM   14  C8  UNL     1      -3.934   8.228   8.181  1.00  0.00     0.032 C 
HETATM   15  C9  UNL     1      -4.830   7.123   7.693  1.00  0.00    -0.012 C 
HETATM   16  C10 UNL     1      -4.687   7.138   6.190  1.00  0.00     0.011 C 
HETATM   17  C11 UNL     1      -3.605   6.056   5.957  1.00  0.00     0.017 C 
HETATM   18  C12 UNL     1      -4.434   4.876   6.272  1.00  0.00     0.011 C 
HETATM   19  C13 UNL     1      -4.248   4.580   7.790  1.00  0.00    -0.008 C 
HETATM   20  C14 UNL     1      -4.821   5.834   8.390  1.00  0.00     0.010 C 
HETATM   21  C15 UNL     1      -2.931   4.122   7.936  1.00  0.00     0.009 C 
HETATM   22  C16 UNL     1      -2.123   4.936   8.881  1.00  0.00     0.040 C 
ENDROOT
TORSDOF 0
ENDMDL
MODEL 2
REMARK VINA RESULT: -6.661188732      2.259      5.126
REMARK  0 active torsions:
REMARK  status: ('A' for Active; 'I' for Inactive)
ROOT
HETATM    1  N1  UNL     1      -3.346  11.372   4.292  1.00  0.00    -0.405 N 
ATOM      2  H11 UNL     1      -3.503  11.360   3.284  1.00  0.00     0.155 HD
ATOM      3  H12 UNL     1      -3.655  12.333   4.146  1.00  0.00     0.155 HD
HETATM    4  C1  UNL     1      -2.972  10.605   5.227  1.00  0.00    -0.011 C 
HETATM    5  C2  UNL     1      -2.751  10.623   6.655  1.00  0.00     0.036 C 
HETATM    6  C3  UNL     1      -1.176  10.533   6.588  1.00  0.00     0.016 C 
HETATM    7  C4  UNL     1      -1.058   9.210   5.810  1.00  0.00    -0.002 C 
HETATM    8  C5  UNL     1      -0.736   7.994   6.699  1.00  0.00     0.038 C 
HETATM    9  C6  UNL     1      -1.725   6.850   6.541  1.00  0.00     0.190 C 
HETATM   10  N2  UNL     1      -1.118   5.571   6.097  1.00  0.00    -0.070 N 
ATOM     11  H21 UNL     1      -0.915   4.962   6.890  1.00  0.00     0.277 HD
ATOM     12  H22 UNL     1      -0.167   5.711   5.755  1.00  0.00     0.277 HD
HETATM   13  C7  UNL     1      -1.940   4.895   5.109  1.00  0.00     0.233 C 
HETATM   14  C8  UNL     1      -3.287   5.489   4.802  1.00  0.00     0.032 C 
HETATM   15  C9  UNL     1      -4.128   5.915   5.973  1.00  0.00    -0.012 C 
HETATM   16  C10 UNL     1      -3.439   5.331   7.184  1.00  0.00     0.011 C 
HETATM   17  C11 UNL     1      -2.570   6.517   7.665  1.00  0.00     0.017 C 
HETATM   18  C12 UNL     1      -3.662   7.361   8.190  1.00  0.00     0.011 C 
HETATM   19  C13 UNL     1      -4.109   8.301   7.032  1.00  0.00    -0.008 C 
HETATM   20  C14 UNL     1      -4.619   7.294   6.038  1.00  0.00     0.010 C 
HETATM   21  C15 UNL     1      -3.051   9.198   6.830  1.00  0.00     0.009 C 
HETATM   22  C16 UNL     1      -2.513   9.176   5.445  1.00  0.00     0.040 C 
ENDROOT
TORSDOF 0
ENDMDL
MODEL 3
REMARK VINA RESULT: -6.576299333      1.121      4.642
REMARK  0 active torsions:
REMARK  status: ('A' for Active; 'I' for Inactive)
ROOT
HETATM    1  N1  UNL     1      -3.266   9.416   7.245  1.00  0.00    -0.405 N 
ATOM      2  H11 UNL     1      -2.876  10.033   7.958  1.00  0.00     0.155 HD
ATOM      3  H12 UNL     1      -3.402  10.321   6.795  1.00  0.00     0.155 HD
HETATM    4  C1  UNL     1      -3.469   8.186   7.029  1.00  0.00    -0.011 C 
HETATM    5  C2  UNL     1      -4.020   7.313   6.019  1.00  0.00     0.036 C 
HETATM    6  C3  UNL     1      -5.310   6.900   6.830  1.00  0.00     0.016 C 
HETATM    7  C4  UNL     1      -4.616   6.299   8.066  1.00  0.00    -0.002 C 
HETATM    8  C5  UNL     1      -4.560   4.760   8.060  1.00  0.00     0.038 C 
HETATM    9  C6  UNL     1      -3.154   4.206   8.231  1.00  0.00     0.190 C 
HETATM   10  N2  UNL     1      -2.981   3.326   9.413  1.00  0.00    -0.070 N 
ATOM     11  H21 UNL     1      -3.075   2.342   9.159  1.00  0.00     0.277 HD
ATOM     12  H22 UNL     1      -3.774   3.403  10.051  1.00  0.00     0.277 HD
HETATM   13  C7  UNL     1      -1.726   3.577  10.098  1.00  0.00     0.233 C 
HETATM   14  C8  UNL     1      -0.768   4.544   9.458  1.00  0.00     0.032 C 
HETATM   15  C9  UNL     1      -0.533   4.396   7.981  1.00  0.00    -0.012 C 
HETATM   16  C10 UNL     1      -1.157   3.070   7.615  1.00  0.00     0.011 C 
HETATM   17  C11 UNL     1      -2.559   3.498   7.120  1.00  0.00     0.017 C 
HETATM   18  C12 UNL     1      -2.139   4.111   5.844  1.00  0.00     0.011 C 
HETATM   19  C13 UNL     1      -1.897   5.623   6.123  1.00  0.00    -0.008 C 
HETATM   20  C14 UNL     1      -0.756   5.546   7.100  1.00  0.00     0.010 C 
HETATM   21  C15 UNL     1      -3.160   6.179   6.371  1.00  0.00     0.009 C 
HETATM   22  C16 UNL     1      -3.266   6.839   7.698  1.00  0.00     0.040 C 
ENDROOT
TORSDOF 0
ENDMDL
MODEL 4
REMARK VINA RESULT: -6.556222139      1.110      4.644
REMARK  0 active torsions:
REMARK  status: ('A' for Active; 'I' for Inactive)
ROOT
HETATM    1  N1  UNL     1      -2.451   9.958   6.419  1.00  0.00    -0.405 N 
ATOM      2  H11 UNL     1      -1.641  10.491   6.736  1.00  0.00     0.155 HD
ATOM      3  H12 UNL     1      -2.561  10.804   5.860  1.00  0.00     0.155 HD
HETATM    4  C1  UNL     1      -3.015   8.842   6.612  1.00  0.00    -0.011 C 
HETATM    5  C2  UNL     1      -4.162   8.087   6.162  1.00  0.00     0.036 C 
HETATM    6  C3  UNL     1      -4.984   8.201   7.505  1.00  0.00     0.016 C 
HETATM    7  C4  UNL     1      -3.960   7.549   8.452  1.00  0.00    -0.002 C 
HETATM    8  C5  UNL     1      -4.280   6.082   8.796  1.00  0.00     0.038 C 
HETATM    9  C6  UNL     1      -3.132   5.128   8.504  1.00  0.00     0.190 C 
HETATM   10  N2  UNL     1      -2.645   4.375   9.685  1.00  0.00    -0.070 N 
ATOM     11  H21 UNL     1      -3.075   3.452   9.739  1.00  0.00     0.277 HD
ATOM     12  H22 UNL     1      -3.006   4.772  10.552  1.00  0.00     0.277 HD
HETATM   13  C7  UNL     1      -1.196   4.283   9.710  1.00  0.00     0.233 C 
HETATM   14  C8  UNL     1      -0.446   4.815   8.520  1.00  0.00     0.032 C 
HETATM   15  C9  UNL     1      -0.966   4.439   7.161  1.00  0.00    -0.012 C 
HETATM   16  C10 UNL     1      -1.983   3.351   7.418  1.00  0.00     0.011 C 
HETATM   17  C11 UNL     1      -3.308   4.149   7.455  1.00  0.00     0.017 C 
HETATM   18  C12 UNL     1      -3.397   4.452   6.013  1.00  0.00     0.011 C 
HETATM   19  C13 UNL     1      -2.702   5.827   5.791  1.00  0.00    -0.008 C 
HETATM   20  C14 UNL     1      -1.293   5.496   6.200  1.00  0.00     0.010 C 
HETATM   21  C15 UNL     1      -3.533   6.783   6.393  1.00  0.00     0.009 C 
HETATM   22  C16 UNL     1      -2.851   7.583   7.442  1.00  0.00     0.040 C 
ENDROOT
TORSDOF 0
ENDMDL
MODEL 5
REMARK VINA RESULT: -6.522991945      1.445      4.592
REMARK  0 active torsions:
REMARK  status: ('A' for Active; 'I' for Inactive)
ROOT
HETATM    1  N1  UNL     1      -5.225   8.488   7.587  1.00  0.00    -0.405 N 
ATOM      2  H11 UNL     1      -5.187   9.008   8.463  1.00  0.00     0.155 HD
ATOM      3  H12 UNL     1      -5.707   9.344   7.311  1.00  0.00     0.155 HD
HETATM    4  C1  UNL     1      -4.865   7.378   7.099  1.00  0.00    -0.011 C 
HETATM    5  C2  UNL     1      -4.919   6.642   5.857  1.00  0.00     0.036 C 
HETATM    6  C3  UNL     1      -5.956   5.556   6.343  1.00  0.00     0.016 C 
HETATM    7  C4  UNL     1      -5.155   4.995   7.532  1.00  0.00    -0.002 C 
HETATM    8  C5  UNL     1      -4.442   3.664   7.227  1.00  0.00     0.038 C 
HETATM    9  C6  UNL     1      -2.949   3.698   7.516  1.00  0.00     0.190 C 
HETATM   10  N2  UNL     1      -2.494   2.695   8.510  1.00  0.00    -0.070 N 
ATOM     11  H21 UNL     1      -2.138   1.856   8.053  1.00  0.00     0.277 HD
ATOM     12  H22 UNL     1      -3.283   2.284   9.010  1.00  0.00     0.277 HD
HETATM   13  C7  UNL     1      -1.517   3.249   9.431  1.00  0.00     0.233 C 
HETATM   14  C8  UNL     1      -1.027   4.646   9.166  1.00  0.00     0.032 C 
HETATM   15  C9  UNL     1      -0.654   4.982   7.749  1.00  0.00    -0.012 C 
HETATM   16  C10 UNL     1      -0.621   3.656   7.028  1.00  0.00     0.011 C 
HETATM   17  C11 UNL     1      -2.035   3.593   6.401  1.00  0.00     0.017 C 
HETATM   18  C12 UNL     1      -1.836   4.623   5.362  1.00  0.00     0.011 C 
HETATM   19  C13 UNL     1      -2.287   5.982   5.974  1.00  0.00    -0.008 C 
HETATM   20  C14 UNL     1      -1.292   6.127   7.092  1.00  0.00     0.010 C 
HETATM   21  C15 UNL     1      -3.679   5.901   6.114  1.00  0.00     0.009 C 
HETATM   22  C16 UNL     1      -4.147   6.106   7.509  1.00  0.00     0.040 C 
ENDROOT
TORSDOF 0
ENDMDL
