MODEL 1
REMARK VINA RESULT: -6.944966014      0.000      0.000
REMARK  2 active torsions:
REMARK  status: ('A' for Active; 'I' for Inactive)
REMARK    1  A    between atoms: C2_2  and  C4_4 
REMARK    2  A    between atoms: C12_12  and  O1_13 
ROOT
HETATM    1  C4  UNL     1      -1.336   6.062   6.893  1.00  0.00    -0.006 C 
HETATM    2  C5  UNL     1      -0.203   7.060   6.699  1.00  0.00     0.006 C 
HETATM    3  C6  UNL     1      -0.842   8.404   6.439  1.00  0.00     0.006 C 
HETATM    4  C7  UNL     1      -2.204   8.226   7.033  1.00  0.00    -0.005 C 
HETATM    5  C8  UNL     1      -3.208   9.229   6.713  1.00  0.00    -0.004 C 
HETATM    6  C9  UNL     1      -2.971  10.236   5.638  1.00  0.00     0.006 C 
HETATM    7  C10 UNL     1      -4.508  10.211   5.486  1.00  0.00     0.008 C 
HETATM    8  C11 UNL     1      -4.340   8.744   5.833  1.00  0.00     0.019 C 
HETATM    9  C12 UNL     1      -5.429   8.066   6.547  1.00  0.00     0.123 C 
HETATM   10  C13 UNL     1      -5.106   6.612   6.681  1.00  0.00     0.037 C 
HETATM   11  C14 UNL     1      -3.799   6.314   7.339  1.00  0.00    -0.012 C 
HETATM   12  C15 UNL     1      -3.776   6.666   8.811  1.00  0.00     0.010 C 
HETATM   13  C16 UNL     1      -2.608   6.834   6.592  1.00  0.00    -0.002 C 
ENDROOT
BRANCH   1  14
HETATM   14  C2  UNL     1      -1.201   4.946   5.860  1.00  0.00    -0.018 C 
HETATM   15  C1  UNL     1      -2.226   5.062   4.776  1.00  0.00     0.010 C 
HETATM   16  C3  UNL     1      -1.300   3.579   6.501  1.00  0.00     0.010 C 
ENDBRANCH   1  14
BRANCH   9  17
HETATM   17  O1  UNL     1      -5.781   8.597   7.766  1.00  0.00    -0.395 OA
ATOM     18  H1  UNL     1      -5.738   8.008   8.509  1.00  0.00     0.210 HD
ENDBRANCH   9  17
TORSDOF 2
ENDMDL
MODEL 2
REMARK VINA RESULT: -6.740389880      1.063      1.296
REMARK  2 active torsions:
REMARK  status: ('A' for Active; 'I' for Inactive)
REMARK    1  A    between atoms: C2_2  and  C4_4 
REMARK    2  A    between atoms: C12_12  and  O1_13 
ROOT
HETATM    1  C4  UNL     1      -1.483   6.708   6.831  1.00  0.00    -0.006 C 
HETATM    2  C5  UNL     1      -0.124   7.395   6.806  1.00  0.00     0.006 C 
HETATM    3  C6  UNL     1      -0.364   8.826   6.385  1.00  0.00     0.006 C 
HETATM    4  C7  UNL     1      -1.808   9.019   6.730  1.00  0.00    -0.005 C 
HETATM    5  C8  UNL     1      -2.469  10.200   6.197  1.00  0.00    -0.004 C 
HETATM    6  C9  UNL     1      -1.819  11.033   5.145  1.00  0.00     0.006 C 
HETATM    7  C10 UNL     1      -3.269  11.356   4.719  1.00  0.00     0.008 C 
HETATM    8  C11 UNL     1      -3.523   9.923   5.145  1.00  0.00     0.019 C 
HETATM    9  C12 UNL     1      -4.848   9.577   5.677  1.00  0.00     0.123 C 
HETATM   10  C13 UNL     1      -4.915   8.104   5.922  1.00  0.00     0.037 C 
HETATM   11  C14 UNL     1      -3.848   7.563   6.816  1.00  0.00    -0.012 C 
HETATM   12  C15 UNL     1      -3.985   8.017   8.253  1.00  0.00     0.010 C 
HETATM   13  C16 UNL     1      -2.460   7.728   6.277  1.00  0.00    -0.002 C 
ENDROOT
BRANCH   1  14
HETATM   14  C2  UNL     1      -1.454   5.512   5.882  1.00  0.00    -0.018 C 
HETATM   15  C1  UNL     1      -2.799   5.240   5.287  1.00  0.00     0.010 C 
HETATM   16  C3  UNL     1      -0.949   4.265   6.575  1.00  0.00     0.010 C 
ENDBRANCH   1  14
BRANCH   9  17
HETATM   17  O1  UNL     1      -5.257  10.272   6.791  1.00  0.00    -0.395 OA
ATOM     18  H1  UNL     1      -5.358  11.210   6.688  1.00  0.00     0.210 HD
ENDBRANCH   9  17
TORSDOF 2
ENDMDL
MODEL 3
REMARK VINA RESULT: -6.709740378      2.036      4.640
REMARK  2 active torsions:
REMARK  status: ('A' for Active; 'I' for Inactive)
REMARK    1  A    between atoms: C2_2  and  C4_4 
REMARK    2  A    between atoms: C12_12  and  O1_13 
ROOT
HETATM    1  C4  UNL     1      -2.454   8.156   6.195  1.00  0.00    -0.006 C 
HETATM    2  C5  UNL     1      -0.978   8.506   6.335  1.00  0.00     0.006 C 
HETATM    3  C6  UNL     1      -0.278   7.260   6.825  1.00  0.00     0.006 C 
HETATM    4  C7  UNL     1      -1.228   6.180   6.413  1.00  0.00    -0.005 C 
HETATM    5  C8  UNL     1      -1.019   4.855   6.977  1.00  0.00    -0.004 C 
HETATM    6  C9  UNL     1      -0.072   4.645   8.110  1.00  0.00     0.006 C 
HETATM    7  C10 UNL     1      -1.006   3.469   8.473  1.00  0.00     0.008 C 
HETATM    8  C11 UNL     1      -2.085   4.398   7.950  1.00  0.00     0.019 C 
HETATM    9  C12 UNL     1      -3.275   3.805   7.327  1.00  0.00     0.123 C 
HETATM   10  C13 UNL     1      -4.252   4.887   6.993  1.00  0.00     0.037 C 
HETATM   11  C14 UNL     1      -3.712   5.979   6.129  1.00  0.00    -0.012 C 
HETATM   12  C15 UNL     1      -3.411   5.531   4.716  1.00  0.00     0.010 C 
HETATM   13  C16 UNL     1      -2.590   6.752   6.753  1.00  0.00    -0.002 C 
ENDROOT
BRANCH   1  14
HETATM   14  C2  UNL     1      -3.274   9.099   7.072  1.00  0.00    -0.018 C 
HETATM   15  C1  UNL     1      -3.898   8.382   8.229  1.00  0.00     0.010 C 
HETATM   16  C3  UNL     1      -4.351   9.802   6.276  1.00  0.00     0.010 C 
ENDBRANCH   1  14
BRANCH   9  17
HETATM   17  O1  UNL     1      -3.053   3.000   6.234  1.00  0.00    -0.395 OA
ATOM     18  H1  UNL     1      -3.588   2.218   6.173  1.00  0.00     0.210 HD
ENDBRANCH   9  17
TORSDOF 2
ENDMDL
MODEL 4
REMARK VINA RESULT: -6.650370115      2.213      4.765
REMARK  2 active torsions:
REMARK  status: ('A' for Active; 'I' for Inactive)
REMARK    1  A    between atoms: C2_2  and  C4_4 
REMARK    2  A    between atoms: C12_12  and  O1_13 
ROOT
HETATM    1  C4  UNL     1      -1.111   7.211   6.208  1.00  0.00    -0.006 C 
HETATM    2  C5  UNL     1       0.301   7.057   6.754  1.00  0.00     0.006 C 
HETATM    3  C6  UNL     1       0.331   5.761   7.532  1.00  0.00     0.006 C 
HETATM    4  C7  UNL     1      -0.824   5.013   6.945  1.00  0.00    -0.005 C 
HETATM    5  C8  UNL     1      -1.280   3.827   7.652  1.00  0.00    -0.004 C 
HETATM    6  C9  UNL     1      -0.797   3.523   9.030  1.00  0.00     0.006 C 
HETATM    7  C10 UNL     1      -2.166   2.825   9.192  1.00  0.00     0.008 C 
HETATM    8  C11 UNL     1      -2.645   3.950   8.295  1.00  0.00     0.019 C 
HETATM    9  C12 UNL     1      -3.776   3.693   7.395  1.00  0.00     0.123 C 
HETATM   10  C13 UNL     1      -4.153   4.960   6.696  1.00  0.00     0.037 C 
HETATM   11  C14 UNL     1      -3.043   5.621   5.947  1.00  0.00    -0.012 C 
HETATM   12  C15 UNL     1      -2.594   4.841   4.730  1.00  0.00     0.010 C 
HETATM   13  C16 UNL     1      -1.904   6.067   6.813  1.00  0.00    -0.002 C 
ENDROOT
BRANCH   1  14
HETATM   14  C2  UNL     1      -1.702   8.523   6.719  1.00  0.00    -0.018 C 
HETATM   15  C1  UNL     1      -3.189   8.567   6.551  1.00  0.00     0.010 C 
HETATM   16  C3  UNL     1      -1.082   9.718   6.028  1.00  0.00     0.010 C 
ENDBRANCH   1  14
BRANCH   9  17
HETATM   17  O1  UNL     1      -3.612   2.671   6.489  1.00  0.00    -0.395 OA
ATOM     18  H1  UNL     1      -4.407   2.305   6.120  1.00  0.00     0.210 HD
ENDBRANCH   9  17
TORSDOF 2
ENDMDL
MODEL 5
REMARK VINA RESULT: -6.617231410      1.931      4.350
REMARK  2 active torsions:
REMARK  status: ('A' for Active; 'I' for Inactive)
REMARK    1  A    between atoms: C2_2  and  C4_4 
REMARK    2  A    between atoms: C12_12  and  O1_13 
ROOT
HETATM    1  C4  UNL     1      -1.447   7.672   6.194  1.00  0.00    -0.006 C 
HETATM    2  C5  UNL     1      -0.008   7.178   6.256  1.00  0.00     0.006 C 
HETATM    3  C6  UNL     1       0.015   6.020   7.227  1.00  0.00     0.006 C 
HETATM    4  C7  UNL     1      -1.414   5.577   7.225  1.00  0.00    -0.005 C 
HETATM    5  C8  UNL     1      -1.828   4.654   8.271  1.00  0.00    -0.004 C 
HETATM    6  C9  UNL     1      -0.945   4.374   9.439  1.00  0.00     0.006 C 
HETATM    7  C10 UNL     1      -2.273   4.120  10.188  1.00  0.00     0.008 C 
HETATM    8  C11 UNL     1      -2.782   5.234   9.294  1.00  0.00     0.019 C 
HETATM    9  C12 UNL     1      -4.196   5.217   8.896  1.00  0.00     0.123 C 
HETATM   10  C13 UNL     1      -4.508   6.457   8.120  1.00  0.00     0.037 C 
HETATM   11  C14 UNL     1      -3.643   6.687   6.925  1.00  0.00    -0.012 C 
HETATM   12  C15 UNL     1      -3.877   5.686   5.815  1.00  0.00     0.010 C 
HETATM   13  C16 UNL     1      -2.192   6.877   7.249  1.00  0.00    -0.002 C 
ENDROOT
BRANCH   1  14
HETATM   14  C2  UNL     1      -1.484   9.146   6.593  1.00  0.00    -0.018 C 
HETATM   15  C1  UNL     1      -2.756   9.807   6.163  1.00  0.00     0.010 C 
HETATM   16  C3  UNL     1      -0.305   9.905   6.026  1.00  0.00     0.010 C 
ENDBRANCH   1  14
BRANCH   9  17
HETATM   17  O1  UNL     1      -4.625   4.101   8.217  1.00  0.00    -0.395 OA
ATOM     18  H1  UNL     1      -3.951   3.487   7.950  1.00  0.00     0.210 HD
ENDBRANCH   9  17
TORSDOF 2
ENDMDL
