MODEL 1
REMARK VINA RESULT: -6.397122950      0.000      0.000
REMARK  4 active torsions:
REMARK  status: ('A' for Active; 'I' for Inactive)
REMARK    1  A    between atoms: C1_2  and  N1_3 
REMARK    2  A    between atoms: C1_2  and  N2_11 
REMARK    3  A    between atoms: N1_3  and  C2_5 
REMARK    4  A    between atoms: N2_11  and  C8_13 
ROOT
HETATM    1  S1  UNL     1       2.269   8.130   5.933  1.00  0.00    -0.041 SA
HETATM    2  C1  UNL     1       0.714   7.882   6.315  1.00  0.00     0.168 C 
ENDROOT
BRANCH   2   3
HETATM    3  N1  UNL     1      -0.120   8.978   6.708  1.00  0.00    -0.363 N 
ATOM      4  H1  UNL     1       0.060   9.429   7.605  1.00  0.00     0.162 HD
BRANCH   3   5
HETATM    5  C2  UNL     1      -1.189   9.464   5.903  1.00  0.00     0.083 C 
HETATM    6  C3  UNL     1      -2.467   9.440   6.735  1.00  0.00     0.025 C 
HETATM    7  C4  UNL     1      -3.659   9.892   5.944  1.00  0.00     0.002 C 
HETATM    8  C5  UNL     1      -3.440  11.280   5.354  1.00  0.00     0.000 C 
HETATM    9  C6  UNL     1      -2.184  11.223   4.525  1.00  0.00     0.002 C 
HETATM   10  C7  UNL     1      -1.018  10.909   5.469  1.00  0.00     0.025 C 
ENDBRANCH   3   5
ENDBRANCH   2   3
BRANCH   2  11
HETATM   11  N2  UNL     1       0.197   6.560   6.226  1.00  0.00    -0.363 N 
ATOM     12  H2  UNL     1       0.572   5.944   5.503  1.00  0.00     0.162 HD
BRANCH  11  13
HETATM   13  C8  UNL     1      -0.828   6.039   7.099  1.00  0.00     0.083 C 
HETATM   14  C9  UNL     1      -0.299   4.835   7.780  1.00  0.00     0.025 C 
HETATM   15  C10 UNL     1      -1.263   3.763   8.123  1.00  0.00     0.002 C 
HETATM   16  C11 UNL     1      -1.923   3.359   6.794  1.00  0.00     0.000 C 
HETATM   17  C12 UNL     1      -2.759   4.534   6.415  1.00  0.00     0.002 C 
HETATM   18  C13 UNL     1      -2.066   5.831   6.289  1.00  0.00     0.025 C 
ENDBRANCH  11  13
ENDBRANCH   2  11
TORSDOF 4
ENDMDL
MODEL 2
REMARK VINA RESULT: -6.195062292      0.854      5.379
REMARK  4 active torsions:
REMARK  status: ('A' for Active; 'I' for Inactive)
REMARK    1  A    between atoms: C1_2  and  N1_3 
REMARK    2  A    between atoms: C1_2  and  N2_11 
REMARK    3  A    between atoms: N1_3  and  C2_5 
REMARK    4  A    between atoms: N2_11  and  C8_13 
ROOT
HETATM    1  S1  UNL     1       2.625   7.785   5.915  1.00  0.00    -0.041 SA
HETATM    2  C1  UNL     1       1.125   7.512   6.461  1.00  0.00     0.168 C 
ENDROOT
BRANCH   2   3
HETATM    3  N1  UNL     1       0.681   6.177   6.727  1.00  0.00    -0.363 N 
ATOM      4  H1  UNL     1       1.339   5.409   6.593  1.00  0.00     0.162 HD
BRANCH   3   5
HETATM    5  C2  UNL     1      -0.638   5.874   7.169  1.00  0.00     0.083 C 
HETATM    6  C3  UNL     1      -1.470   5.468   5.957  1.00  0.00     0.025 C 
HETATM    7  C4  UNL     1      -2.895   5.178   6.326  1.00  0.00     0.002 C 
HETATM    8  C5  UNL     1      -2.982   4.107   7.408  1.00  0.00     0.000 C 
HETATM    9  C6  UNL     1      -2.166   4.586   8.580  1.00  0.00     0.002 C 
HETATM   10  C7  UNL     1      -0.707   4.692   8.119  1.00  0.00     0.025 C 
ENDBRANCH   3   5
ENDBRANCH   2   3
BRANCH   2  11
HETATM   11  N2  UNL     1       0.274   8.629   6.691  1.00  0.00    -0.363 N 
ATOM     12  H2  UNL     1       0.370   9.133   7.573  1.00  0.00     0.162 HD
BRANCH  11  13
HETATM   13  C8  UNL     1      -0.716   9.091   5.748  1.00  0.00     0.083 C 
HETATM   14  C9  UNL     1      -0.246  10.364   5.155  1.00  0.00     0.025 C 
HETATM   15  C10 UNL     1      -1.272  11.357   4.763  1.00  0.00     0.002 C 
HETATM   16  C11 UNL     1      -2.078  11.646   6.040  1.00  0.00     0.000 C 
HETATM   17  C12 UNL     1      -2.831  10.386   6.305  1.00  0.00     0.002 C 
HETATM   18  C13 UNL     1      -2.033   9.153   6.450  1.00  0.00     0.025 C 
ENDBRANCH  11  13
ENDBRANCH   2  11
TORSDOF 4
ENDMDL
MODEL 3
REMARK VINA RESULT: -6.188690855      2.432      4.418
REMARK  4 active torsions:
REMARK  status: ('A' for Active; 'I' for Inactive)
REMARK    1  A    between atoms: C1_2  and  N1_3 
REMARK    2  A    between atoms: C1_2  and  N2_11 
REMARK    3  A    between atoms: N1_3  and  C2_5 
REMARK    4  A    between atoms: N2_11  and  C8_13 
ROOT
HETATM    1  S1  UNL     1      -0.684   3.976   7.443  1.00  0.00    -0.041 SA
HETATM    2  C1  UNL     1      -1.324   5.260   6.691  1.00  0.00     0.168 C 
ENDROOT
BRANCH   2   3
HETATM    3  N1  UNL     1      -2.739   5.479   6.708  1.00  0.00    -0.363 N 
ATOM      4  H1  UNL     1      -3.354   4.682   6.874  1.00  0.00     0.162 HD
BRANCH   3   5
HETATM    5  C2  UNL     1      -3.325   6.761   6.502  1.00  0.00     0.083 C 
HETATM    6  C3  UNL     1      -4.716   6.563   5.908  1.00  0.00     0.025 C 
HETATM    7  C4  UNL     1      -5.390   7.871   5.612  1.00  0.00     0.002 C 
HETATM    8  C5  UNL     1      -5.468   8.750   6.854  1.00  0.00     0.000 C 
HETATM    9  C6  UNL     1      -4.063   8.926   7.369  1.00  0.00     0.002 C 
HETATM   10  C7  UNL     1      -3.543   7.545   7.784  1.00  0.00     0.025 C 
ENDBRANCH   3   5
ENDBRANCH   2   3
BRANCH   2  11
HETATM   11  N2  UNL     1      -0.447   6.171   6.040  1.00  0.00    -0.363 N 
ATOM     12  H2  UNL     1      -0.418   6.164   5.020  1.00  0.00     0.162 HD
BRANCH  11  13
HETATM   13  C8  UNL     1       0.404   7.104   6.739  1.00  0.00     0.083 C 
HETATM   14  C9  UNL     1      -0.098   8.476   6.493  1.00  0.00     0.025 C 
HETATM   15  C10 UNL     1       0.897   9.573   6.456  1.00  0.00     0.002 C 
HETATM   16  C11 UNL     1       1.903   9.184   5.360  1.00  0.00     0.000 C 
HETATM   17  C12 UNL     1       2.633   8.009   5.916  1.00  0.00     0.002 C 
HETATM   18  C13 UNL     1       1.815   6.849   6.320  1.00  0.00     0.025 C 
ENDBRANCH  11  13
ENDBRANCH   2  11
TORSDOF 4
ENDMDL
MODEL 4
REMARK VINA RESULT: -6.166138532      2.561      3.715
REMARK  4 active torsions:
REMARK  status: ('A' for Active; 'I' for Inactive)
REMARK    1  A    between atoms: C1_2  and  N1_3 
REMARK    2  A    between atoms: C1_2  and  N2_11 
REMARK    3  A    between atoms: N1_3  and  C2_5 
REMARK    4  A    between atoms: N2_11  and  C8_13 
ROOT
HETATM    1  S1  UNL     1      -4.850   6.725   5.910  1.00  0.00    -0.041 SA
HETATM    2  C1  UNL     1      -3.347   6.188   6.189  1.00  0.00     0.168 C 
ENDROOT
BRANCH   2   3
HETATM    3  N1  UNL     1      -2.415   6.989   6.924  1.00  0.00    -0.363 N 
ATOM      4  H1  UNL     1      -2.589   7.153   7.915  1.00  0.00     0.162 HD
BRANCH   3   5
HETATM    5  C2  UNL     1      -1.257   7.568   6.330  1.00  0.00     0.083 C 
HETATM    6  C3  UNL     1      -1.372   9.085   6.433  1.00  0.00     0.025 C 
HETATM    7  C4  UNL     1      -0.211   9.781   5.784  1.00  0.00     0.002 C 
HETATM    8  C5  UNL     1       1.116   9.311   6.370  1.00  0.00     0.000 C 
HETATM    9  C6  UNL     1       1.174   7.814   6.209  1.00  0.00     0.002 C 
HETATM   10  C7  UNL     1       0.036   7.212   7.042  1.00  0.00     0.025 C 
ENDBRANCH   3   5
ENDBRANCH   2   3
BRANCH   2  11
HETATM   11  N2  UNL     1      -2.988   4.898   5.708  1.00  0.00    -0.363 N 
ATOM     12  H2  UNL     1      -3.005   4.739   4.700  1.00  0.00     0.162 HD
BRANCH  11  13
HETATM   13  C8  UNL     1      -2.603   3.802   6.564  1.00  0.00     0.083 C 
HETATM   14  C9  UNL     1      -3.243   3.988   7.887  1.00  0.00     0.025 C 
HETATM   15  C10 UNL     1      -2.514   3.491   9.076  1.00  0.00     0.002 C 
HETATM   16  C11 UNL     1      -1.152   4.202   9.055  1.00  0.00     0.000 C 
HETATM   17  C12 UNL     1      -0.438   3.617   7.884  1.00  0.00     0.002 C 
HETATM   18  C13 UNL     1      -1.111   3.723   6.574  1.00  0.00     0.025 C 
ENDBRANCH  11  13
ENDBRANCH   2  11
TORSDOF 4
ENDMDL
MODEL 5
REMARK VINA RESULT: -6.147608422      2.251      2.858
REMARK  4 active torsions:
REMARK  status: ('A' for Active; 'I' for Inactive)
REMARK    1  A    between atoms: C1_2  and  N1_3 
REMARK    2  A    between atoms: C1_2  and  N2_11 
REMARK    3  A    between atoms: N1_3  and  C2_5 
REMARK    4  A    between atoms: N2_11  and  C8_13 
ROOT
HETATM    1  S1  UNL     1      -4.006   6.310   8.542  1.00  0.00    -0.041 SA
HETATM    2  C1  UNL     1      -3.422   7.136   7.278  1.00  0.00     0.168 C 
ENDROOT
BRANCH   2   3
HETATM    3  N1  UNL     1      -3.163   8.540   7.386  1.00  0.00    -0.363 N 
ATOM      4  H1  UNL     1      -3.216   8.976   8.307  1.00  0.00     0.162 HD
BRANCH   3   5
HETATM    5  C2  UNL     1      -2.835   9.355   6.265  1.00  0.00     0.083 C 
HETATM    6  C3  UNL     1      -3.842  10.498   6.190  1.00  0.00     0.025 C 
HETATM    7  C4  UNL     1      -3.599  11.382   5.002  1.00  0.00     0.002 C 
HETATM    8  C5  UNL     1      -2.177  11.931   5.000  1.00  0.00     0.000 C 
HETATM    9  C6  UNL     1      -1.240  10.752   5.045  1.00  0.00     0.002 C 
HETATM   10  C7  UNL     1      -1.475  10.022   6.372  1.00  0.00     0.025 C 
ENDBRANCH   3   5
ENDBRANCH   2   3
BRANCH   2  11
HETATM   11  N2  UNL     1      -3.152   6.430   6.073  1.00  0.00    -0.363 N 
ATOM     12  H2  UNL     1      -3.846   6.471   5.326  1.00  0.00     0.162 HD
BRANCH  11  13
HETATM   13  C8  UNL     1      -1.954   5.658   5.846  1.00  0.00     0.083 C 
HETATM   14  C9  UNL     1      -2.228   4.246   6.199  1.00  0.00     0.025 C 
HETATM   15  C10 UNL     1      -1.105   3.443   6.735  1.00  0.00     0.002 C 
HETATM   16  C11 UNL     1      -0.610   4.201   7.978  1.00  0.00     0.000 C 
HETATM   17  C12 UNL     1       0.016   5.442   7.439  1.00  0.00     0.002 C 
HETATM   18  C13 UNL     1      -0.836   6.305   6.597  1.00  0.00     0.025 C 
ENDBRANCH  11  13
ENDBRANCH   2  11
TORSDOF 4
ENDMDL
