MODEL 1
REMARK VINA RESULT: -5.716443407      0.000      0.000
REMARK  3 active torsions:
REMARK  status: ('A' for Active; 'I' for Inactive)
REMARK    1  A    between atoms: C2_2  and  N1_5 
REMARK    2  A    between atoms: N1_5  and  C5_7 
REMARK    3  A    between atoms: C5_7  and  C6_11 
ROOT
HETATM    1  C6  UNL     1      -3.665   5.214   6.199  1.00  0.00     0.061 C 
HETATM    2  C7  UNL     1      -2.384   5.644   5.582  1.00  0.00    -0.002 C 
HETATM    3  C8  UNL     1      -1.427   6.346   6.501  1.00  0.00     0.010 C 
HETATM    4  C9  UNL     1      -1.145   5.511   7.728  1.00  0.00    -0.013 C 
HETATM    5  C10 UNL     1      -0.479   4.237   7.305  1.00  0.00     0.009 C 
HETATM    6  C11 UNL     1      -1.417   3.502   6.371  1.00  0.00    -0.013 C 
HETATM    7  C12 UNL     1      -1.669   4.337   5.159  1.00  0.00     0.010 C 
HETATM    8  C13 UNL     1      -2.679   3.199   7.124  1.00  0.00     0.010 C 
HETATM    9  C14 UNL     1      -3.367   4.517   7.503  1.00  0.00    -0.002 C 
HETATM   10  C15 UNL     1      -2.471   5.296   8.420  1.00  0.00     0.010 C 
ENDROOT
BRANCH   1  11
HETATM   11  C5  UNL     1      -4.694   6.237   6.298  1.00  0.00     0.076 C 
HETATM   12  N2  UNL     1      -5.809   5.962   6.857  1.00  0.00    -0.389 N 
ATOM     13  H22 UNL     1      -6.532   6.679   6.927  1.00  0.00     0.157 HD
ATOM     14  H21 UNL     1      -5.960   5.023   7.224  1.00  0.00     0.157 HD
BRANCH  11  15
HETATM   15  N1  UNL     1      -4.480   7.568   5.779  1.00  0.00    -0.372 N 
ATOM     16  H1  UNL     1      -4.420   7.686   4.767  1.00  0.00     0.161 HD
BRANCH  15  17
HETATM   17  C2  UNL     1      -4.348   8.722   6.597  1.00  0.00     0.020 C 
HETATM   18  C1  UNL     1      -3.263   9.631   6.022  1.00  0.00     0.037 C 
HETATM   19  C3  UNL     1      -5.630   9.529   6.552  1.00  0.00     0.037 C 
HETATM   20  C4  UNL     1      -4.087   8.418   8.051  1.00  0.00     0.037 C 
ENDBRANCH  15  17
ENDBRANCH  11  15
ENDBRANCH   1  11
TORSDOF 3
ENDMDL
MODEL 2
REMARK VINA RESULT: -5.691823436      2.634      4.380
REMARK  3 active torsions:
REMARK  status: ('A' for Active; 'I' for Inactive)
REMARK    1  A    between atoms: C2_2  and  N1_5 
REMARK    2  A    between atoms: N1_5  and  C5_7 
REMARK    3  A    between atoms: C5_7  and  C6_11 
ROOT
HETATM    1  C6  UNL     1      -1.887   7.329   7.231  1.00  0.00     0.061 C 
HETATM    2  C7  UNL     1      -3.353   7.566   7.270  1.00  0.00    -0.002 C 
HETATM    3  C8  UNL     1      -4.131   6.999   6.119  1.00  0.00     0.010 C 
HETATM    4  C9  UNL     1      -3.860   5.522   5.958  1.00  0.00    -0.013 C 
HETATM    5  C10 UNL     1      -4.329   4.806   7.188  1.00  0.00     0.009 C 
HETATM    6  C11 UNL     1      -3.566   5.356   8.374  1.00  0.00    -0.013 C 
HETATM    7  C12 UNL     1      -3.861   6.812   8.524  1.00  0.00     0.010 C 
HETATM    8  C13 UNL     1      -2.106   5.093   8.149  1.00  0.00     0.010 C 
HETATM    9  C14 UNL     1      -1.638   5.874   6.914  1.00  0.00    -0.002 C 
HETATM   10  C15 UNL     1      -2.377   5.378   5.706  1.00  0.00     0.010 C 
ENDROOT
BRANCH   1  11
HETATM   11  C5  UNL     1      -1.119   8.251   6.410  1.00  0.00     0.076 C 
HETATM   12  N2  UNL     1      -1.587   9.411   6.151  1.00  0.00    -0.389 N 
ATOM     13  H22 UNL     1      -1.048  10.058   5.575  1.00  0.00     0.157 HD
ATOM     14  H21 UNL     1      -2.499   9.671   6.526  1.00  0.00     0.157 HD
BRANCH  11  15
HETATM   15  N1  UNL     1       0.174   7.883   5.879  1.00  0.00    -0.372 N 
ATOM     16  H1  UNL     1       0.224   7.085   5.244  1.00  0.00     0.161 HD
BRANCH  15  17
HETATM   17  C2  UNL     1       1.378   8.567   6.191  1.00  0.00     0.020 C 
HETATM   18  C1  UNL     1       2.565   7.629   5.977  1.00  0.00     0.037 C 
HETATM   19  C3  UNL     1       1.579   9.715   5.224  1.00  0.00     0.037 C 
HETATM   20  C4  UNL     1       1.403   9.167   7.575  1.00  0.00     0.037 C 
ENDBRANCH  15  17
ENDBRANCH  11  15
ENDBRANCH   1  11
TORSDOF 3
ENDMDL
MODEL 3
REMARK VINA RESULT: -5.641872206      2.565      4.219
REMARK  3 active torsions:
REMARK  status: ('A' for Active; 'I' for Inactive)
REMARK    1  A    between atoms: C2_2  and  N1_5 
REMARK    2  A    between atoms: N1_5  and  C5_7 
REMARK    3  A    between atoms: C5_7  and  C6_11 
ROOT
HETATM    1  C6  UNL     1      -1.255   6.289   7.444  1.00  0.00     0.061 C 
HETATM    2  C7  UNL     1      -2.725   6.113   7.557  1.00  0.00    -0.002 C 
HETATM    3  C8  UNL     1      -3.363   5.291   6.476  1.00  0.00     0.010 C 
HETATM    4  C9  UNL     1      -2.698   3.940   6.360  1.00  0.00    -0.013 C 
HETATM    5  C10 UNL     1      -2.895   3.192   7.643  1.00  0.00     0.009 C 
HETATM    6  C11 UNL     1      -2.265   3.995   8.760  1.00  0.00    -0.013 C 
HETATM    7  C12 UNL     1      -2.948   5.319   8.867  1.00  0.00     0.010 C 
HETATM    8  C13 UNL     1      -0.801   4.135   8.464  1.00  0.00     0.010 C 
HETATM    9  C14 UNL     1      -0.624   4.946   7.174  1.00  0.00    -0.002 C 
HETATM   10  C15 UNL     1      -1.246   4.199   6.031  1.00  0.00     0.010 C 
ENDROOT
BRANCH   1  11
HETATM   11  C5  UNL     1      -0.810   7.341   6.544  1.00  0.00     0.076 C 
HETATM   12  N2  UNL     1      -1.579   8.331   6.296  1.00  0.00    -0.389 N 
ATOM     13  H22 UNL     1      -1.267   9.070   5.665  1.00  0.00     0.157 HD
ATOM     14  H21 UNL     1      -2.498   8.365   6.736  1.00  0.00     0.157 HD
BRANCH  11  15
HETATM   15  N1  UNL     1       0.494   7.294   5.922  1.00  0.00    -0.372 N 
ATOM     16  H1  UNL     1       0.681   6.544   5.255  1.00  0.00     0.161 HD
BRANCH  15  17
HETATM   17  C2  UNL     1       1.528   8.230   6.185  1.00  0.00     0.020 C 
HETATM   18  C1  UNL     1       2.884   7.543   6.039  1.00  0.00     0.037 C 
HETATM   19  C3  UNL     1       1.505   9.325   5.138  1.00  0.00     0.037 C 
HETATM   20  C4  UNL     1       1.408   8.918   7.523  1.00  0.00     0.037 C 
ENDBRANCH  15  17
ENDBRANCH  11  15
ENDBRANCH   1  11
TORSDOF 3
ENDMDL
MODEL 4
REMARK VINA RESULT: -5.636368231      2.367      4.013
REMARK  3 active torsions:
REMARK  status: ('A' for Active; 'I' for Inactive)
REMARK    1  A    between atoms: C2_2  and  N1_5 
REMARK    2  A    between atoms: N1_5  and  C5_7 
REMARK    3  A    between atoms: C5_7  and  C6_11 
ROOT
HETATM    1  C6  UNL     1      -2.849   3.929   7.203  1.00  0.00     0.061 C 
HETATM    2  C7  UNL     1      -3.161   4.741   5.999  1.00  0.00    -0.002 C 
HETATM    3  C8  UNL     1      -3.951   5.992   6.249  1.00  0.00     0.010 C 
HETATM    4  C9  UNL     1      -3.275   6.860   7.284  1.00  0.00    -0.013 C 
HETATM    5  C10 UNL     1      -1.940   7.291   6.759  1.00  0.00     0.009 C 
HETATM    6  C11 UNL     1      -1.115   6.051   6.491  1.00  0.00    -0.013 C 
HETATM    7  C12 UNL     1      -1.792   5.217   5.454  1.00  0.00     0.010 C 
HETATM    8  C13 UNL     1      -0.946   5.316   7.788  1.00  0.00     0.010 C 
HETATM    9  C14 UNL     1      -2.319   4.843   8.281  1.00  0.00    -0.002 C 
HETATM   10  C15 UNL     1      -3.187   6.037   8.549  1.00  0.00     0.010 C 
ENDROOT
BRANCH   1  11
HETATM   11  C5  UNL     1      -3.902   3.034   7.654  1.00  0.00     0.076 C 
HETATM   12  N2  UNL     1      -3.814   2.477   8.800  1.00  0.00    -0.389 N 
ATOM     13  H22 UNL     1      -4.553   1.849   9.117  1.00  0.00     0.157 HD
ATOM     14  H21 UNL     1      -2.998   2.669   9.381  1.00  0.00     0.157 HD
BRANCH  11  15
HETATM   15  N1  UNL     1      -5.058   2.762   6.830  1.00  0.00    -0.372 N 
ATOM     16  H1  UNL     1      -4.919   2.241   5.963  1.00  0.00     0.161 HD
BRANCH  15  17
HETATM   17  C2  UNL     1      -6.376   3.179   7.157  1.00  0.00     0.020 C 
HETATM   18  C1  UNL     1      -7.059   3.732   5.908  1.00  0.00     0.037 C 
HETATM   19  C3  UNL     1      -7.200   1.980   7.583  1.00  0.00     0.037 C 
HETATM   20  C4  UNL     1      -6.443   4.167   8.295  1.00  0.00     0.037 C 
ENDBRANCH  15  17
ENDBRANCH  11  15
ENDBRANCH   1  11
TORSDOF 3
ENDMDL
MODEL 5
REMARK VINA RESULT: -5.634400008      2.265      3.734
REMARK  3 active torsions:
REMARK  status: ('A' for Active; 'I' for Inactive)
REMARK    1  A    between atoms: C2_2  and  N1_5 
REMARK    2  A    between atoms: N1_5  and  C5_7 
REMARK    3  A    between atoms: C5_7  and  C6_11 
ROOT
HETATM    1  C6  UNL     1      -2.316   7.661   6.147  1.00  0.00     0.061 C 
HETATM    2  C7  UNL     1      -1.930   6.276   6.520  1.00  0.00    -0.002 C 
HETATM    3  C8  UNL     1      -2.149   5.909   7.959  1.00  0.00     0.010 C 
HETATM    4  C9  UNL     1      -3.580   6.166   8.370  1.00  0.00    -0.013 C 
HETATM    5  C10 UNL     1      -4.483   5.287   7.559  1.00  0.00     0.009 C 
HETATM    6  C11 UNL     1      -4.286   5.628   6.098  1.00  0.00    -0.013 C 
HETATM    7  C12 UNL     1      -2.870   5.352   5.709  1.00  0.00     0.010 C 
HETATM    8  C13 UNL     1      -4.656   7.069   5.903  1.00  0.00     0.010 C 
HETATM    9  C14 UNL     1      -3.689   7.950   6.703  1.00  0.00    -0.002 C 
HETATM   10  C15 UNL     1      -3.832   7.642   8.164  1.00  0.00     0.010 C 
ENDROOT
BRANCH   1  11
HETATM   11  C5  UNL     1      -1.333   8.692   6.438  1.00  0.00     0.076 C 
HETATM   12  N2  UNL     1      -0.130   8.362   6.717  1.00  0.00    -0.389 N 
ATOM     13  H22 UNL     1       0.560   9.086   6.921  1.00  0.00     0.157 HD
ATOM     14  H21 UNL     1       0.120   7.374   6.732  1.00  0.00     0.157 HD
BRANCH  11  15
HETATM   15  N1  UNL     1      -1.687  10.093   6.416  1.00  0.00    -0.372 N 
ATOM     16  H1  UNL     1      -1.995  10.526   7.288  1.00  0.00     0.161 HD
BRANCH  15  17
HETATM   17  C2  UNL     1      -1.632  10.902   5.250  1.00  0.00     0.020 C 
HETATM   18  C1  UNL     1      -2.941  10.765   4.474  1.00  0.00     0.037 C 
HETATM   19  C3  UNL     1      -1.537  12.362   5.645  1.00  0.00     0.037 C 
HETATM   20  C4  UNL     1      -0.444  10.622   4.364  1.00  0.00     0.037 C 
ENDBRANCH  15  17
ENDBRANCH  11  15
ENDBRANCH   1  11
TORSDOF 3
ENDMDL
