MODEL 1
REMARK VINA RESULT: -7.802049740      0.000      0.000
REMARK  8 active torsions:
REMARK  status: ('A' for Active; 'I' for Inactive)
REMARK       I    between atoms: C1_2  and  N1_3 
REMARK    1  A    between atoms: C1_2  and  C18_24 
REMARK    2  A    between atoms: N1_3  and  C2_5 
REMARK    3  A    between atoms: C2_5  and  C3_6 
REMARK    4  A    between atoms: C3_6  and  C4_7 
REMARK    5  A    between atoms: C4_7  and  C5_8 
REMARK    6  A    between atoms: C5_8  and  C6_9 
REMARK    7  A    between atoms: C6_9  and  N2_10 
REMARK       I    between atoms: N2_10  and  C7_12 
REMARK    8  A    between atoms: C7_12  and  C8_14 
ROOT
HETATM    1  N2  UNL     1      54.000  12.639   3.050  1.00  0.00    -0.360 N 
ATOM      2  H2  UNL     1      54.538  13.420   3.426  1.00  0.00     0.162 HD
HETATM    3  C7  UNL     1      53.208  12.856   1.890  1.00  0.00     0.226 C 
HETATM    4  O2  UNL     1      52.513  11.993   1.343  1.00  0.00    -0.273 OA
ENDROOT
BRANCH   1   5
HETATM    5  C6  UNL     1      54.078  11.372   3.713  1.00  0.00     0.122 C 
BRANCH   5   6
HETATM    6  C5  UNL     1      55.398  11.219   4.423  1.00  0.00     0.020 C 
BRANCH   6   7
HETATM    7  C4  UNL     1      56.442  11.996   3.658  1.00  0.00     0.003 C 
BRANCH   7   8
HETATM    8  C3  UNL     1      57.102  11.185   2.587  1.00  0.00     0.020 C 
BRANCH   8   9
HETATM    9  C2  UNL     1      56.629  11.538   1.191  1.00  0.00     0.122 C 
BRANCH   9  10
HETATM   10  N1  UNL     1      55.806  10.454   0.685  1.00  0.00    -0.361 N 
HETATM   11  C1  UNL     1      55.026  10.625  -0.482  1.00  0.00     0.221 C 
HETATM   12  O1  UNL     1      55.052  11.726  -1.076  1.00  0.00    -0.273 OA
ATOM     13  H1  UNL     1      55.791   9.560   1.175  1.00  0.00     0.162 HD
BRANCH  11  14
HETATM   14  C18 UNL     1      54.184   9.551  -1.021  1.00  0.00     0.078 C 
HETATM   15  C19 UNL     1      54.498   9.168  -2.467  1.00  0.00     0.014 C 
HETATM   16  C20 UNL     1      54.294   7.725  -2.053  1.00  0.00     0.002 C 
HETATM   17  C21 UNL     1      54.624   8.145  -0.635  1.00  0.00     0.014 C 
ENDBRANCH  11  14
ENDBRANCH   9  10
ENDBRANCH   8   9
ENDBRANCH   7   8
ENDBRANCH   6   7
ENDBRANCH   5   6
ENDBRANCH   1   5
BRANCH   3  18
HETATM   18  C8  UNL     1      53.236  14.240   1.308  1.00  0.00     0.042 C 
HETATM   19  C9  UNL     1      54.660  14.702   1.089  1.00  0.00     0.024 C 
HETATM   20  C10 UNL     1      54.601  16.087   0.505  1.00  0.00    -0.013 C 
HETATM   21  C11 UNL     1      53.915  16.026  -0.829  1.00  0.00     0.009 C 
HETATM   22  C15 UNL     1      53.823  17.044   1.386  1.00  0.00     0.009 C 
HETATM   23  C12 UNL     1      52.492  15.542  -0.640  1.00  0.00    -0.013 C 
HETATM   24  C13 UNL     1      51.710  16.434   0.267  1.00  0.00     0.009 C 
HETATM   25  C17 UNL     1      52.576  14.143  -0.061  1.00  0.00     0.024 C 
HETATM   26  C14 UNL     1      52.419  16.547   1.596  1.00  0.00    -0.013 C 
HETATM   27  C16 UNL     1      52.502  15.177   2.213  1.00  0.00     0.024 C 
ENDBRANCH   3  18
TORSDOF 8
ENDMDL
MODEL 2
REMARK VINA RESULT: -7.764652165      1.771      4.805
REMARK  8 active torsions:
REMARK  status: ('A' for Active; 'I' for Inactive)
REMARK       I    between atoms: C1_2  and  N1_3 
REMARK    1  A    between atoms: C1_2  and  C18_24 
REMARK    2  A    between atoms: N1_3  and  C2_5 
REMARK    3  A    between atoms: C2_5  and  C3_6 
REMARK    4  A    between atoms: C3_6  and  C4_7 
REMARK    5  A    between atoms: C4_7  and  C5_8 
REMARK    6  A    between atoms: C5_8  and  C6_9 
REMARK    7  A    between atoms: C6_9  and  N2_10 
REMARK       I    between atoms: N2_10  and  C7_12 
REMARK    8  A    between atoms: C7_12  and  C8_14 
ROOT
HETATM    1  N2  UNL     1      52.939  14.085   2.256  1.00  0.00    -0.360 N 
ATOM      2  H2  UNL     1      52.542  13.426   2.926  1.00  0.00     0.162 HD
HETATM    3  C7  UNL     1      54.276  13.885   1.818  1.00  0.00     0.226 C 
HETATM    4  O2  UNL     1      54.869  14.613   1.014  1.00  0.00    -0.273 OA
ENDROOT
BRANCH   1   5
HETATM    5  C6  UNL     1      52.125  15.170   1.799  1.00  0.00     0.122 C 
BRANCH   5   6
HETATM    6  C5  UNL     1      51.287  14.752   0.619  1.00  0.00     0.020 C 
BRANCH   6   7
HETATM    7  C4  UNL     1      50.565  13.475   0.978  1.00  0.00     0.003 C 
BRANCH   7   8
HETATM    8  C3  UNL     1      50.866  12.352   0.036  1.00  0.00     0.020 C 
BRANCH   8   9
HETATM    9  C2  UNL     1      52.134  12.567  -0.766  1.00  0.00     0.122 C 
BRANCH   9  10
HETATM   10  N1  UNL     1      52.732  11.276  -1.057  1.00  0.00    -0.361 N 
HETATM   11  C1  UNL     1      54.115  11.168  -1.332  1.00  0.00     0.221 C 
HETATM   12  O1  UNL     1      54.821  12.200  -1.322  1.00  0.00    -0.273 OA
ATOM     13  H1  UNL     1      52.149  10.440  -1.063  1.00  0.00     0.162 HD
BRANCH  11  14
HETATM   14  C18 UNL     1      54.751   9.879  -1.629  1.00  0.00     0.078 C 
HETATM   15  C19 UNL     1      54.277   8.722  -0.751  1.00  0.00     0.014 C 
HETATM   16  C20 UNL     1      54.302   7.860  -1.996  1.00  0.00     0.002 C 
HETATM   17  C21 UNL     1      54.144   9.129  -2.808  1.00  0.00     0.014 C 
ENDBRANCH  11  14
ENDBRANCH   9  10
ENDBRANCH   8   9
ENDBRANCH   7   8
ENDBRANCH   6   7
ENDBRANCH   5   6
ENDBRANCH   1   5
BRANCH   3  18
HETATM   18  C8  UNL     1      54.998  12.697   2.387  1.00  0.00     0.042 C 
HETATM   19  C9  UNL     1      55.235  12.871   3.871  1.00  0.00     0.024 C 
HETATM   20  C10 UNL     1      55.955  11.645   4.361  1.00  0.00    -0.013 C 
HETATM   21  C11 UNL     1      55.071  10.448   4.164  1.00  0.00     0.009 C 
HETATM   22  C15 UNL     1      57.246  11.403   3.605  1.00  0.00     0.009 C 
HETATM   23  C12 UNL     1      54.798  10.264   2.685  1.00  0.00    -0.013 C 
HETATM   24  C13 UNL     1      56.054  10.075   1.900  1.00  0.00     0.009 C 
HETATM   25  C17 UNL     1      54.064  11.505   2.216  1.00  0.00     0.024 C 
HETATM   26  C14 UNL     1      56.975  11.248   2.133  1.00  0.00    -0.013 C 
HETATM   27  C16 UNL     1      56.287  12.500   1.658  1.00  0.00     0.024 C 
ENDBRANCH   3  18
TORSDOF 8
ENDMDL
MODEL 3
REMARK VINA RESULT: -7.613083415      1.445      4.190
REMARK  8 active torsions:
REMARK  status: ('A' for Active; 'I' for Inactive)
REMARK       I    between atoms: C1_2  and  N1_3 
REMARK    1  A    between atoms: C1_2  and  C18_24 
REMARK    2  A    between atoms: N1_3  and  C2_5 
REMARK    3  A    between atoms: C2_5  and  C3_6 
REMARK    4  A    between atoms: C3_6  and  C4_7 
REMARK    5  A    between atoms: C4_7  and  C5_8 
REMARK    6  A    between atoms: C5_8  and  C6_9 
REMARK    7  A    between atoms: C6_9  and  N2_10 
REMARK       I    between atoms: N2_10  and  C7_12 
REMARK    8  A    between atoms: C7_12  and  C8_14 
ROOT
HETATM    1  N2  UNL     1      53.840  11.468  -1.489  1.00  0.00    -0.360 N 
ATOM      2  H2  UNL     1      54.790  11.732  -1.228  1.00  0.00     0.162 HD
HETATM    3  C7  UNL     1      52.759  12.244  -0.989  1.00  0.00     0.226 C 
HETATM    4  O2  UNL     1      51.567  12.024  -1.229  1.00  0.00    -0.273 OA
ENDROOT
BRANCH   1   5
HETATM    5  C6  UNL     1      53.654  10.333  -2.341  1.00  0.00     0.122 C 
BRANCH   5   6
HETATM    6  C5  UNL     1      54.793   9.358  -2.193  1.00  0.00     0.020 C 
BRANCH   6   7
HETATM    7  C4  UNL     1      54.371   8.281  -1.222  1.00  0.00     0.003 C 
BRANCH   7   8
HETATM    8  C3  UNL     1      54.936   8.480   0.149  1.00  0.00     0.020 C 
BRANCH   8   9
HETATM    9  C2  UNL     1      54.065   9.346   1.036  1.00  0.00     0.122 C 
BRANCH   9  10
HETATM   10  N1  UNL     1      54.891   9.943   2.070  1.00  0.00    -0.361 N 
HETATM   11  C1  UNL     1      55.877  10.901   1.742  1.00  0.00     0.221 C 
HETATM   12  O1  UNL     1      56.032  11.232   0.545  1.00  0.00    -0.273 OA
ATOM     13  H1  UNL     1      54.759   9.668   3.043  1.00  0.00     0.162 HD
BRANCH  11  14
HETATM   14  C18 UNL     1      56.729  11.524   2.762  1.00  0.00     0.078 C 
HETATM   15  C19 UNL     1      56.283  11.266   4.201  1.00  0.00     0.014 C 
HETATM   16  C20 UNL     1      57.748  11.097   4.549  1.00  0.00     0.002 C 
HETATM   17  C21 UNL     1      57.993  10.742   3.097  1.00  0.00     0.014 C 
ENDBRANCH  11  14
ENDBRANCH   9  10
ENDBRANCH   8   9
ENDBRANCH   7   8
ENDBRANCH   6   7
ENDBRANCH   5   6
ENDBRANCH   1   5
BRANCH   3  18
HETATM   18  C8  UNL     1      53.118  13.407  -0.109  1.00  0.00     0.042 C 
HETATM   19  C9  UNL     1      53.118  12.999   1.348  1.00  0.00     0.024 C 
HETATM   20  C10 UNL     1      53.488  14.212   2.157  1.00  0.00    -0.013 C 
HETATM   21  C11 UNL     1      54.879  14.639   1.788  1.00  0.00     0.009 C 
HETATM   22  C15 UNL     1      52.555  15.378   1.894  1.00  0.00     0.009 C 
HETATM   23  C12 UNL     1      54.912  15.031   0.325  1.00  0.00    -0.013 C 
HETATM   24  C13 UNL     1      53.965  16.144   0.018  1.00  0.00     0.009 C 
HETATM   25  C17 UNL     1      54.547  13.793  -0.471  1.00  0.00     0.024 C 
HETATM   26  C14 UNL     1      52.569  15.746   0.436  1.00  0.00    -0.013 C 
HETATM   27  C16 UNL     1      52.162  14.530  -0.351  1.00  0.00     0.024 C 
ENDBRANCH   3  18
TORSDOF 8
ENDMDL
MODEL 4
REMARK VINA RESULT: -7.522981709      1.431      4.422
REMARK  8 active torsions:
REMARK  status: ('A' for Active; 'I' for Inactive)
REMARK       I    between atoms: C1_2  and  N1_3 
REMARK    1  A    between atoms: C1_2  and  C18_24 
REMARK    2  A    between atoms: N1_3  and  C2_5 
REMARK    3  A    between atoms: C2_5  and  C3_6 
REMARK    4  A    between atoms: C3_6  and  C4_7 
REMARK    5  A    between atoms: C4_7  and  C5_8 
REMARK    6  A    between atoms: C5_8  and  C6_9 
REMARK    7  A    between atoms: C6_9  and  N2_10 
REMARK       I    between atoms: N2_10  and  C7_12 
REMARK    8  A    between atoms: C7_12  and  C8_14 
ROOT
HETATM    1  N2  UNL     1      54.550  12.130  -1.128  1.00  0.00    -0.360 N 
ATOM      2  H2  UNL     1      53.551  12.314  -1.223  1.00  0.00     0.162 HD
HETATM    3  C7  UNL     1      55.394  13.184  -0.684  1.00  0.00     0.226 C 
HETATM    4  O2  UNL     1      56.617  13.088  -0.533  1.00  0.00    -0.273 OA
ENDROOT
BRANCH   1   5
HETATM    5  C6  UNL     1      55.039  10.823  -1.447  1.00  0.00     0.122 C 
BRANCH   5   6
HETATM    6  C5  UNL     1      53.907   9.834  -1.537  1.00  0.00     0.020 C 
BRANCH   6   7
HETATM    7  C4  UNL     1      54.463   8.452  -1.285  1.00  0.00     0.003 C 
BRANCH   7   8
HETATM    8  C3  UNL     1      54.981   8.278   0.108  1.00  0.00     0.020 C 
BRANCH   8   9
HETATM    9  C2  UNL     1      54.243   9.118   1.130  1.00  0.00     0.122 C 
BRANCH   9  10
HETATM   10  N1  UNL     1      55.213   9.800   1.968  1.00  0.00    -0.361 N 
HETATM   11  C1  UNL     1      54.992  11.132   2.389  1.00  0.00     0.221 C 
HETATM   12  O1  UNL     1      53.948  11.720   2.030  1.00  0.00    -0.273 OA
ATOM     13  H1  UNL     1      56.061   9.314   2.256  1.00  0.00     0.162 HD
BRANCH  11  14
HETATM   14  C18 UNL     1      55.951  11.851   3.237  1.00  0.00     0.078 C 
HETATM   15  C19 UNL     1      55.762  11.624   4.736  1.00  0.00     0.014 C 
HETATM   16  C20 UNL     1      57.272  11.566   4.845  1.00  0.00     0.002 C 
HETATM   17  C21 UNL     1      57.305  11.166   3.385  1.00  0.00     0.014 C 
ENDBRANCH  11  14
ENDBRANCH   9  10
ENDBRANCH   8   9
ENDBRANCH   7   8
ENDBRANCH   6   7
ENDBRANCH   5   6
ENDBRANCH   1   5
BRANCH   3  18
HETATM   18  C8  UNL     1      54.729  14.497  -0.385  1.00  0.00     0.042 C 
HETATM   19  C9  UNL     1      53.230  14.326  -0.273  1.00  0.00     0.024 C 
HETATM   20  C10 UNL     1      52.642  15.677   0.029  1.00  0.00    -0.013 C 
HETATM   21  C11 UNL     1      53.162  16.150   1.355  1.00  0.00     0.009 C 
HETATM   22  C15 UNL     1      53.019  16.708  -1.016  1.00  0.00     0.009 C 
HETATM   23  C12 UNL     1      54.667  16.307   1.278  1.00  0.00    -0.013 C 
HETATM   24  C13 UNL     1      55.078  17.279   0.220  1.00  0.00     0.009 C 
HETATM   25  C17 UNL     1      55.237  14.934   0.983  1.00  0.00     0.024 C 
HETATM   26  C14 UNL     1      54.514  16.842  -1.111  1.00  0.00    -0.013 C 
HETATM   27  C16 UNL     1      55.077  15.487  -1.449  1.00  0.00     0.024 C 
ENDBRANCH   3  18
TORSDOF 8
ENDMDL
MODEL 5
REMARK VINA RESULT: -7.486340819      1.199      2.040
REMARK  8 active torsions:
REMARK  status: ('A' for Active; 'I' for Inactive)
REMARK       I    between atoms: C1_2  and  N1_3 
REMARK    1  A    between atoms: C1_2  and  C18_24 
REMARK    2  A    between atoms: N1_3  and  C2_5 
REMARK    3  A    between atoms: C2_5  and  C3_6 
REMARK    4  A    between atoms: C3_6  and  C4_7 
REMARK    5  A    between atoms: C4_7  and  C5_8 
REMARK    6  A    between atoms: C5_8  and  C6_9 
REMARK    7  A    between atoms: C6_9  and  N2_10 
REMARK       I    between atoms: N2_10  and  C7_12 
REMARK    8  A    between atoms: C7_12  and  C8_14 
ROOT
HETATM    1  N2  UNL     1      53.797  13.490   1.710  1.00  0.00    -0.360 N 
ATOM      2  H2  UNL     1      54.514  13.351   0.998  1.00  0.00     0.162 HD
HETATM    3  C7  UNL     1      53.192  14.771   1.823  1.00  0.00     0.226 C 
HETATM    4  O2  UNL     1      52.316  15.063   2.645  1.00  0.00    -0.273 OA
ENDROOT
BRANCH   1   5
HETATM    5  C6  UNL     1      53.445  12.385   2.550  1.00  0.00     0.122 C 
BRANCH   5   6
HETATM    6  C5  UNL     1      54.419  12.247   3.691  1.00  0.00     0.020 C 
BRANCH   6   7
HETATM    7  C4  UNL     1      55.334  11.082   3.396  1.00  0.00     0.003 C 
BRANCH   7   8
HETATM    8  C3  UNL     1      56.665  11.508   2.862  1.00  0.00     0.020 C 
BRANCH   8   9
HETATM    9  C2  UNL     1      56.723  11.532   1.347  1.00  0.00     0.122 C 
BRANCH   9  10
HETATM   10  N1  UNL     1      55.918  10.442   0.828  1.00  0.00    -0.361 N 
HETATM   11  C1  UNL     1      55.024  10.654  -0.247  1.00  0.00     0.221 C 
HETATM   12  O1  UNL     1      54.933  11.797  -0.748  1.00  0.00    -0.273 OA
ATOM     13  H1  UNL     1      55.998   9.513   1.241  1.00  0.00     0.162 HD
BRANCH  11  14
HETATM   14  C18 UNL     1      54.195   9.574  -0.797  1.00  0.00     0.078 C 
HETATM   15  C19 UNL     1      54.506   9.218  -2.250  1.00  0.00     0.014 C 
HETATM   16  C20 UNL     1      54.329   7.766  -1.857  1.00  0.00     0.002 C 
HETATM   17  C21 UNL     1      54.662   8.169  -0.435  1.00  0.00     0.014 C 
ENDBRANCH  11  14
ENDBRANCH   9  10
ENDBRANCH   8   9
ENDBRANCH   7   8
ENDBRANCH   6   7
ENDBRANCH   5   6
ENDBRANCH   1   5
BRANCH   3  18
HETATM   18  C8  UNL     1      53.666  15.824   0.864  1.00  0.00     0.042 C 
HETATM   19  C9  UNL     1      53.613  17.195   1.502  1.00  0.00     0.024 C 
HETATM   20  C10 UNL     1      54.104  18.187   0.484  1.00  0.00    -0.013 C 
HETATM   21  C11 UNL     1      55.535  17.878   0.151  1.00  0.00     0.009 C 
HETATM   22  C15 UNL     1      53.302  18.128  -0.801  1.00  0.00     0.009 C 
HETATM   23  C12 UNL     1      55.620  16.498  -0.469  1.00  0.00    -0.013 C 
HETATM   24  C13 UNL     1      54.797  16.388  -1.711  1.00  0.00     0.009 C 
HETATM   25  C17 UNL     1      55.130  15.515   0.577  1.00  0.00     0.024 C 
HETATM   26  C14 UNL     1      53.365  16.750  -1.400  1.00  0.00    -0.013 C 
HETATM   27  C16 UNL     1      52.836  15.779  -0.378  1.00  0.00     0.024 C 
ENDBRANCH   3  18
TORSDOF 8
ENDMDL
