MODEL 1
REMARK VINA RESULT: -7.203302659      0.000      0.000
REMARK  9 active torsions:
REMARK  status: ('A' for Active; 'I' for Inactive)
REMARK    1  A    between atoms: C3_3  and  C4_4 
REMARK    2  A    between atoms: C4_4  and  C5_5 
REMARK       I    between atoms: C5_5  and  N1_7 
REMARK    3  A    between atoms: N1_7  and  C6_9 
REMARK    4  A    between atoms: C6_9  and  C7_10 
REMARK    5  A    between atoms: C7_10  and  C8_11 
REMARK    6  A    between atoms: C8_11  and  C9_12 
REMARK    7  A    between atoms: C9_12  and  C10_13 
REMARK    8  A    between atoms: C10_13  and  N2_15 
REMARK    9  A    between atoms: N2_15  and  C11_17 
ROOT
HETATM    1  C10 UNL     1      54.627  14.954   0.779  1.00  0.00     0.074 C 
HETATM    2  S1  UNL     1      55.079  15.150  -0.767  1.00  0.00    -0.066 SA
ENDROOT
BRANCH   1   3
HETATM    3  C9  UNL     1      53.253  15.429   1.200  1.00  0.00     0.073 C 
BRANCH   3   4
HETATM    4  C8  UNL     1      52.247  14.896   0.189  1.00  0.00     0.035 C 
BRANCH   4   5
HETATM    5  C7  UNL     1      51.793  13.526   0.434  1.00  0.00    -0.009 C 
BRANCH   5   6
HETATM    6  C6  UNL     1      51.833  12.481  -0.597  1.00  0.00     0.087 C 
BRANCH   6   7
HETATM    7  N1  UNL     1      52.922  11.593  -0.702  1.00  0.00    -0.337 N 
HETATM    8  C5  UNL     1      53.452  10.896  -1.780  1.00  0.00     0.224 C 
HETATM    9  O1  UNL     1      53.059  10.893  -2.957  1.00  0.00    -0.273 OA
ATOM     10  H1  UNL     1      53.413  11.432   0.177  1.00  0.00     0.168 HD
BRANCH   8  11
HETATM   11  C4  UNL     1      54.668  10.017  -1.529  1.00  0.00     0.130 C 
BRANCH  11  12
HETATM   12  C3  UNL     1      54.656   8.913  -2.509  1.00  0.00    -0.022 C 
HETATM   13  C2  UNL     1      54.338   7.702  -2.106  1.00  0.00    -0.034 C 
HETATM   14  C1  UNL     1      54.311   6.542  -3.057  1.00  0.00     0.036 C 
ENDBRANCH  11  12
ENDBRANCH   8  11
ENDBRANCH   6   7
ENDBRANCH   5   6
ENDBRANCH   4   5
ENDBRANCH   3   4
ENDBRANCH   1   3
BRANCH   1  15
HETATM   15  N2  UNL     1      55.505  14.354   1.703  1.00  0.00    -0.375 N 
ATOM     16  H2  UNL     1      56.189  14.979   2.126  1.00  0.00     0.161 HD
BRANCH  15  17
HETATM   17  C11 UNL     1      55.572  13.000   2.130  1.00  0.00     0.032 C 
HETATM   18  C12 UNL     1      56.072  12.094   1.036  1.00  0.00     0.035 C 
HETATM   19  C13 UNL     1      56.299  10.701   1.588  1.00  0.00    -0.012 C 
HETATM   20  C14 UNL     1      54.969  10.162   2.045  1.00  0.00     0.009 C 
HETATM   21  C18 UNL     1      57.292  10.671   2.707  1.00  0.00     0.009 C 
HETATM   22  C15 UNL     1      54.484  11.034   3.178  1.00  0.00    -0.012 C 
HETATM   23  C16 UNL     1      55.451  11.040   4.321  1.00  0.00     0.009 C 
HETATM   24  C20 UNL     1      54.272  12.447   2.674  1.00  0.00     0.035 C 
HETATM   25  C17 UNL     1      56.787  11.584   3.801  1.00  0.00    -0.012 C 
HETATM   26  C19 UNL     1      56.553  12.972   3.322  1.00  0.00     0.035 C 
ENDBRANCH  15  17
ENDBRANCH   1  15
TORSDOF 9
ENDMDL
MODEL 2
REMARK VINA RESULT: -6.744771854      2.336      5.808
REMARK  9 active torsions:
REMARK  status: ('A' for Active; 'I' for Inactive)
REMARK    1  A    between atoms: C3_3  and  C4_4 
REMARK    2  A    between atoms: C4_4  and  C5_5 
REMARK       I    between atoms: C5_5  and  N1_7 
REMARK    3  A    between atoms: N1_7  and  C6_9 
REMARK    4  A    between atoms: C6_9  and  C7_10 
REMARK    5  A    between atoms: C7_10  and  C8_11 
REMARK    6  A    between atoms: C8_11  and  C9_12 
REMARK    7  A    between atoms: C9_12  and  C10_13 
REMARK    8  A    between atoms: C10_13  and  N2_15 
REMARK    9  A    between atoms: N2_15  and  C11_17 
ROOT
HETATM    1  C10 UNL     1      53.726  10.506  -1.965  1.00  0.00     0.074 C 
HETATM    2  S1  UNL     1      53.586  10.153  -3.542  1.00  0.00    -0.066 SA
ENDROOT
BRANCH   1   3
HETATM    3  C9  UNL     1      54.981  10.081  -1.233  1.00  0.00     0.073 C 
BRANCH   3   4
HETATM    4  C8  UNL     1      54.757   8.671  -0.707  1.00  0.00     0.035 C 
BRANCH   4   5
HETATM    5  C7  UNL     1      54.631   8.568   0.748  1.00  0.00    -0.009 C 
BRANCH   5   6
HETATM    6  C6  UNL     1      54.775   9.726   1.641  1.00  0.00     0.087 C 
BRANCH   6   7
HETATM    7  N1  UNL     1      55.990  10.002   2.298  1.00  0.00    -0.337 N 
HETATM    8  C5  UNL     1      57.015  10.897   2.021  1.00  0.00     0.224 C 
HETATM    9  O1  UNL     1      57.098  11.695   1.074  1.00  0.00    -0.273 OA
ATOM     10  H1  UNL     1      56.147   9.438   3.134  1.00  0.00     0.168 HD
BRANCH   8  11
HETATM   11  C4  UNL     1      58.201  10.937   2.971  1.00  0.00     0.130 C 
BRANCH  11  12
HETATM   12  C3  UNL     1      57.691  10.965   4.356  1.00  0.00    -0.022 C 
HETATM   13  C2  UNL     1      57.058  12.037   4.783  1.00  0.00    -0.034 C 
HETATM   14  C1  UNL     1      56.518  12.122   6.180  1.00  0.00     0.036 C 
ENDBRANCH  11  12
ENDBRANCH   8  11
ENDBRANCH   6   7
ENDBRANCH   5   6
ENDBRANCH   4   5
ENDBRANCH   3   4
ENDBRANCH   1   3
BRANCH   1  15
HETATM   15  N2  UNL     1      52.693  11.196  -1.299  1.00  0.00    -0.375 N 
ATOM     16  H2  UNL     1      51.748  10.873  -1.504  1.00  0.00     0.161 HD
BRANCH  15  17
HETATM   17  C11 UNL     1      52.781  12.277  -0.381  1.00  0.00     0.032 C 
HETATM   18  C12 UNL     1      52.574  11.822   1.039  1.00  0.00     0.035 C 
HETATM   19  C13 UNL     1      52.854  12.967   1.991  1.00  0.00    -0.012 C 
HETATM   20  C14 UNL     1      51.849  14.054   1.717  1.00  0.00     0.009 C 
HETATM   21  C18 UNL     1      54.249  13.496   1.872  1.00  0.00     0.009 C 
HETATM   22  C15 UNL     1      52.084  14.553   0.311  1.00  0.00    -0.012 C 
HETATM   23  C16 UNL     1      53.471  15.089   0.142  1.00  0.00     0.009 C 
HETATM   24  C20 UNL     1      51.842  13.427  -0.674  1.00  0.00     0.035 C 
HETATM   25  C17 UNL     1      54.453  13.950   0.444  1.00  0.00    -0.012 C 
HETATM   26  C19 UNL     1      54.200  12.864  -0.540  1.00  0.00     0.035 C 
ENDBRANCH  15  17
ENDBRANCH   1  15
TORSDOF 9
ENDMDL
MODEL 3
REMARK VINA RESULT: -6.568878727      1.985      4.953
REMARK  9 active torsions:
REMARK  status: ('A' for Active; 'I' for Inactive)
REMARK    1  A    between atoms: C3_3  and  C4_4 
REMARK    2  A    between atoms: C4_4  and  C5_5 
REMARK       I    between atoms: C5_5  and  N1_7 
REMARK    3  A    between atoms: N1_7  and  C6_9 
REMARK    4  A    between atoms: C6_9  and  C7_10 
REMARK    5  A    between atoms: C7_10  and  C8_11 
REMARK    6  A    between atoms: C8_11  and  C9_12 
REMARK    7  A    between atoms: C9_12  and  C10_13 
REMARK    8  A    between atoms: C10_13  and  N2_15 
REMARK    9  A    between atoms: N2_15  and  C11_17 
ROOT
HETATM    1  C10 UNL     1      54.710  14.319  -0.205  1.00  0.00     0.074 C 
HETATM    2  S1  UNL     1      55.320  15.717  -0.759  1.00  0.00    -0.066 SA
ENDROOT
BRANCH   1   3
HETATM    3  C9  UNL     1      55.375  13.023  -0.613  1.00  0.00     0.073 C 
BRANCH   3   4
HETATM    4  C8  UNL     1      56.560  12.796   0.315  1.00  0.00     0.035 C 
BRANCH   4   5
HETATM    5  C7  UNL     1      56.222  12.703   1.736  1.00  0.00    -0.009 C 
BRANCH   5   6
HETATM    6  C6  UNL     1      56.193  11.427   2.463  1.00  0.00     0.087 C 
BRANCH   6   7
HETATM    7  N1  UNL     1      55.863  10.220   1.816  1.00  0.00    -0.337 N 
HETATM    8  C5  UNL     1      54.677   9.754   1.266  1.00  0.00     0.224 C 
HETATM    9  O1  UNL     1      53.576  10.326   1.226  1.00  0.00    -0.273 OA
ATOM     10  H1  UNL     1      56.642   9.566   1.736  1.00  0.00     0.168 HD
BRANCH   8  11
HETATM   11  C4  UNL     1      54.683   8.376   0.622  1.00  0.00     0.130 C 
BRANCH  11  12
HETATM   12  C3  UNL     1      54.727   8.545  -0.844  1.00  0.00    -0.022 C 
HETATM   13  C2  UNL     1      54.371   7.541  -1.615  1.00  0.00    -0.034 C 
HETATM   14  C1  UNL     1      54.395   7.655  -3.111  1.00  0.00     0.036 C 
ENDBRANCH  11  12
ENDBRANCH   8  11
ENDBRANCH   6   7
ENDBRANCH   5   6
ENDBRANCH   4   5
ENDBRANCH   3   4
ENDBRANCH   1   3
BRANCH   1  15
HETATM   15  N2  UNL     1      53.582  14.325   0.640  1.00  0.00    -0.375 N 
ATOM     16  H2  UNL     1      53.782  14.399   1.636  1.00  0.00     0.161 HD
BRANCH  15  17
HETATM   17  C11 UNL     1      52.205  14.241   0.300  1.00  0.00     0.032 C 
HETATM   18  C12 UNL     1      51.881  12.950  -0.404  1.00  0.00     0.035 C 
HETATM   19  C13 UNL     1      50.381  12.826  -0.583  1.00  0.00    -0.012 C 
HETATM   20  C14 UNL     1      49.925  13.951  -1.474  1.00  0.00     0.009 C 
HETATM   21  C18 UNL     1      49.636  12.846   0.715  1.00  0.00     0.009 C 
HETATM   22  C15 UNL     1      50.199  15.249  -0.751  1.00  0.00    -0.012 C 
HETATM   23  C16 UNL     1      49.476  15.313   0.559  1.00  0.00     0.009 C 
HETATM   24  C20 UNL     1      51.690  15.399  -0.526  1.00  0.00     0.035 C 
HETATM   25  C17 UNL     1      49.966  14.141   1.420  1.00  0.00    -0.012 C 
HETATM   26  C19 UNL     1      51.427  14.318   1.632  1.00  0.00     0.035 C 
ENDBRANCH  15  17
ENDBRANCH   1  15
TORSDOF 9
ENDMDL
MODEL 4
REMARK VINA RESULT: -6.551330525      1.757      4.731
REMARK  9 active torsions:
REMARK  status: ('A' for Active; 'I' for Inactive)
REMARK    1  A    between atoms: C3_3  and  C4_4 
REMARK    2  A    between atoms: C4_4  and  C5_5 
REMARK       I    between atoms: C5_5  and  N1_7 
REMARK    3  A    between atoms: N1_7  and  C6_9 
REMARK    4  A    between atoms: C6_9  and  C7_10 
REMARK    5  A    between atoms: C7_10  and  C8_11 
REMARK    6  A    between atoms: C8_11  and  C9_12 
REMARK    7  A    between atoms: C9_12  and  C10_13 
REMARK    8  A    between atoms: C10_13  and  N2_15 
REMARK    9  A    between atoms: N2_15  and  C11_17 
ROOT
HETATM    1  C10 UNL     1      55.174  13.725   0.133  1.00  0.00     0.074 C 
HETATM    2  S1  UNL     1      55.795  15.155  -0.317  1.00  0.00    -0.066 SA
ENDROOT
BRANCH   1   3
HETATM    3  C9  UNL     1      56.043  12.770   0.922  1.00  0.00     0.073 C 
BRANCH   3   4
HETATM    4  C8  UNL     1      55.897  13.118   2.396  1.00  0.00     0.035 C 
BRANCH   4   5
HETATM    5  C7  UNL     1      55.553  11.991   3.265  1.00  0.00    -0.009 C 
BRANCH   5   6
HETATM    6  C6  UNL     1      54.413  11.103   2.999  1.00  0.00     0.087 C 
BRANCH   6   7
HETATM    7  N1  UNL     1      54.558   9.931   2.230  1.00  0.00    -0.337 N 
HETATM    8  C5  UNL     1      54.180   9.620   0.931  1.00  0.00     0.224 C 
HETATM    9  O1  UNL     1      53.590  10.341   0.112  1.00  0.00    -0.273 OA
ATOM     10  H1  UNL     1      55.029   9.170   2.719  1.00  0.00     0.168 HD
BRANCH   8  11
HETATM   11  C4  UNL     1      54.514   8.231   0.407  1.00  0.00     0.130 C 
BRANCH  11  12
HETATM   12  C3  UNL     1      54.742   8.323  -1.049  1.00  0.00    -0.022 C 
HETATM   13  C2  UNL     1      54.359   7.328  -1.820  1.00  0.00    -0.034 C 
HETATM   14  C1  UNL     1      54.565   7.365  -3.306  1.00  0.00     0.036 C 
ENDBRANCH  11  12
ENDBRANCH   8  11
ENDBRANCH   6   7
ENDBRANCH   5   6
ENDBRANCH   4   5
ENDBRANCH   3   4
ENDBRANCH   1   3
BRANCH   1  15
HETATM   15  N2  UNL     1      53.849  13.390  -0.210  1.00  0.00    -0.375 N 
ATOM     16  H2  UNL     1      53.750  12.633  -0.886  1.00  0.00     0.161 HD
BRANCH  15  17
HETATM   17  C11 UNL     1      52.630  13.955   0.252  1.00  0.00     0.032 C 
HETATM   18  C12 UNL     1      52.655  14.197   1.738  1.00  0.00     0.035 C 
HETATM   19  C13 UNL     1      51.415  14.962   2.154  1.00  0.00    -0.012 C 
HETATM   20  C14 UNL     1      50.217  14.099   1.859  1.00  0.00     0.009 C 
HETATM   21  C18 UNL     1      51.291  16.288   1.470  1.00  0.00     0.009 C 
HETATM   22  C15 UNL     1      50.154  13.895   0.364  1.00  0.00    -0.012 C 
HETATM   23  C16 UNL     1      50.035  15.198  -0.365  1.00  0.00     0.009 C 
HETATM   24  C20 UNL     1      51.393  13.156  -0.099  1.00  0.00     0.035 C 
HETATM   25  C17 UNL     1      51.269  16.041  -0.021  1.00  0.00    -0.012 C 
HETATM   26  C19 UNL     1      52.468  15.298  -0.493  1.00  0.00     0.035 C 
ENDBRANCH  15  17
ENDBRANCH   1  15
TORSDOF 9
ENDMDL
MODEL 5
REMARK VINA RESULT: -6.522469139      2.871      4.929
REMARK  9 active torsions:
REMARK  status: ('A' for Active; 'I' for Inactive)
REMARK    1  A    between atoms: C3_3  and  C4_4 
REMARK    2  A    between atoms: C4_4  and  C5_5 
REMARK       I    between atoms: C5_5  and  N1_7 
REMARK    3  A    between atoms: N1_7  and  C6_9 
REMARK    4  A    between atoms: C6_9  and  C7_10 
REMARK    5  A    between atoms: C7_10  and  C8_11 
REMARK    6  A    between atoms: C8_11  and  C9_12 
REMARK    7  A    between atoms: C9_12  and  C10_13 
REMARK    8  A    between atoms: C10_13  and  N2_15 
REMARK    9  A    between atoms: N2_15  and  C11_17 
ROOT
HETATM    1  C10 UNL     1      51.780  13.902   1.537  1.00  0.00     0.074 C 
HETATM    2  S1  UNL     1      52.227  15.434   1.829  1.00  0.00    -0.066 SA
ENDROOT
BRANCH   1   3
HETATM    3  C9  UNL     1      50.552  13.652   0.687  1.00  0.00     0.073 C 
BRANCH   3   4
HETATM    4  C8  UNL     1      50.866  14.109  -0.730  1.00  0.00     0.035 C 
BRANCH   4   5
HETATM    5  C7  UNL     1      49.934  15.094  -1.281  1.00  0.00    -0.009 C 
BRANCH   5   6
HETATM    6  C6  UNL     1      50.368  16.406  -1.781  1.00  0.00     0.087 C 
BRANCH   6   7
HETATM    7  N1  UNL     1      51.727  16.688  -2.019  1.00  0.00    -0.337 N 
HETATM    8  C5  UNL     1      52.377  17.302  -3.081  1.00  0.00     0.224 C 
HETATM    9  O1  UNL     1      51.878  17.759  -4.122  1.00  0.00    -0.273 OA
ATOM     10  H1  UNL     1      52.351  16.386  -1.270  1.00  0.00     0.168 HD
BRANCH   8  11
HETATM   11  C4  UNL     1      53.888  17.456  -2.999  1.00  0.00     0.130 C 
BRANCH  11  12
HETATM   12  C3  UNL     1      54.317  17.124  -1.626  1.00  0.00    -0.022 C 
HETATM   13  C2  UNL     1      55.109  16.091  -1.435  1.00  0.00    -0.034 C 
HETATM   14  C1  UNL     1      55.577  15.706  -0.063  1.00  0.00     0.036 C 
ENDBRANCH  11  12
ENDBRANCH   8  11
ENDBRANCH   6   7
ENDBRANCH   5   6
ENDBRANCH   4   5
ENDBRANCH   3   4
ENDBRANCH   1   3
BRANCH   1  15
HETATM   15  N2  UNL     1      52.527  12.832   2.068  1.00  0.00    -0.375 N 
ATOM     16  H2  UNL     1      52.164  12.433   2.933  1.00  0.00     0.161 HD
BRANCH  15  17
HETATM   17  C11 UNL     1      53.714  12.230   1.571  1.00  0.00     0.032 C 
HETATM   18  C12 UNL     1      54.936  12.715   2.305  1.00  0.00     0.035 C 
HETATM   19  C13 UNL     1      56.148  11.918   1.868  1.00  0.00    -0.012 C 
HETATM   20  C14 UNL     1      56.371  12.180   0.402  1.00  0.00     0.009 C 
HETATM   21  C18 UNL     1      56.003  10.450   2.125  1.00  0.00     0.009 C 
HETATM   22  C15 UNL     1      55.172  11.649  -0.348  1.00  0.00    -0.012 C 
HETATM   23  C16 UNL     1      54.984  10.182  -0.116  1.00  0.00     0.009 C 
HETATM   24  C20 UNL     1      53.930  12.402   0.083  1.00  0.00     0.035 C 
HETATM   25  C17 UNL     1      54.775   9.968   1.388  1.00  0.00    -0.012 C 
HETATM   26  C19 UNL     1      53.548  10.710   1.782  1.00  0.00     0.035 C 
ENDBRANCH  15  17
ENDBRANCH   1  15
TORSDOF 9
ENDMDL
