MODEL 1
REMARK VINA RESULT: -7.482085573      0.000      0.000
REMARK  11 active torsions:
REMARK  status: ('A' for Active; 'I' for Inactive)
REMARK    1  A    between atoms: C2_2  and  C3_3 
REMARK    2  A    between atoms: C3_3  and  O1_4 
REMARK    3  A    between atoms: C7_9  and  C8_10 
REMARK    4  A    between atoms: C9_11  and  C10_12 
REMARK    5  A    between atoms: C10_12  and  O2_13 
REMARK    6  A    between atoms: C15_19  and  C17_21 
REMARK    7  A    between atoms: C17_21  and  C18_22 
REMARK    8  A    between atoms: C23_27  and  O3_28 
REMARK    9  A    between atoms: C23_27  and  C24_30 
REMARK   10  A    between atoms: C24_30  and  O5_32 
REMARK   11  A    between atoms: C26_34  and  O6_35 
ROOT
HETATM    1  C10 UNL     1      18.578  21.004  54.717  1.00  0.00     0.105 C 
HETATM    2  C11 UNL     1      17.721  19.848  55.046  1.00  0.00     0.022 C 
HETATM    3  C12 UNL     1      17.744  18.712  54.063  1.00  0.00     0.013 C 
HETATM    4  C13 UNL     1      17.913  19.272  56.430  1.00  0.00     0.008 C 
HETATM    5  C14 UNL     1      18.692  20.251  57.313  1.00  0.00     0.012 C 
HETATM    6  C15 UNL     1      20.035  20.501  56.732  1.00  0.00    -0.014 C 
HETATM    7  C16 UNL     1      20.754  19.140  56.574  1.00  0.00     0.018 C 
HETATM    8  C26 UNL     1      19.938  21.059  55.331  1.00  0.00     0.165 C 
ENDROOT
BRANCH   1   9
HETATM    9  C9  UNL     1      18.707  21.080  53.225  1.00  0.00     0.010 C 
HETATM   10  C8  UNL     1      18.671  22.233  52.565  1.00  0.00    -0.020 C 
BRANCH  10  11
HETATM   11  C7  UNL     1      18.796  22.335  51.108  1.00  0.00     0.047 C 
HETATM   12  C3  UNL     1      19.663  23.476  50.643  1.00  0.00     0.065 C 
HETATM   13  C4  UNL     1      20.268  23.039  49.342  1.00  0.00     0.044 C 
HETATM   14  C5  UNL     1      20.174  21.538  49.292  1.00  0.00     0.002 A 
HETATM   15  C6  UNL     1      19.311  21.093  50.440  1.00  0.00     0.009 A 
HETATM   16  C27 UNL     1      18.927  20.826  49.022  1.00  0.00    -0.039 A 
HETATM   17  C28 UNL     1      19.056  19.400  48.514  1.00  0.00     0.015 C 
HETATM   18  C29 UNL     1      17.745  21.571  48.423  1.00  0.00     0.015 C 
BRANCH  12  19
HETATM   19  C2  UNL     1      18.837  24.746  50.471  1.00  0.00     0.034 C 
HETATM   20  C1  UNL     1      19.300  25.835  51.389  1.00  0.00     0.008 C 
ENDBRANCH  12  19
BRANCH  12  21
HETATM   21  O1  UNL     1      20.651  23.681  51.592  1.00  0.00    -0.389 OA
ATOM     22  H1  UNL     1      20.742  22.908  52.136  1.00  0.00     0.210 HD
ENDBRANCH  12  21
ENDBRANCH  10  11
ENDBRANCH   1   9
BRANCH   1  23
HETATM   23  O2  UNL     1      17.891  22.185  55.092  1.00  0.00    -0.383 OA
ATOM     24  H2  UNL     1      16.972  21.999  54.936  1.00  0.00     0.211 HD
ENDBRANCH   1  23
BRANCH   8  25
HETATM   25  O6  UNL     1      20.928  20.503  54.520  1.00  0.00    -0.391 OA
ATOM     26  H6  UNL     1      21.807  20.753  54.779  1.00  0.00     0.210 HD
ENDBRANCH   8  25
BRANCH   6  27
HETATM   27  C17 UNL     1      20.966  21.258  57.612  1.00  0.00     0.020 C 
BRANCH  27  28
HETATM   28  C18 UNL     1      20.477  21.920  58.826  1.00  0.00     0.032 C 
HETATM   29  C19 UNL     1      21.024  21.446  60.127  1.00  0.00     0.013 C 
HETATM   30  C20 UNL     1      21.307  22.668  60.972  1.00  0.00    -0.006 A 
HETATM   31  C21 UNL     1      22.496  23.479  60.602  1.00  0.00     0.013 A 
HETATM   32  C22 UNL     1      21.150  23.858  60.140  1.00  0.00     0.035 A 
HETATM   33  C23 UNL     1      20.628  23.423  58.789  1.00  0.00     0.153 C 
BRANCH  33  34
HETATM   34  O3  UNL     1      19.361  24.035  58.624  1.00  0.00    -0.379 OA
ATOM     35  H3  UNL     1      19.465  24.908  58.264  1.00  0.00     0.211 HD
ENDBRANCH  33  34
BRANCH  33  36
HETATM   36  C24 UNL     1      21.523  23.947  57.769  1.00  0.00     0.294 C 
HETATM   37  O4  UNL     1      21.422  25.178  57.434  1.00  0.00    -0.262 OA
BRANCH  36  38
HETATM   38  O5  UNL     1      22.512  23.234  57.091  1.00  0.00    -0.324 OA
HETATM   39  C25 UNL     1      23.001  23.670  55.843  1.00  0.00     0.213 C 
ENDBRANCH  36  38
ENDBRANCH  33  36
ENDBRANCH  27  28
ENDBRANCH   6  27
TORSDOF 11
ENDMDL
MODEL 2
REMARK VINA RESULT: -7.414133420      2.401      8.496
REMARK  11 active torsions:
REMARK  status: ('A' for Active; 'I' for Inactive)
REMARK    1  A    between atoms: C2_2  and  C3_3 
REMARK    2  A    between atoms: C3_3  and  O1_4 
REMARK    3  A    between atoms: C7_9  and  C8_10 
REMARK    4  A    between atoms: C9_11  and  C10_12 
REMARK    5  A    between atoms: C10_12  and  O2_13 
REMARK    6  A    between atoms: C15_19  and  C17_21 
REMARK    7  A    between atoms: C17_21  and  C18_22 
REMARK    8  A    between atoms: C23_27  and  O3_28 
REMARK    9  A    between atoms: C23_27  and  C24_30 
REMARK   10  A    between atoms: C24_30  and  O5_32 
REMARK   11  A    between atoms: C26_34  and  O6_35 
ROOT
HETATM    1  C10 UNL     1      19.866  19.504  55.856  1.00  0.00     0.105 C 
HETATM    2  C11 UNL     1      19.935  18.204  55.161  1.00  0.00     0.022 C 
HETATM    3  C12 UNL     1      19.096  17.102  55.741  1.00  0.00     0.013 C 
HETATM    4  C13 UNL     1      19.681  18.251  53.672  1.00  0.00     0.008 C 
HETATM    5  C14 UNL     1      19.773  19.691  53.159  1.00  0.00     0.012 C 
HETATM    6  C15 UNL     1      18.749  20.534  53.825  1.00  0.00    -0.014 C 
HETATM    7  C16 UNL     1      17.361  19.900  53.570  1.00  0.00     0.018 C 
HETATM    8  C26 UNL     1      18.915  20.526  55.327  1.00  0.00     0.165 C 
ENDROOT
BRANCH   1   9
HETATM    9  C9  UNL     1      19.558  19.245  57.301  1.00  0.00     0.010 C 
HETATM   10  C8  UNL     1      20.428  19.502  58.272  1.00  0.00    -0.020 C 
BRANCH  10  11
HETATM   11  C7  UNL     1      20.150  19.258  59.691  1.00  0.00     0.047 C 
HETATM   12  C3  UNL     1      20.833  18.037  60.250  1.00  0.00     0.065 C 
HETATM   13  C4  UNL     1      21.072  18.319  61.703  1.00  0.00     0.044 C 
HETATM   14  C5  UNL     1      21.003  19.811  61.882  1.00  0.00     0.002 A 
HETATM   15  C6  UNL     1      20.494  20.404  60.597  1.00  0.00     0.009 A 
HETATM   16  C27 UNL     1      19.747  20.557  61.881  1.00  0.00    -0.039 A 
HETATM   17  C28 UNL     1      19.767  21.921  62.550  1.00  0.00     0.015 C 
HETATM   18  C29 UNL     1      18.429  19.820  62.061  1.00  0.00     0.015 C 
BRANCH  12  19
HETATM   19  C2  UNL     1      19.961  16.800  60.062  1.00  0.00     0.034 C 
HETATM   20  C1  UNL     1      19.488  16.252  61.374  1.00  0.00     0.008 C 
ENDBRANCH  12  19
BRANCH  12  21
HETATM   21  O1  UNL     1      22.036  17.871  59.584  1.00  0.00    -0.389 OA
ATOM     22  H1  UNL     1      22.744  17.789  60.211  1.00  0.00     0.210 HD
ENDBRANCH  12  21
ENDBRANCH  10  11
ENDBRANCH   1   9
BRANCH   1  23
HETATM   23  O2  UNL     1      21.160  20.080  55.850  1.00  0.00    -0.383 OA
ATOM     24  H2  UNL     1      21.746  19.373  55.604  1.00  0.00     0.211 HD
ENDBRANCH   1  23
BRANCH   8  25
HETATM   25  O6  UNL     1      17.668  20.489  55.950  1.00  0.00    -0.391 OA
ATOM     26  H6  UNL     1      17.398  21.331  56.298  1.00  0.00     0.210 HD
ENDBRANCH   8  25
BRANCH   6  27
HETATM   27  C17 UNL     1      18.591  21.898  53.250  1.00  0.00     0.020 C 
BRANCH  27  28
HETATM   28  C18 UNL     1      18.823  22.140  51.822  1.00  0.00     0.032 C 
HETATM   29  C19 UNL     1      17.722  22.783  51.054  1.00  0.00     0.013 C 
HETATM   30  C20 UNL     1      18.349  23.814  50.142  1.00  0.00    -0.006 A 
HETATM   31  C21 UNL     1      18.834  25.068  50.778  1.00  0.00     0.013 A 
HETATM   32  C22 UNL     1      19.759  23.956  50.497  1.00  0.00     0.035 A 
HETATM   33  C23 UNL     1      20.087  22.919  51.545  1.00  0.00     0.153 C 
BRANCH  33  34
HETATM   34  O3  UNL     1      21.070  22.067  50.983  1.00  0.00    -0.379 OA
ATOM     35  H3  UNL     1      21.866  22.556  50.810  1.00  0.00     0.211 HD
ENDBRANCH  33  34
BRANCH  33  36
HETATM   36  C24 UNL     1      20.677  23.600  52.687  1.00  0.00     0.294 C 
HETATM   37  O4  UNL     1      21.433  24.612  52.478  1.00  0.00    -0.262 OA
BRANCH  36  38
HETATM   38  O5  UNL     1      20.504  23.265  54.030  1.00  0.00    -0.324 OA
HETATM   39  C25 UNL     1      21.451  23.639  55.005  1.00  0.00     0.213 C 
ENDBRANCH  36  38
ENDBRANCH  33  36
ENDBRANCH  27  28
ENDBRANCH   6  27
TORSDOF 11
ENDMDL
MODEL 3
REMARK VINA RESULT: -7.303440472      1.489      7.971
REMARK  11 active torsions:
REMARK  status: ('A' for Active; 'I' for Inactive)
REMARK    1  A    between atoms: C2_2  and  C3_3 
REMARK    2  A    between atoms: C3_3  and  O1_4 
REMARK    3  A    between atoms: C7_9  and  C8_10 
REMARK    4  A    between atoms: C9_11  and  C10_12 
REMARK    5  A    between atoms: C10_12  and  O2_13 
REMARK    6  A    between atoms: C15_19  and  C17_21 
REMARK    7  A    between atoms: C17_21  and  C18_22 
REMARK    8  A    between atoms: C23_27  and  O3_28 
REMARK    9  A    between atoms: C23_27  and  C24_30 
REMARK   10  A    between atoms: C24_30  and  O5_32 
REMARK   11  A    between atoms: C26_34  and  O6_35 
ROOT
HETATM    1  C10 UNL     1      20.160  20.874  55.475  1.00  0.00     0.105 C 
HETATM    2  C11 UNL     1      20.131  19.399  55.443  1.00  0.00     0.022 C 
HETATM    3  C12 UNL     1      19.484  18.728  56.621  1.00  0.00     0.013 C 
HETATM    4  C13 UNL     1      19.559  18.789  54.184  1.00  0.00     0.008 C 
HETATM    5  C14 UNL     1      19.478  19.836  53.071  1.00  0.00     0.012 C 
HETATM    6  C15 UNL     1      18.588  20.950  53.485  1.00  0.00    -0.014 C 
HETATM    7  C16 UNL     1      17.205  20.356  53.844  1.00  0.00     0.018 C 
HETATM    8  C26 UNL     1      19.074  21.606  54.756  1.00  0.00     0.165 C 
ENDROOT
BRANCH   1   9
HETATM    9  C9  UNL     1      20.182  21.310  56.909  1.00  0.00     0.010 C 
HETATM   10  C8  UNL     1      20.981  22.279  57.347  1.00  0.00    -0.020 C 
BRANCH  10  11
HETATM   11  C7  UNL     1      21.021  22.724  58.743  1.00  0.00     0.047 C 
HETATM   12  C3  UNL     1      20.223  23.973  59.013  1.00  0.00     0.065 C 
HETATM   13  C4  UNL     1      19.764  23.876  60.438  1.00  0.00     0.044 C 
HETATM   14  C5  UNL     1      19.846  22.427  60.832  1.00  0.00     0.002 A 
HETATM   15  C6  UNL     1      20.570  21.694  59.737  1.00  0.00     0.009 A 
HETATM   16  C27 UNL     1      21.107  21.752  61.129  1.00  0.00    -0.039 A 
HETATM   17  C28 UNL     1      21.020  20.491  61.971  1.00  0.00     0.015 C 
HETATM   18  C29 UNL     1      22.358  22.572  61.406  1.00  0.00     0.015 C 
BRANCH  12  19
HETATM   19  C2  UNL     1      21.078  25.216  58.791  1.00  0.00     0.034 C 
HETATM   20  C1  UNL     1      20.320  26.471  59.100  1.00  0.00     0.008 C 
ENDBRANCH  12  19
BRANCH  12  21
HETATM   21  O1  UNL     1      19.138  23.987  58.153  1.00  0.00    -0.389 OA
ATOM     22  H1  UNL     1      18.349  24.217  58.632  1.00  0.00     0.210 HD
ENDBRANCH  12  21
ENDBRANCH  10  11
ENDBRANCH   1   9
BRANCH   1  23
HETATM   23  O2  UNL     1      21.397  21.305  54.935  1.00  0.00    -0.383 OA
ATOM     24  H2  UNL     1      21.768  21.882  55.593  1.00  0.00     0.211 HD
ENDBRANCH   1  23
BRANCH   8  25
HETATM   25  O6  UNL     1      17.995  21.929  55.578  1.00  0.00    -0.391 OA
ATOM     26  H6  UNL     1      18.257  22.210  56.447  1.00  0.00     0.210 HD
ENDBRANCH   8  25
BRANCH   6  27
HETATM   27  C17 UNL     1      18.252  21.917  52.405  1.00  0.00     0.020 C 
BRANCH  27  28
HETATM   28  C18 UNL     1      18.841  21.782  51.069  1.00  0.00     0.032 C 
HETATM   29  C19 UNL     1      17.941  21.996  49.903  1.00  0.00     0.013 C 
HETATM   30  C20 UNL     1      18.703  22.816  48.887  1.00  0.00    -0.006 A 
HETATM   31  C21 UNL     1      18.891  24.259  49.192  1.00  0.00     0.013 A 
HETATM   32  C22 UNL     1      19.947  23.278  49.497  1.00  0.00     0.035 A 
HETATM   33  C23 UNL     1      20.064  22.645  50.865  1.00  0.00     0.153 C 
BRANCH  33  34
HETATM   34  O3  UNL     1      21.230  21.840  50.843  1.00  0.00    -0.379 OA
ATOM     35  H3  UNL     1      22.001  22.384  50.738  1.00  0.00     0.211 HD
ENDBRANCH  33  34
BRANCH  33  36
HETATM   36  C24 UNL     1      20.263  23.707  51.839  1.00  0.00     0.294 C 
HETATM   37  O4  UNL     1      21.173  23.564  52.728  1.00  0.00    -0.262 OA
BRANCH  36  38
HETATM   38  O5  UNL     1      19.549  24.902  51.916  1.00  0.00    -0.324 OA
HETATM   39  C25 UNL     1      20.186  26.112  52.261  1.00  0.00     0.213 C 
ENDBRANCH  36  38
ENDBRANCH  33  36
ENDBRANCH  27  28
ENDBRANCH   6  27
TORSDOF 11
ENDMDL
MODEL 4
REMARK VINA RESULT: -7.278184267      3.080      8.256
REMARK  11 active torsions:
REMARK  status: ('A' for Active; 'I' for Inactive)
REMARK    1  A    between atoms: C2_2  and  C3_3 
REMARK    2  A    between atoms: C3_3  and  O1_4 
REMARK    3  A    between atoms: C7_9  and  C8_10 
REMARK    4  A    between atoms: C9_11  and  C10_12 
REMARK    5  A    between atoms: C10_12  and  O2_13 
REMARK    6  A    between atoms: C15_19  and  C17_21 
REMARK    7  A    between atoms: C17_21  and  C18_22 
REMARK    8  A    between atoms: C23_27  and  O3_28 
REMARK    9  A    between atoms: C23_27  and  C24_30 
REMARK   10  A    between atoms: C24_30  and  O5_32 
REMARK   11  A    between atoms: C26_34  and  O6_35 
ROOT
HETATM    1  C10 UNL     1      18.496  20.621  55.573  1.00  0.00     0.105 C 
HETATM    2  C11 UNL     1      18.656  21.405  54.333  1.00  0.00     0.022 C 
HETATM    3  C12 UNL     1      19.881  22.270  54.255  1.00  0.00     0.013 C 
HETATM    4  C13 UNL     1      18.560  20.613  53.049  1.00  0.00     0.008 C 
HETATM    5  C14 UNL     1      17.950  19.234  53.316  1.00  0.00     0.012 C 
HETATM    6  C15 UNL     1      18.806  18.473  54.260  1.00  0.00    -0.014 C 
HETATM    7  C16 UNL     1      20.230  18.388  53.659  1.00  0.00     0.018 C 
HETATM    8  C26 UNL     1      18.977  19.207  55.570  1.00  0.00     0.165 C 
ENDROOT
BRANCH   1   9
HETATM    9  C9  UNL     1      19.168  21.367  56.687  1.00  0.00     0.010 C 
HETATM   10  C8  UNL     1      18.968  21.069  57.967  1.00  0.00    -0.020 C 
BRANCH  10  11
HETATM   11  C7  UNL     1      19.613  21.783  59.073  1.00  0.00     0.047 C 
HETATM   12  C3  UNL     1      20.550  20.931  59.891  1.00  0.00     0.065 C 
HETATM   13  C4  UNL     1      21.603  21.857  60.421  1.00  0.00     0.044 C 
HETATM   14  C5  UNL     1      21.588  23.087  59.555  1.00  0.00     0.002 A 
HETATM   15  C6  UNL     1      20.381  23.005  58.661  1.00  0.00     0.009 A 
HETATM   16  C27 UNL     1      20.552  24.113  59.647  1.00  0.00    -0.039 A 
HETATM   17  C28 UNL     1      20.909  25.488  59.105  1.00  0.00     0.015 C 
HETATM   18  C29 UNL     1      19.645  24.166  60.866  1.00  0.00     0.015 C 
BRANCH  12  19
HETATM   19  C2  UNL     1      19.799  20.240  61.024  1.00  0.00     0.034 C 
HETATM   20  C1  UNL     1      20.166  20.811  62.359  1.00  0.00     0.008 C 
ENDBRANCH  12  19
BRANCH  12  21
HETATM   21  O1  UNL     1      21.114  19.983  59.053  1.00  0.00    -0.389 OA
ATOM     22  H1  UNL     1      20.651  19.158  59.140  1.00  0.00     0.210 HD
ENDBRANCH  12  21
ENDBRANCH  10  11
ENDBRANCH   1   9
BRANCH   1  23
HETATM   23  O2  UNL     1      17.121  20.605  55.914  1.00  0.00    -0.383 OA
ATOM     24  H2  UNL     1      16.660  20.739  55.094  1.00  0.00     0.211 HD
ENDBRANCH   1  23
BRANCH   8  25
HETATM   25  O6  UNL     1      20.285  19.072  56.032  1.00  0.00    -0.391 OA
ATOM     26  H6  UNL     1      20.849  18.604  55.428  1.00  0.00     0.210 HD
ENDBRANCH   8  25
BRANCH   6  27
HETATM   27  C17 UNL     1      18.438  17.041  54.422  1.00  0.00     0.020 C 
BRANCH  27  28
HETATM   28  C18 UNL     1      17.250  16.654  55.191  1.00  0.00     0.032 C 
HETATM   29  C19 UNL     1      16.304  15.701  54.549  1.00  0.00     0.013 C 
HETATM   30  C20 UNL     1      15.884  14.702  55.604  1.00  0.00    -0.006 A 
HETATM   31  C21 UNL     1      16.884  13.674  55.993  1.00  0.00     0.013 A 
HETATM   32  C22 UNL     1      16.711  14.900  56.791  1.00  0.00     0.035 A 
HETATM   33  C23 UNL     1      17.576  16.118  56.565  1.00  0.00     0.153 C 
BRANCH  33  34
HETATM   34  O3  UNL     1      17.216  17.065  57.555  1.00  0.00    -0.379 OA
ATOM     35  H3  UNL     1      17.994  17.469  57.919  1.00  0.00     0.211 HD
ENDBRANCH  33  34
BRANCH  33  36
HETATM   36  C24 UNL     1      18.963  15.735  56.785  1.00  0.00     0.294 C 
HETATM   37  O4  UNL     1      19.679  16.444  57.575  1.00  0.00    -0.262 OA
BRANCH  36  38
HETATM   38  O5  UNL     1      19.620  14.646  56.214  1.00  0.00    -0.324 OA
HETATM   39  C25 UNL     1      20.998  14.697  55.918  1.00  0.00     0.213 C 
ENDBRANCH  36  38
ENDBRANCH  33  36
ENDBRANCH  27  28
ENDBRANCH   6  27
TORSDOF 11
ENDMDL
MODEL 5
REMARK VINA RESULT: -7.248838171      3.361      8.593
REMARK  11 active torsions:
REMARK  status: ('A' for Active; 'I' for Inactive)
REMARK    1  A    between atoms: C2_2  and  C3_3 
REMARK    2  A    between atoms: C3_3  and  O1_4 
REMARK    3  A    between atoms: C7_9  and  C8_10 
REMARK    4  A    between atoms: C9_11  and  C10_12 
REMARK    5  A    between atoms: C10_12  and  O2_13 
REMARK    6  A    between atoms: C15_19  and  C17_21 
REMARK    7  A    between atoms: C17_21  and  C18_22 
REMARK    8  A    between atoms: C23_27  and  O3_28 
REMARK    9  A    between atoms: C23_27  and  C24_30 
REMARK   10  A    between atoms: C24_30  and  O5_32 
REMARK   11  A    between atoms: C26_34  and  O6_35 
ROOT
HETATM    1  C10 UNL     1      19.617  20.165  57.546  1.00  0.00     0.105 C 
HETATM    2  C11 UNL     1      19.559  21.343  58.433  1.00  0.00     0.022 C 
HETATM    3  C12 UNL     1      20.444  21.298  59.645  1.00  0.00     0.013 C 
HETATM    4  C13 UNL     1      19.765  22.677  57.753  1.00  0.00     0.008 C 
HETATM    5  C14 UNL     1      19.621  22.532  56.236  1.00  0.00     0.012 C 
HETATM    6  C15 UNL     1      20.643  21.590  55.715  1.00  0.00    -0.014 C 
HETATM    7  C16 UNL     1      22.039  22.113  56.132  1.00  0.00     0.018 C 
HETATM    8  C26 UNL     1      20.525  20.230  56.362  1.00  0.00     0.165 C 
ENDROOT
BRANCH   1   9
HETATM    9  C9  UNL     1      19.976  18.971  58.378  1.00  0.00     0.010 C 
HETATM   10  C8  UNL     1      19.086  18.044  58.717  1.00  0.00    -0.020 C 
BRANCH  10  11
HETATM   11  C7  UNL     1      19.412  16.868  59.529  1.00  0.00     0.047 C 
HETATM   12  C3  UNL     1      18.999  16.984  60.973  1.00  0.00     0.065 C 
HETATM   13  C4  UNL     1      18.711  15.588  61.440  1.00  0.00     0.044 C 
HETATM   14  C5  UNL     1      18.471  14.751  60.213  1.00  0.00     0.002 A 
HETATM   15  C6  UNL     1      18.842  15.579  59.013  1.00  0.00     0.009 A 
HETATM   16  C27 UNL     1      19.546  14.302  59.332  1.00  0.00    -0.039 A 
HETATM   17  C28 UNL     1      19.248  13.096  58.458  1.00  0.00     0.015 C 
HETATM   18  C29 UNL     1      20.989  14.352  59.812  1.00  0.00     0.015 C 
BRANCH  12  19
HETATM   19  C2  UNL     1      20.106  17.628  61.801  1.00  0.00     0.034 C 
HETATM   20  C1  UNL     1      19.688  18.960  62.344  1.00  0.00     0.008 C 
ENDBRANCH  12  19
BRANCH  12  21
HETATM   21  O1  UNL     1      17.853  17.761  61.033  1.00  0.00    -0.389 OA
ATOM     22  H1  UNL     1      17.118  17.231  61.319  1.00  0.00     0.210 HD
ENDBRANCH  12  21
ENDBRANCH  10  11
ENDBRANCH   1   9
BRANCH   1  23
HETATM   23  O2  UNL     1      18.308  19.905  57.068  1.00  0.00    -0.383 OA
ATOM     24  H2  UNL     1      18.043  19.099  57.496  1.00  0.00     0.211 HD
ENDBRANCH   1  23
BRANCH   8  25
HETATM   25  O6  UNL     1      21.791  19.702  56.613  1.00  0.00    -0.391 OA
ATOM     26  H6  UNL     1      22.074  19.080  55.953  1.00  0.00     0.210 HD
ENDBRANCH   8  25
BRANCH   6  27
HETATM   27  C17 UNL     1      20.748  21.538  54.232  1.00  0.00     0.020 C 
BRANCH  27  28
HETATM   28  C18 UNL     1      19.834  22.316  53.388  1.00  0.00     0.032 C 
HETATM   29  C19 UNL     1      20.405  22.946  52.167  1.00  0.00     0.013 C 
HETATM   30  C20 UNL     1      19.410  22.743  51.045  1.00  0.00    -0.006 A 
HETATM   31  C21 UNL     1      19.316  21.375  50.471  1.00  0.00     0.013 A 
HETATM   32  C22 UNL     1      18.369  21.828  51.504  1.00  0.00     0.035 A 
HETATM   33  C23 UNL     1      18.605  21.543  52.970  1.00  0.00     0.153 C 
BRANCH  33  34
HETATM   34  O3  UNL     1      17.468  22.024  53.667  1.00  0.00    -0.379 OA
ATOM     35  H3  UNL     1      17.131  22.804  53.244  1.00  0.00     0.211 HD
ENDBRANCH  33  34
BRANCH  33  36
HETATM   36  C24 UNL     1      18.669  20.101  53.146  1.00  0.00     0.294 C 
HETATM   37  O4  UNL     1      17.920  19.553  54.028  1.00  0.00    -0.262 OA
BRANCH  36  38
HETATM   38  O5  UNL     1      19.484  19.218  52.438  1.00  0.00    -0.324 OA
HETATM   39  C25 UNL     1      19.992  18.049  53.040  1.00  0.00     0.213 C 
ENDBRANCH  36  38
ENDBRANCH  33  36
ENDBRANCH  27  28
ENDBRANCH   6  27
TORSDOF 11
ENDMDL
