MODEL 1
REMARK VINA RESULT: -7.541285747      0.000      0.000
REMARK  8 active torsions:
REMARK  status: ('A' for Active; 'I' for Inactive)
REMARK    1  A    between atoms: C2_2  and  C3_3 
REMARK    2  A    between atoms: C3_3  and  C4_4 
REMARK    3  A    between atoms: C4_4  and  N1_5 
REMARK       I    between atoms: N1_5  and  C5_7 
REMARK    4  A    between atoms: C5_7  and  C6_9 
REMARK    5  A    between atoms: C7_10  and  C8_11 
REMARK    6  A    between atoms: C9_12  and  O2_13 
REMARK    7  A    between atoms: C11_16  and  O3_17 
REMARK    8  A    between atoms: C12_19  and  O4_20 
ROOT
HETATM    1  C8  UNL     1      18.735  14.603  59.503  1.00  0.00    -0.016 C 
HETATM    2  C9  UNL     1      18.525  14.451  60.934  1.00  0.00     0.053 C 
HETATM    3  C10 UNL     1      19.193  15.397  61.885  1.00  0.00     0.099 C 
HETATM    4  C11 UNL     1      19.887  16.528  61.257  1.00  0.00     0.159 C 
HETATM    5  C12 UNL     1      19.303  16.972  59.896  1.00  0.00     0.097 C 
HETATM    6  C13 UNL     1      19.760  18.308  59.717  1.00  0.00     0.049 C 
HETATM    7  C14 UNL     1      20.553  18.848  58.534  1.00  0.00     0.028 C 
HETATM    8  C15 UNL     1      19.954  20.053  57.862  1.00  0.00    -0.012 C 
HETATM    9  C16 UNL     1      19.788  21.182  58.865  1.00  0.00     0.010 C 
HETATM   10  C17 UNL     1      18.718  19.910  57.093  1.00  0.00     0.005 C 
HETATM   11  C18 UNL     1      18.534  18.513  56.434  1.00  0.00     0.009 C 
HETATM   12  C19 UNL     1      19.093  17.597  57.414  1.00  0.00     0.031 C 
HETATM   13  C20 UNL     1      20.543  17.759  57.596  1.00  0.00     0.082 C 
HETATM   14  O5  UNL     1      20.914  17.920  56.213  1.00  0.00    -0.309 OA
HETATM   15  C21 UNL     1      20.501  16.728  55.579  1.00  0.00     0.260 C 
HETATM   16  O6  UNL     1      20.809  16.551  54.366  1.00  0.00    -0.265 OA
HETATM   17  C22 UNL     1      19.696  15.671  56.331  1.00  0.00     0.122 C 
HETATM   18  C23 UNL     1      18.953  16.134  57.493  1.00  0.00    -0.014 C 
HETATM   19  C24 UNL     1      17.447  15.876  57.320  1.00  0.00     0.017 C 
HETATM   20  C25 UNL     1      19.415  15.835  58.927  1.00  0.00     0.031 C 
HETATM   21  C26 UNL     1      20.879  15.530  58.785  1.00  0.00     0.025 C 
HETATM   22  C27 UNL     1      21.461  16.699  58.052  1.00  0.00     0.019 C 
HETATM   23  C28 UNL     1      22.650  17.224  58.848  1.00  0.00     0.013 C 
ENDROOT
BRANCH   1  24
HETATM   24  C7  UNL     1      18.963  13.326  58.780  1.00  0.00     0.016 C 
HETATM   25  C6  UNL     1      17.972  12.642  57.992  1.00  0.00     0.074 C 
BRANCH  25  26
HETATM   26  C5  UNL     1      16.777  11.965  58.379  1.00  0.00     0.241 C 
HETATM   27  N1  UNL     1      15.790  12.607  59.241  1.00  0.00    -0.358 N 
ATOM     28  H1  UNL     1      15.934  13.556  59.585  1.00  0.00     0.162 HD
HETATM   29  O1  UNL     1      16.485  10.798  58.017  1.00  0.00    -0.269 OA
BRANCH  27  30
HETATM   30  C4  UNL     1      14.621  11.873  59.589  1.00  0.00     0.123 C 
BRANCH  30  31
HETATM   31  C3  UNL     1      14.734  11.488  61.057  1.00  0.00     0.019 C 
BRANCH  31  32
HETATM   32  C2  UNL     1      13.367  11.224  61.639  1.00  0.00    -0.003 C 
HETATM   33  C1  UNL     1      13.458  10.964  63.122  1.00  0.00     0.005 C 
ENDBRANCH  31  32
ENDBRANCH  30  31
ENDBRANCH  27  30
ENDBRANCH  25  26
ENDBRANCH   1  24
BRANCH   2  34
HETATM   34  O2  UNL     1      17.160  14.232  61.310  1.00  0.00    -0.364 OA
ATOM     35  H2  UNL     1      17.049  13.688  62.081  1.00  0.00     0.217 HD
ENDBRANCH   2  34
BRANCH   5  36
HETATM   36  O4  UNL     1      17.946  17.007  60.378  1.00  0.00    -0.386 OA
ATOM     37  H4  UNL     1      17.924  17.955  60.441  1.00  0.00     0.210 HD
ENDBRANCH   5  36
BRANCH   4  38
HETATM   38  O3  UNL     1      19.520  17.648  62.094  1.00  0.00    -0.392 OA
ATOM     39  H3  UNL     1      20.184  17.638  62.774  1.00  0.00     0.210 HD
ENDBRANCH   4  38
TORSDOF 8
ENDMDL
MODEL 2
REMARK VINA RESULT: -7.530257584      3.509      7.189
REMARK  8 active torsions:
REMARK  status: ('A' for Active; 'I' for Inactive)
REMARK    1  A    between atoms: C2_2  and  C3_3 
REMARK    2  A    between atoms: C3_3  and  C4_4 
REMARK    3  A    between atoms: C4_4  and  N1_5 
REMARK       I    between atoms: N1_5  and  C5_7 
REMARK    4  A    between atoms: C5_7  and  C6_9 
REMARK    5  A    between atoms: C7_10  and  C8_11 
REMARK    6  A    between atoms: C9_12  and  O2_13 
REMARK    7  A    between atoms: C11_16  and  O3_17 
REMARK    8  A    between atoms: C12_19  and  O4_20 
ROOT
HETATM    1  C8  UNL     1      20.327  19.075  58.671  1.00  0.00    -0.016 C 
HETATM    2  C9  UNL     1      20.557  20.437  58.217  1.00  0.00     0.053 C 
HETATM    3  C10 UNL     1      20.748  20.708  56.756  1.00  0.00     0.099 C 
HETATM    4  C11 UNL     1      20.512  19.560  55.872  1.00  0.00     0.159 C 
HETATM    5  C12 UNL     1      19.501  18.522  56.412  1.00  0.00     0.097 C 
HETATM    6  C13 UNL     1      19.058  17.807  55.265  1.00  0.00     0.049 C 
HETATM    7  C14 UNL     1      19.118  16.300  55.052  1.00  0.00     0.028 C 
HETATM    8  C15 UNL     1      17.809  15.655  54.692  1.00  0.00    -0.012 C 
HETATM    9  C16 UNL     1      17.247  16.280  53.427  1.00  0.00     0.010 C 
HETATM   10  C17 UNL     1      16.748  15.568  55.695  1.00  0.00     0.005 C 
HETATM   11  C18 UNL     1      17.261  15.461  57.160  1.00  0.00     0.009 C 
HETATM   12  C19 UNL     1      18.440  16.310  57.171  1.00  0.00     0.031 C 
HETATM   13  C20 UNL     1      19.532  15.795  56.332  1.00  0.00     0.082 C 
HETATM   14  O5  UNL     1      19.434  14.402  56.688  1.00  0.00    -0.309 OA
HETATM   15  C21 UNL     1      19.654  14.361  58.081  1.00  0.00     0.260 C 
HETATM   16  O6  UNL     1      19.736  13.232  58.646  1.00  0.00    -0.265 OA
HETATM   17  C22 UNL     1      19.788  15.642  58.899  1.00  0.00     0.122 C 
HETATM   18  C23 UNL     1      19.186  16.838  58.325  1.00  0.00    -0.014 C 
HETATM   19  C24 UNL     1      18.107  17.410  59.259  1.00  0.00     0.017 C 
HETATM   20  C25 UNL     1      20.033  17.951  57.692  1.00  0.00     0.031 C 
HETATM   21  C26 UNL     1      21.334  17.278  57.358  1.00  0.00     0.025 C 
HETATM   22  C27 UNL     1      20.964  16.077  56.541  1.00  0.00     0.019 C 
HETATM   23  C28 UNL     1      21.775  16.104  55.251  1.00  0.00     0.013 C 
ENDROOT
BRANCH   1  24
HETATM   24  C7  UNL     1      21.083  18.703  59.894  1.00  0.00     0.016 C 
HETATM   25  C6  UNL     1      20.558  18.763  61.233  1.00  0.00     0.074 C 
BRANCH  25  26
HETATM   26  C5  UNL     1      20.204  19.880  62.047  1.00  0.00     0.241 C 
HETATM   27  N1  UNL     1      20.499  21.246  61.627  1.00  0.00    -0.358 N 
ATOM     28  H1  UNL     1      20.965  21.431  60.739  1.00  0.00     0.162 HD
HETATM   29  O1  UNL     1      19.624  19.781  63.157  1.00  0.00    -0.269 OA
BRANCH  27  30
HETATM   30  C4  UNL     1      20.120  22.313  62.489  1.00  0.00     0.123 C 
BRANCH  30  31
HETATM   31  C3  UNL     1      21.097  23.459  62.268  1.00  0.00     0.019 C 
BRANCH  31  32
HETATM   32  C2  UNL     1      22.091  23.103  61.191  1.00  0.00    -0.003 C 
HETATM   33  C1  UNL     1      23.504  23.311  61.677  1.00  0.00     0.005 C 
ENDBRANCH  31  32
ENDBRANCH  30  31
ENDBRANCH  27  30
ENDBRANCH  25  26
ENDBRANCH   1  24
BRANCH   2  34
HETATM   34  O2  UNL     1      19.686  21.411  58.804  1.00  0.00    -0.364 OA
ATOM     35  H2  UNL     1      20.130  22.180  59.143  1.00  0.00     0.217 HD
ENDBRANCH   2  34
BRANCH   5  36
HETATM   36  O4  UNL     1      18.513  19.514  56.751  1.00  0.00    -0.386 OA
ATOM     37  H4  UNL     1      17.868  18.873  57.024  1.00  0.00     0.210 HD
ENDBRANCH   5  36
BRANCH   4  38
HETATM   38  O3  UNL     1      19.761  20.133  54.778  1.00  0.00    -0.392 OA
ATOM     39  H3  UNL     1      19.395  19.372  54.343  1.00  0.00     0.210 HD
ENDBRANCH   4  38
TORSDOF 8
ENDMDL
MODEL 3
REMARK VINA RESULT: -7.396838725      3.095      7.279
REMARK  8 active torsions:
REMARK  status: ('A' for Active; 'I' for Inactive)
REMARK    1  A    between atoms: C2_2  and  C3_3 
REMARK    2  A    between atoms: C3_3  and  C4_4 
REMARK    3  A    between atoms: C4_4  and  N1_5 
REMARK       I    between atoms: N1_5  and  C5_7 
REMARK    4  A    between atoms: C5_7  and  C6_9 
REMARK    5  A    between atoms: C7_10  and  C8_11 
REMARK    6  A    between atoms: C9_12  and  O2_13 
REMARK    7  A    between atoms: C11_16  and  O3_17 
REMARK    8  A    between atoms: C12_19  and  O4_20 
ROOT
HETATM    1  C8  UNL     1      20.299  18.443  59.065  1.00  0.00    -0.016 C 
HETATM    2  C9  UNL     1      20.192  19.683  58.314  1.00  0.00     0.053 C 
HETATM    3  C10 UNL     1      20.140  19.640  56.817  1.00  0.00     0.099 C 
HETATM    4  C11 UNL     1      20.031  18.296  56.234  1.00  0.00     0.159 C 
HETATM    5  C12 UNL     1      19.325  17.255  57.133  1.00  0.00     0.097 C 
HETATM    6  C13 UNL     1      18.893  16.232  56.244  1.00  0.00     0.049 C 
HETATM    7  C14 UNL     1      19.229  14.749  56.332  1.00  0.00     0.028 C 
HETATM    8  C15 UNL     1      18.041  13.826  56.333  1.00  0.00    -0.012 C 
HETATM    9  C16 UNL     1      17.211  14.041  55.079  1.00  0.00     0.010 C 
HETATM   10  C17 UNL     1      17.153  13.794  57.495  1.00  0.00     0.005 C 
HETATM   11  C18 UNL     1      17.857  14.114  58.844  1.00  0.00     0.009 C 
HETATM   12  C19 UNL     1      18.833  15.130  58.488  1.00  0.00     0.031 C 
HETATM   13  C20 UNL     1      19.893  14.627  57.601  1.00  0.00     0.082 C 
HETATM   14  O5  UNL     1      20.122  13.357  58.241  1.00  0.00    -0.309 OA
HETATM   15  C21 UNL     1      20.518  13.675  59.558  1.00  0.00     0.260 C 
HETATM   16  O6  UNL     1      20.896  12.736  60.317  1.00  0.00    -0.265 OA
HETATM   17  C22 UNL     1      20.493  15.113  60.067  1.00  0.00     0.122 C 
HETATM   18  C23 UNL     1      19.596  16.026  59.372  1.00  0.00    -0.014 C 
HETATM   19  C24 UNL     1      18.550  16.607  60.337  1.00  0.00     0.017 C 
HETATM   20  C25 UNL     1      20.116  17.091  58.395  1.00  0.00     0.031 C 
HETATM   21  C26 UNL     1      21.473  16.589  57.992  1.00  0.00     0.025 C 
HETATM   22  C27 UNL     1      21.253  15.188  57.508  1.00  0.00     0.019 C 
HETATM   23  C28 UNL     1      21.874  15.054  56.122  1.00  0.00     0.013 C 
ENDROOT
BRANCH   1  24
HETATM   24  C7  UNL     1      21.261  18.494  60.194  1.00  0.00     0.016 C 
HETATM   25  C6  UNL     1      20.905  18.755  61.565  1.00  0.00     0.074 C 
BRANCH  25  26
HETATM   26  C5  UNL     1      20.428  19.943  62.194  1.00  0.00     0.241 C 
HETATM   27  N1  UNL     1      20.557  21.245  61.549  1.00  0.00    -0.358 N 
ATOM     28  H1  UNL     1      20.991  21.333  60.630  1.00  0.00     0.162 HD
HETATM   29  O1  UNL     1      19.872  19.963  63.320  1.00  0.00    -0.269 OA
BRANCH  27  30
HETATM   30  C4  UNL     1      20.060  22.389  62.234  1.00  0.00     0.123 C 
BRANCH  30  31
HETATM   31  C3  UNL     1      21.151  23.450  62.220  1.00  0.00     0.019 C 
BRANCH  31  32
HETATM   32  C2  UNL     1      22.175  23.138  61.157  1.00  0.00    -0.003 C 
HETATM   33  C1  UNL     1      23.574  23.279  61.703  1.00  0.00     0.005 C 
ENDBRANCH  31  32
ENDBRANCH  30  31
ENDBRANCH  27  30
ENDBRANCH  25  26
ENDBRANCH   1  24
BRANCH   2  34
HETATM   34  O2  UNL     1      19.224  20.604  58.829  1.00  0.00    -0.364 OA
ATOM     35  H2  UNL     1      18.385  20.581  58.383  1.00  0.00     0.217 HD
ENDBRANCH   2  34
BRANCH   5  36
HETATM   36  O4  UNL     1      18.208  18.118  57.425  1.00  0.00    -0.386 OA
ATOM     37  H4  UNL     1      18.052  17.735  58.280  1.00  0.00     0.210 HD
ENDBRANCH   5  36
BRANCH   4  38
HETATM   38  O3  UNL     1      19.048  18.469  55.188  1.00  0.00    -0.392 OA
ATOM     39  H3  UNL     1      19.570  18.445  54.394  1.00  0.00     0.210 HD
ENDBRANCH   4  38
TORSDOF 8
ENDMDL
MODEL 4
REMARK VINA RESULT: -7.280167670      3.292      5.273
REMARK  8 active torsions:
REMARK  status: ('A' for Active; 'I' for Inactive)
REMARK    1  A    between atoms: C2_2  and  C3_3 
REMARK    2  A    between atoms: C3_3  and  C4_4 
REMARK    3  A    between atoms: C4_4  and  N1_5 
REMARK       I    between atoms: N1_5  and  C5_7 
REMARK    4  A    between atoms: C5_7  and  C6_9 
REMARK    5  A    between atoms: C7_10  and  C8_11 
REMARK    6  A    between atoms: C9_12  and  O2_13 
REMARK    7  A    between atoms: C11_16  and  O3_17 
REMARK    8  A    between atoms: C12_19  and  O4_20 
ROOT
HETATM    1  C8  UNL     1      18.373  17.018  56.096  1.00  0.00    -0.016 C 
HETATM    2  C9  UNL     1      17.730  15.771  56.479  1.00  0.00     0.053 C 
HETATM    3  C10 UNL     1      18.176  15.060  57.720  1.00  0.00     0.099 C 
HETATM    4  C11 UNL     1      19.138  15.795  58.550  1.00  0.00     0.159 C 
HETATM    5  C12 UNL     1      19.036  17.335  58.451  1.00  0.00     0.097 C 
HETATM    6  C13 UNL     1      19.660  17.823  59.634  1.00  0.00     0.049 C 
HETATM    7  C14 UNL     1      20.821  18.805  59.711  1.00  0.00     0.028 C 
HETATM    8  C15 UNL     1      20.576  20.013  60.573  1.00  0.00    -0.012 C 
HETATM    9  C16 UNL     1      20.234  19.584  61.990  1.00  0.00     0.010 C 
HETATM   10  C17 UNL     1      19.619  21.029  60.136  1.00  0.00     0.005 C 
HETATM   11  C18 UNL     1      19.499  21.171  58.592  1.00  0.00     0.009 C 
HETATM   12  C19 UNL     1      19.643  19.806  58.112  1.00  0.00     0.031 C 
HETATM   13  C20 UNL     1      20.981  19.247  58.353  1.00  0.00     0.082 C 
HETATM   14  O5  UNL     1      21.763  20.404  57.998  1.00  0.00    -0.309 OA
HETATM   15  C21 UNL     1      21.438  20.668  56.650  1.00  0.00     0.260 C 
HETATM   16  O6  UNL     1      22.076  21.576  56.043  1.00  0.00    -0.265 OA
HETATM   17  C22 UNL     1      20.343  19.885  55.932  1.00  0.00     0.122 C 
HETATM   18  C23 UNL     1      19.337  19.261  56.779  1.00  0.00    -0.014 C 
HETATM   19  C24 UNL     1      17.934  19.797  56.450  1.00  0.00     0.017 C 
HETATM   20  C25 UNL     1      19.316  17.748  57.038  1.00  0.00     0.031 C 
HETATM   21  C26 UNL     1      20.716  17.302  56.726  1.00  0.00     0.025 C 
HETATM   22  C27 UNL     1      21.607  18.180  57.552  1.00  0.00     0.019 C 
HETATM   23  C28 UNL     1      22.551  17.290  58.353  1.00  0.00     0.013 C 
ENDROOT
BRANCH   1  24
HETATM   24  C7  UNL     1      18.675  17.128  54.646  1.00  0.00     0.016 C 
HETATM   25  C6  UNL     1      17.756  17.617  53.651  1.00  0.00     0.074 C 
BRANCH  25  26
HETATM   26  C5  UNL     1      16.548  17.056  53.142  1.00  0.00     0.241 C 
HETATM   27  N1  UNL     1      16.318  15.614  53.158  1.00  0.00    -0.358 N 
ATOM     28  H1  UNL     1      17.018  14.977  53.536  1.00  0.00     0.162 HD
HETATM   29  O1  UNL     1      15.611  17.736  52.655  1.00  0.00    -0.269 OA
BRANCH  27  30
HETATM   30  C4  UNL     1      15.090  15.122  52.632  1.00  0.00     0.123 C 
BRANCH  30  31
HETATM   31  C3  UNL     1      15.370  14.563  51.244  1.00  0.00     0.019 C 
BRANCH  31  32
HETATM   32  C2  UNL     1      14.256  13.644  50.812  1.00  0.00    -0.003 C 
HETATM   33  C1  UNL     1      14.605  12.205  51.103  1.00  0.00     0.005 C 
ENDBRANCH  31  32
ENDBRANCH  30  31
ENDBRANCH  27  30
ENDBRANCH  25  26
ENDBRANCH   1  24
BRANCH   2  34
HETATM   34  O2  UNL     1      16.301  15.793  56.392  1.00  0.00    -0.364 OA
ATOM     35  H2  UNL     1      15.933  15.125  55.826  1.00  0.00     0.217 HD
ENDBRANCH   2  34
BRANCH   5  36
HETATM   36  O4  UNL     1      17.608  17.351  58.639  1.00  0.00    -0.386 OA
ATOM     37  H4  UNL     1      17.589  16.503  59.067  1.00  0.00     0.210 HD
ENDBRANCH   5  36
BRANCH   4  38
HETATM   38  O3  UNL     1      18.654  15.572  59.894  1.00  0.00    -0.392 OA
ATOM     39  H3  UNL     1      19.042  16.286  60.386  1.00  0.00     0.210 HD
ENDBRANCH   4  38
TORSDOF 8
ENDMDL
MODEL 5
REMARK VINA RESULT: -7.278970803      3.903      7.680
REMARK  8 active torsions:
REMARK  status: ('A' for Active; 'I' for Inactive)
REMARK    1  A    between atoms: C2_2  and  C3_3 
REMARK    2  A    between atoms: C3_3  and  C4_4 
REMARK    3  A    between atoms: C4_4  and  N1_5 
REMARK       I    between atoms: N1_5  and  C5_7 
REMARK    4  A    between atoms: C5_7  and  C6_9 
REMARK    5  A    between atoms: C7_10  and  C8_11 
REMARK    6  A    between atoms: C9_12  and  O2_13 
REMARK    7  A    between atoms: C11_16  and  O3_17 
REMARK    8  A    between atoms: C12_19  and  O4_20 
ROOT
HETATM    1  C8  UNL     1      19.732  19.606  57.085  1.00  0.00    -0.016 C 
HETATM    2  C9  UNL     1      19.450  20.970  56.668  1.00  0.00     0.053 C 
HETATM    3  C10 UNL     1      18.958  21.232  55.277  1.00  0.00     0.099 C 
HETATM    4  C11 UNL     1      18.637  20.033  54.492  1.00  0.00     0.159 C 
HETATM    5  C12 UNL     1      18.193  18.810  55.328  1.00  0.00     0.097 C 
HETATM    6  C13 UNL     1      17.485  17.977  54.417  1.00  0.00     0.049 C 
HETATM    7  C14 UNL     1      17.782  16.518  54.099  1.00  0.00     0.028 C 
HETATM    8  C15 UNL     1      16.618  15.581  54.262  1.00  0.00    -0.012 C 
HETATM    9  C16 UNL     1      15.462  16.023  53.381  1.00  0.00     0.010 C 
HETATM   10  C17 UNL     1      16.111  15.286  55.603  1.00  0.00     0.005 C 
HETATM   11  C18 UNL     1      17.193  15.344  56.720  1.00  0.00     0.009 C 
HETATM   12  C19 UNL     1      18.053  16.440  56.305  1.00  0.00     0.031 C 
HETATM   13  C20 UNL     1      18.787  16.160  55.062  1.00  0.00     0.082 C 
HETATM   14  O5  UNL     1      19.152  14.793  55.334  1.00  0.00    -0.309 OA
HETATM   15  C21 UNL     1      19.930  14.846  56.510  1.00  0.00     0.260 C 
HETATM   16  O6  UNL     1      20.483  13.784  56.916  1.00  0.00    -0.265 OA
HETATM   17  C22 UNL     1      20.104  16.149  57.285  1.00  0.00     0.122 C 
HETATM   18  C23 UNL     1      19.073  17.158  57.087  1.00  0.00    -0.014 C 
HETATM   19  C24 UNL     1      18.377  17.499  58.415  1.00  0.00     0.017 C 
HETATM   20  C25 UNL     1      19.316  18.414  56.239  1.00  0.00     0.031 C 
HETATM   21  C26 UNL     1      20.476  18.045  55.359  1.00  0.00     0.025 C 
HETATM   22  C27 UNL     1      20.077  16.767  54.687  1.00  0.00     0.019 C 
HETATM   23  C28 UNL     1      20.256  16.937  53.183  1.00  0.00     0.013 C 
ENDROOT
BRANCH   1  24
HETATM   24  C7  UNL     1      20.987  19.454  57.865  1.00  0.00     0.016 C 
HETATM   25  C6  UNL     1      21.059  19.415  59.303  1.00  0.00     0.074 C 
BRANCH  25  26
HETATM   26  C5  UNL     1      20.826  20.433  60.275  1.00  0.00     0.241 C 
HETATM   27  N1  UNL     1      20.581  21.816  59.880  1.00  0.00    -0.358 N 
ATOM     28  H1  UNL     1      20.569  22.085  58.896  1.00  0.00     0.162 HD
HETATM   29  O1  UNL     1      20.812  20.226  61.514  1.00  0.00    -0.269 OA
BRANCH  27  30
HETATM   30  C4  UNL     1      20.358  22.780  60.903  1.00  0.00     0.123 C 
BRANCH  30  31
HETATM   31  C3  UNL     1      21.194  24.008  60.574  1.00  0.00     0.019 C 
BRANCH  31  32
HETATM   32  C2  UNL     1      22.628  23.617  60.320  1.00  0.00    -0.003 C 
HETATM   33  C1  UNL     1      23.323  23.263  61.612  1.00  0.00     0.005 C 
ENDBRANCH  31  32
ENDBRANCH  30  31
ENDBRANCH  27  30
ENDBRANCH  25  26
ENDBRANCH   1  24
BRANCH   2  34
HETATM   34  O2  UNL     1      18.708  21.738  57.622  1.00  0.00    -0.364 OA
ATOM     35  H2  UNL     1      18.722  21.386  58.504  1.00  0.00     0.217 HD
ENDBRANCH   2  34
BRANCH   5  36
HETATM   36  O4  UNL     1      17.241  19.562  56.106  1.00  0.00    -0.386 OA
ATOM     37  H4  UNL     1      17.432  20.382  55.666  1.00  0.00     0.210 HD
ENDBRANCH   5  36
BRANCH   4  38
HETATM   38  O3  UNL     1      17.395  20.386  53.841  1.00  0.00    -0.392 OA
ATOM     39  H3  UNL     1      16.785  19.736  54.168  1.00  0.00     0.210 HD
ENDBRANCH   4  38
TORSDOF 8
ENDMDL
