MODEL 1
REMARK VINA RESULT: -12.567019103      0.000      0.000
REMARK  5 active torsions:
REMARK  status: ('A' for Active; 'I' for Inactive)
REMARK    1  A    between atoms: C4_4  and  C5_5 
REMARK    2  A    between atoms: C8_8  and  C9_9 
REMARK    3  A    between atoms: C9_9  and  N1_10 
REMARK    4  A    between atoms: N1_10  and  C10_11 
REMARK    5  A    between atoms: N1_10  and  C16_17 
ROOT
HETATM    1  N1  UNL     1      55.808  33.551  71.038  1.00  0.00    -0.343 N 
ENDROOT
BRANCH   1   2
HETATM    2  C9  UNL     1      56.206  34.522  71.989  1.00  0.00     0.168 C 
BRANCH   2   3
HETATM    3  C8  UNL     1      57.165  34.142  73.017  1.00  0.00    -0.040 A 
HETATM    4  C7  UNL     1      58.527  34.234  72.870  1.00  0.00     0.010 A 
HETATM    5  C6  UNL     1      59.367  33.833  73.881  1.00  0.00     0.013 A 
HETATM    6  C5  UNL     1      58.863  33.324  75.080  1.00  0.00    -0.026 A 
HETATM    7  C27 UNL     1      57.508  33.225  75.248  1.00  0.00     0.013 A 
HETATM    8  C26 UNL     1      56.675  33.626  74.235  1.00  0.00     0.010 A 
BRANCH   6   9
HETATM    9  C4  UNL     1      59.828  32.897  76.103  1.00  0.00    -0.026 A 
HETATM   10  C3  UNL     1      59.985  31.548  76.392  1.00  0.00     0.012 A 
HETATM   11  C2  UNL     1      60.873  31.110  77.345  1.00  0.00     0.001 A 
HETATM   12  C1  UNL     1      61.642  32.014  78.049  1.00  0.00     0.000 A 
HETATM   13  C29 UNL     1      61.497  33.351  77.773  1.00  0.00     0.001 A 
HETATM   14  C28 UNL     1      60.597  33.791  76.808  1.00  0.00     0.012 A 
ENDBRANCH   6   9
ENDBRANCH   2   3
ENDBRANCH   1   2
BRANCH   1  15
HETATM   15  C10 UNL     1      56.129  32.176  71.166  1.00  0.00     0.035 A 
HETATM   16  C11 UNL     1      57.108  31.542  70.455  1.00  0.00     0.029 A 
HETATM   17  C12 UNL     1      57.415  30.187  70.596  1.00  0.00     0.002 A 
HETATM   18  C13 UNL     1      56.704  29.421  71.494  1.00  0.00     0.000 A 
HETATM   19  C14 UNL     1      55.712  30.047  72.219  1.00  0.00     0.002 A 
HETATM   20  C15 UNL     1      55.417  31.383  72.074  1.00  0.00     0.029 A 
ENDBRANCH   1  15
BRANCH   1  21
HETATM   21  C16 UNL     1      55.055  33.982  69.889  1.00  0.00     0.035 A 
HETATM   22  C17 UNL     1      54.136  33.173  69.239  1.00  0.00     0.030 A 
HETATM   23  C18 UNL     1      53.410  33.604  68.143  1.00  0.00     0.014 A 
HETATM   24  C19 UNL     1      53.600  34.898  67.664  1.00  0.00    -0.026 A 
HETATM   25  C20 UNL     1      52.882  35.350  66.571  1.00  0.00     0.012 A 
HETATM   26  C24 UNL     1      54.508  35.735  68.284  1.00  0.00    -0.024 A 
HETATM   27  C21 UNL     1      53.061  36.631  66.094  1.00  0.00     0.001 A 
HETATM   28  C22 UNL     1      53.965  37.494  66.697  1.00  0.00     0.001 A 
HETATM   29  C23 UNL     1      54.665  37.007  67.785  1.00  0.00     0.012 A 
HETATM   30  C25 UNL     1      55.204  35.257  69.371  1.00  0.00     0.042 A 
ENDBRANCH   1  21
TORSDOF 5
ENDMDL
MODEL 2
REMARK VINA RESULT: -12.509481887      0.304      1.252
REMARK  5 active torsions:
REMARK  status: ('A' for Active; 'I' for Inactive)
REMARK    1  A    between atoms: C4_4  and  C5_5 
REMARK    2  A    between atoms: C8_8  and  C9_9 
REMARK    3  A    between atoms: C9_9  and  N1_10 
REMARK    4  A    between atoms: N1_10  and  C10_11 
REMARK    5  A    between atoms: N1_10  and  C16_17 
ROOT
HETATM    1  N1  UNL     1      55.773  33.630  70.904  1.00  0.00    -0.343 N 
ENDROOT
BRANCH   1   2
HETATM    2  C9  UNL     1      56.098  34.548  71.931  1.00  0.00     0.168 C 
BRANCH   2   3
HETATM    3  C8  UNL     1      57.019  34.128  72.979  1.00  0.00    -0.040 A 
HETATM    4  C7  UNL     1      56.623  33.686  74.218  1.00  0.00     0.010 A 
HETATM    5  C6  UNL     1      57.555  33.327  75.161  1.00  0.00     0.013 A 
HETATM    6  C5  UNL     1      58.923  33.400  74.889  1.00  0.00    -0.026 A 
HETATM    7  C27 UNL     1      59.339  33.837  73.661  1.00  0.00     0.013 A 
HETATM    8  C26 UNL     1      58.404  34.194  72.724  1.00  0.00     0.010 A 
BRANCH   6   9
HETATM    9  C4  UNL     1      59.856  33.019  75.960  1.00  0.00    -0.026 A 
HETATM   10  C3  UNL     1      60.037  31.681  76.281  1.00  0.00     0.012 A 
HETATM   11  C2  UNL     1      60.896  31.285  77.279  1.00  0.00     0.001 A 
HETATM   12  C1  UNL     1      61.609  32.223  77.997  1.00  0.00     0.000 A 
HETATM   13  C29 UNL     1      61.439  33.550  77.689  1.00  0.00     0.001 A 
HETATM   14  C28 UNL     1      60.569  33.948  76.679  1.00  0.00     0.012 A 
ENDBRANCH   6   9
ENDBRANCH   2   3
ENDBRANCH   1   2
BRANCH   1  15
HETATM   15  C10 UNL     1      56.190  32.274  70.926  1.00  0.00     0.035 A 
HETATM   16  C11 UNL     1      55.730  31.340  71.811  1.00  0.00     0.029 A 
HETATM   17  C12 UNL     1      56.148  30.007  71.817  1.00  0.00     0.002 A 
HETATM   18  C13 UNL     1      57.076  29.584  70.892  1.00  0.00     0.000 A 
HETATM   19  C14 UNL     1      57.550  30.515  69.992  1.00  0.00     0.002 A 
HETATM   20  C15 UNL     1      57.132  31.826  69.993  1.00  0.00     0.029 A 
ENDBRANCH   1  15
BRANCH   1  21
HETATM   21  C16 UNL     1      54.996  34.096  69.785  1.00  0.00     0.035 A 
HETATM   22  C17 UNL     1      54.007  33.335  69.180  1.00  0.00     0.030 A 
HETATM   23  C18 UNL     1      53.259  33.801  68.114  1.00  0.00     0.014 A 
HETATM   24  C19 UNL     1      53.497  35.080  67.619  1.00  0.00    -0.026 A 
HETATM   25  C20 UNL     1      52.757  35.566  66.555  1.00  0.00     0.012 A 
HETATM   26  C24 UNL     1      54.475  35.869  68.194  1.00  0.00    -0.024 A 
HETATM   27  C21 UNL     1      52.985  36.833  66.063  1.00  0.00     0.001 A 
HETATM   28  C22 UNL     1      53.959  37.649  66.620  1.00  0.00     0.001 A 
HETATM   29  C23 UNL     1      54.678  37.129  67.681  1.00  0.00     0.012 A 
HETATM   30  C25 UNL     1      55.191  35.359  69.254  1.00  0.00     0.042 A 
ENDBRANCH   1  21
TORSDOF 5
ENDMDL
MODEL 3
REMARK VINA RESULT: -12.197750945      2.396     10.081
REMARK  5 active torsions:
REMARK  status: ('A' for Active; 'I' for Inactive)
REMARK    1  A    between atoms: C4_4  and  C5_5 
REMARK    2  A    between atoms: C8_8  and  C9_9 
REMARK    3  A    between atoms: C9_9  and  N1_10 
REMARK    4  A    between atoms: N1_10  and  C10_11 
REMARK    5  A    between atoms: N1_10  and  C16_17 
ROOT
HETATM    1  N1  UNL     1      59.578  32.255  76.408  1.00  0.00    -0.343 N 
ENDROOT
BRANCH   1   2
HETATM    2  C9  UNL     1      59.552  33.377  75.544  1.00  0.00     0.168 C 
BRANCH   2   3
HETATM    3  C8  UNL     1      58.616  33.378  74.427  1.00  0.00    -0.040 A 
HETATM    4  C7  UNL     1      58.932  32.954  73.160  1.00  0.00     0.010 A 
HETATM    5  C6  UNL     1      57.998  33.007  72.154  1.00  0.00     0.013 A 
HETATM    6  C5  UNL     1      56.709  33.492  72.389  1.00  0.00    -0.026 A 
HETATM    7  C27 UNL     1      56.374  33.919  73.646  1.00  0.00     0.013 A 
HETATM    8  C26 UNL     1      57.310  33.864  74.645  1.00  0.00     0.010 A 
BRANCH   6   9
HETATM    9  C4  UNL     1      55.776  33.537  71.254  1.00  0.00    -0.026 A 
HETATM   10  C3  UNL     1      55.974  34.448  70.226  1.00  0.00     0.012 A 
HETATM   11  C2  UNL     1      55.121  34.525  69.151  1.00  0.00     0.001 A 
HETATM   12  C1  UNL     1      54.030  33.685  69.066  1.00  0.00     0.000 A 
HETATM   13  C29 UNL     1      53.822  32.778  70.077  1.00  0.00     0.001 A 
HETATM   14  C28 UNL     1      54.687  32.704  71.164  1.00  0.00     0.012 A 
ENDBRANCH   6   9
ENDBRANCH   2   3
ENDBRANCH   1   2
BRANCH   1  15
HETATM   15  C10 UNL     1      58.574  31.253  76.394  1.00  0.00     0.035 A 
HETATM   16  C11 UNL     1      58.517  30.230  75.491  1.00  0.00     0.029 A 
HETATM   17  C12 UNL     1      57.524  29.248  75.493  1.00  0.00     0.002 A 
HETATM   18  C13 UNL     1      56.531  29.291  76.447  1.00  0.00     0.000 A 
HETATM   19  C14 UNL     1      56.574  30.319  77.366  1.00  0.00     0.002 A 
HETATM   20  C15 UNL     1      57.557  31.281  77.356  1.00  0.00     0.029 A 
ENDBRANCH   1  15
BRANCH   1  21
HETATM   21  C16 UNL     1      60.663  32.133  77.346  1.00  0.00     0.035 A 
HETATM   22  C17 UNL     1      61.587  33.142  77.569  1.00  0.00     0.030 A 
HETATM   23  C18 UNL     1      62.618  33.016  78.483  1.00  0.00     0.014 A 
HETATM   24  C19 UNL     1      62.743  31.838  79.215  1.00  0.00    -0.026 A 
HETATM   25  C20 UNL     1      63.765  31.694  80.136  1.00  0.00     0.012 A 
HETATM   26  C24 UNL     1      61.841  30.809  79.020  1.00  0.00    -0.024 A 
HETATM   27  C21 UNL     1      63.892  30.531  80.867  1.00  0.00     0.001 A 
HETATM   28  C22 UNL     1      63.002  29.482  80.695  1.00  0.00     0.001 A 
HETATM   29  C23 UNL     1      61.994  29.662  79.765  1.00  0.00     0.012 A 
HETATM   30  C25 UNL     1      60.834  30.984  78.100  1.00  0.00     0.042 A 
ENDBRANCH   1  21
TORSDOF 5
ENDMDL
MODEL 4
REMARK VINA RESULT: -12.034428095      2.738      4.360
REMARK  5 active torsions:
REMARK  status: ('A' for Active; 'I' for Inactive)
REMARK    1  A    between atoms: C4_4  and  C5_5 
REMARK    2  A    between atoms: C8_8  and  C9_9 
REMARK    3  A    between atoms: C9_9  and  N1_10 
REMARK    4  A    between atoms: N1_10  and  C10_11 
REMARK    5  A    between atoms: N1_10  and  C16_17 
ROOT
HETATM    1  N1  UNL     1      56.011  32.815  73.312  1.00  0.00    -0.343 N 
ENDROOT
BRANCH   1   2
HETATM    2  C9  UNL     1      55.340  32.047  74.296  1.00  0.00     0.168 C 
BRANCH   2   3
HETATM    3  C8  UNL     1      56.069  30.979  74.966  1.00  0.00    -0.040 A 
HETATM    4  C7  UNL     1      56.324  29.753  74.405  1.00  0.00     0.010 A 
HETATM    5  C6  UNL     1      57.001  28.789  75.112  1.00  0.00     0.013 A 
HETATM    6  C5  UNL     1      57.446  29.027  76.414  1.00  0.00    -0.026 A 
HETATM    7  C27 UNL     1      57.203  30.243  76.993  1.00  0.00     0.013 A 
HETATM    8  C26 UNL     1      56.527  31.201  76.282  1.00  0.00     0.010 A 
BRANCH   6   9
HETATM    9  C4  UNL     1      58.142  27.935  77.111  1.00  0.00    -0.026 A 
HETATM   10  C3  UNL     1      57.435  26.821  77.540  1.00  0.00     0.012 A 
HETATM   11  C2  UNL     1      58.049  25.783  78.199  1.00  0.00     0.001 A 
HETATM   12  C1  UNL     1      59.404  25.824  78.455  1.00  0.00     0.000 A 
HETATM   13  C29 UNL     1      60.116  26.921  78.035  1.00  0.00     0.001 A 
HETATM   14  C28 UNL     1      59.491  27.970  77.369  1.00  0.00     0.012 A 
ENDBRANCH   6   9
ENDBRANCH   2   3
ENDBRANCH   1   2
BRANCH   1  15
HETATM   15  C10 UNL     1      57.273  33.421  73.541  1.00  0.00     0.035 A 
HETATM   16  C11 UNL     1      57.458  34.571  74.254  1.00  0.00     0.029 A 
HETATM   17  C12 UNL     1      58.708  35.154  74.475  1.00  0.00     0.002 A 
HETATM   18  C13 UNL     1      59.835  34.558  73.953  1.00  0.00     0.000 A 
HETATM   19  C14 UNL     1      59.664  33.395  73.230  1.00  0.00     0.002 A 
HETATM   20  C15 UNL     1      58.428  32.829  73.018  1.00  0.00     0.029 A 
ENDBRANCH   1  15
BRANCH   1  21
HETATM   21  C16 UNL     1      55.380  32.994  72.031  1.00  0.00     0.035 A 
HETATM   22  C17 UNL     1      54.400  32.144  71.543  1.00  0.00     0.030 A 
HETATM   23  C18 UNL     1      53.792  32.336  70.316  1.00  0.00     0.014 A 
HETATM   24  C19 UNL     1      54.169  33.421  69.529  1.00  0.00    -0.026 A 
HETATM   25  C20 UNL     1      53.571  33.633  68.299  1.00  0.00     0.012 A 
HETATM   26  C24 UNL     1      55.143  34.292  69.979  1.00  0.00    -0.024 A 
HETATM   27  C21 UNL     1      53.936  34.708  67.517  1.00  0.00     0.001 A 
HETATM   28  C22 UNL     1      54.910  35.600  67.943  1.00  0.00     0.001 A 
HETATM   29  C23 UNL     1      55.486  35.355  69.177  1.00  0.00     0.012 A 
HETATM   30  C25 UNL     1      55.716  34.057  71.209  1.00  0.00     0.042 A 
ENDBRANCH   1  21
TORSDOF 5
ENDMDL
MODEL 5
REMARK VINA RESULT: -11.977254212      3.550     10.238
REMARK  5 active torsions:
REMARK  status: ('A' for Active; 'I' for Inactive)
REMARK    1  A    between atoms: C4_4  and  C5_5 
REMARK    2  A    between atoms: C8_8  and  C9_9 
REMARK    3  A    between atoms: C9_9  and  N1_10 
REMARK    4  A    between atoms: N1_10  and  C10_11 
REMARK    5  A    between atoms: N1_10  and  C16_17 
ROOT
HETATM    1  N1  UNL     1      58.489  29.403  77.992  1.00  0.00    -0.343 N 
ENDROOT
BRANCH   1   2
HETATM    2  C9  UNL     1      57.236  29.980  77.671  1.00  0.00     0.168 C 
BRANCH   2   3
HETATM    3  C8  UNL     1      56.912  30.214  76.270  1.00  0.00    -0.040 A 
HETATM    4  C7  UNL     1      56.972  29.248  75.295  1.00  0.00     0.010 A 
HETATM    5  C6  UNL     1      56.671  29.555  73.991  1.00  0.00     0.013 A 
HETATM    6  C5  UNL     1      56.298  30.849  73.619  1.00  0.00    -0.026 A 
HETATM    7  C27 UNL     1      56.232  31.826  74.575  1.00  0.00     0.013 A 
HETATM    8  C26 UNL     1      56.533  31.514  75.876  1.00  0.00     0.010 A 
BRANCH   6   9
HETATM    9  C4  UNL     1      56.014  31.099  72.199  1.00  0.00    -0.026 A 
HETATM   10  C3  UNL     1      57.003  30.896  71.246  1.00  0.00     0.012 A 
HETATM   11  C2  UNL     1      56.778  31.125  69.909  1.00  0.00     0.001 A 
HETATM   12  C1  UNL     1      55.545  31.568  69.475  1.00  0.00     0.000 A 
HETATM   13  C29 UNL     1      54.559  31.773  70.408  1.00  0.00     0.001 A 
HETATM   14  C28 UNL     1      54.790  31.541  71.761  1.00  0.00     0.012 A 
ENDBRANCH   6   9
ENDBRANCH   2   3
ENDBRANCH   1   2
BRANCH   1  15
HETATM   15  C10 UNL     1      58.662  28.010  78.196  1.00  0.00     0.035 A 
HETATM   16  C11 UNL     1      59.816  27.328  77.930  1.00  0.00     0.029 A 
HETATM   17  C12 UNL     1      59.972  25.956  78.141  1.00  0.00     0.002 A 
HETATM   18  C13 UNL     1      58.918  25.224  78.641  1.00  0.00     0.000 A 
HETATM   19  C14 UNL     1      57.746  25.898  78.915  1.00  0.00     0.002 A 
HETATM   20  C15 UNL     1      57.603  27.250  78.705  1.00  0.00     0.029 A 
ENDBRANCH   1  15
BRANCH   1  21
HETATM   21  C16 UNL     1      59.631  30.268  78.127  1.00  0.00     0.035 A 
HETATM   22  C17 UNL     1      59.805  31.416  77.369  1.00  0.00     0.030 A 
HETATM   23  C18 UNL     1      60.902  32.246  77.519  1.00  0.00     0.014 A 
HETATM   24  C19 UNL     1      61.875  31.929  78.463  1.00  0.00    -0.026 A 
HETATM   25  C20 UNL     1      62.978  32.748  78.631  1.00  0.00     0.012 A 
HETATM   26  C24 UNL     1      61.738  30.793  79.237  1.00  0.00    -0.024 A 
HETATM   27  C21 UNL     1      63.943  32.443  79.566  1.00  0.00     0.001 A 
HETATM   28  C22 UNL     1      63.833  31.310  80.359  1.00  0.00     0.001 A 
HETATM   29  C23 UNL     1      62.718  30.515  80.162  1.00  0.00     0.012 A 
HETATM   30  C25 UNL     1      60.628  30.001  79.050  1.00  0.00     0.042 A 
ENDBRANCH   1  21
TORSDOF 5
ENDMDL
