MODEL 1
REMARK VINA RESULT: -13.625740392      0.000      0.000
REMARK  5 active torsions:
REMARK  status: ('A' for Active; 'I' for Inactive)
REMARK    1  A    between atoms: C4_4  and  C5_5 
REMARK    2  A    between atoms: C8_8  and  C9_9 
REMARK    3  A    between atoms: C12_12  and  C13_13 
REMARK    4  A    between atoms: C13_13  and  O1_14 
REMARK    5  A    between atoms: O1_14  and  C14_15 
ROOT
HETATM    1  C9  UNL     1      55.741  31.866  72.731  1.00  0.00    -0.026 A 
HETATM    2  C10 UNL     1      55.632  32.404  73.993  1.00  0.00     0.013 A 
HETATM    3  C11 UNL     1      56.046  31.684  75.089  1.00  0.00     0.010 A 
HETATM    4  C12 UNL     1      56.579  30.419  74.988  1.00  0.00    -0.034 A 
HETATM    5  C24 UNL     1      56.671  29.912  73.698  1.00  0.00     0.010 A 
HETATM    6  C25 UNL     1      56.265  30.610  72.591  1.00  0.00     0.013 A 
ENDROOT
BRANCH   1   7
HETATM    7  C8  UNL     1      55.296  32.646  71.557  1.00  0.00    -0.026 A 
HETATM    8  C7  UNL     1      56.016  33.774  71.256  1.00  0.00     0.013 A 
HETATM    9  C6  UNL     1      55.613  34.524  70.153  1.00  0.00     0.013 A 
HETATM   10  C5  UNL     1      54.529  34.162  69.379  1.00  0.00    -0.026 A 
HETATM   11  C27 UNL     1      53.836  33.028  69.713  1.00  0.00     0.013 A 
HETATM   12  C26 UNL     1      54.211  32.246  70.815  1.00  0.00     0.013 A 
BRANCH  10  13
HETATM   13  C4  UNL     1      54.195  35.017  68.251  1.00  0.00    -0.026 A 
HETATM   14  C3  UNL     1      53.550  34.494  67.134  1.00  0.00     0.012 A 
HETATM   15  C2  UNL     1      53.262  35.356  66.102  1.00  0.00     0.001 A 
HETATM   16  C1  UNL     1      53.575  36.693  66.119  1.00  0.00     0.000 A 
HETATM   17  C29 UNL     1      54.220  37.218  67.234  1.00  0.00     0.001 A 
HETATM   18  C28 UNL     1      54.509  36.368  68.261  1.00  0.00     0.012 A 
ENDBRANCH  10  13
ENDBRANCH   1   7
BRANCH   4  19
HETATM   19  C13 UNL     1      57.028  29.640  76.171  1.00  0.00     0.214 C 
BRANCH  19  20
HETATM   20  O1  UNL     1      58.411  29.349  75.985  1.00  0.00    -0.347 OA
BRANCH  20  21
HETATM   21  C14 UNL     1      59.387  30.069  76.688  1.00  0.00     0.070 A 
HETATM   22  C15 UNL     1      59.671  31.370  76.340  1.00  0.00     0.037 A 
HETATM   23  C16 UNL     1      60.629  32.087  77.027  1.00  0.00     0.015 A 
HETATM   24  C17 UNL     1      61.340  31.542  78.082  1.00  0.00    -0.026 A 
HETATM   25  C18 UNL     1      62.291  32.289  78.748  1.00  0.00     0.012 A 
HETATM   26  C22 UNL     1      61.042  30.229  78.422  1.00  0.00    -0.023 A 
HETATM   27  C19 UNL     1      62.972  31.706  79.791  1.00  0.00     0.001 A 
HETATM   28  C20 UNL     1      62.708  30.391  80.169  1.00  0.00     0.001 A 
HETATM   29  C21 UNL     1      61.751  29.684  79.477  1.00  0.00     0.012 A 
HETATM   30  C23 UNL     1      60.084  29.511  77.736  1.00  0.00     0.049 A 
ENDBRANCH  20  21
ENDBRANCH  19  20
ENDBRANCH   4  19
TORSDOF 5
ENDMDL
MODEL 2
REMARK VINA RESULT: -13.596789354      0.803      1.563
REMARK  5 active torsions:
REMARK  status: ('A' for Active; 'I' for Inactive)
REMARK    1  A    between atoms: C4_4  and  C5_5 
REMARK    2  A    between atoms: C8_8  and  C9_9 
REMARK    3  A    between atoms: C12_12  and  C13_13 
REMARK    4  A    between atoms: C13_13  and  O1_14 
REMARK    5  A    between atoms: O1_14  and  C14_15 
ROOT
HETATM    1  C9  UNL     1      55.467  31.796  72.422  1.00  0.00    -0.026 A 
HETATM    2  C10 UNL     1      55.427  32.274  73.712  1.00  0.00     0.013 A 
HETATM    3  C11 UNL     1      55.755  31.451  74.763  1.00  0.00     0.010 A 
HETATM    4  C12 UNL     1      56.130  30.139  74.589  1.00  0.00    -0.034 A 
HETATM    5  C24 UNL     1      56.157  29.695  73.274  1.00  0.00     0.010 A 
HETATM    6  C25 UNL     1      55.835  30.496  72.209  1.00  0.00     0.013 A 
ENDROOT
BRANCH   1   7
HETATM    7  C8  UNL     1      55.115  32.686  71.295  1.00  0.00    -0.026 A 
HETATM    8  C7  UNL     1      55.932  33.768  71.084  1.00  0.00     0.013 A 
HETATM    9  C6  UNL     1      55.618  34.620  70.028  1.00  0.00     0.013 A 
HETATM   10  C5  UNL     1      54.527  34.401  69.211  1.00  0.00    -0.026 A 
HETATM   11  C27 UNL     1      53.736  33.309  69.454  1.00  0.00     0.013 A 
HETATM   12  C26 UNL     1      54.019  32.428  70.507  1.00  0.00     0.013 A 
BRANCH  10  13
HETATM   13  C4  UNL     1      54.292  35.354  68.138  1.00  0.00    -0.026 A 
HETATM   14  C3  UNL     1      53.837  34.921  66.896  1.00  0.00     0.012 A 
HETATM   15  C2  UNL     1      53.634  35.872  65.923  1.00  0.00     0.001 A 
HETATM   16  C1  UNL     1      53.853  37.214  66.116  1.00  0.00     0.000 A 
HETATM   17  C29 UNL     1      54.307  37.650  67.357  1.00  0.00     0.001 A 
HETATM   18  C28 UNL     1      54.512  36.711  68.325  1.00  0.00     0.012 A 
ENDBRANCH  10  13
ENDBRANCH   1   7
BRANCH   4  19
HETATM   19  C13 UNL     1      56.486  29.249  75.725  1.00  0.00     0.214 C 
BRANCH  19  20
HETATM   20  O1  UNL     1      57.854  28.880  75.561  1.00  0.00    -0.347 OA
BRANCH  20  21
HETATM   21  C14 UNL     1      58.852  29.509  76.317  1.00  0.00     0.070 A 
HETATM   22  C15 UNL     1      59.623  28.775  77.190  1.00  0.00     0.037 A 
HETATM   23  C16 UNL     1      60.608  29.386  77.938  1.00  0.00     0.015 A 
HETATM   24  C17 UNL     1      60.867  30.743  77.849  1.00  0.00    -0.026 A 
HETATM   25  C18 UNL     1      61.862  31.321  78.612  1.00  0.00     0.012 A 
HETATM   26  C22 UNL     1      60.081  31.469  76.963  1.00  0.00    -0.023 A 
HETATM   27  C19 UNL     1      62.082  32.672  78.489  1.00  0.00     0.001 A 
HETATM   28  C20 UNL     1      61.320  33.443  77.614  1.00  0.00     0.001 A 
HETATM   29  C21 UNL     1      60.339  32.825  76.873  1.00  0.00     0.012 A 
HETATM   30  C23 UNL     1      59.096  30.860  76.215  1.00  0.00     0.049 A 
ENDBRANCH  20  21
ENDBRANCH  19  20
ENDBRANCH   4  19
TORSDOF 5
ENDMDL
MODEL 3
REMARK VINA RESULT: -13.560083396      0.569      1.855
REMARK  5 active torsions:
REMARK  status: ('A' for Active; 'I' for Inactive)
REMARK    1  A    between atoms: C4_4  and  C5_5 
REMARK    2  A    between atoms: C8_8  and  C9_9 
REMARK    3  A    between atoms: C12_12  and  C13_13 
REMARK    4  A    between atoms: C13_13  and  O1_14 
REMARK    5  A    between atoms: O1_14  and  C14_15 
ROOT
HETATM    1  C9  UNL     1      55.712  31.679  72.712  1.00  0.00    -0.026 A 
HETATM    2  C10 UNL     1      55.710  32.183  73.993  1.00  0.00     0.013 A 
HETATM    3  C11 UNL     1      56.038  31.372  75.054  1.00  0.00     0.010 A 
HETATM    4  C12 UNL     1      56.376  30.047  74.898  1.00  0.00    -0.034 A 
HETATM    5  C24 UNL     1      56.365  29.578  73.591  1.00  0.00     0.010 A 
HETATM    6  C25 UNL     1      56.042  30.366  72.518  1.00  0.00     0.013 A 
ENDROOT
BRANCH   1   7
HETATM    7  C8  UNL     1      55.361  32.557  71.575  1.00  0.00    -0.026 A 
HETATM    8  C7  UNL     1      54.197  32.269  70.909  1.00  0.00     0.013 A 
HETATM    9  C6  UNL     1      53.848  33.083  69.833  1.00  0.00     0.013 A 
HETATM   10  C5  UNL     1      54.633  34.147  69.437  1.00  0.00    -0.026 A 
HETATM   11  C27 UNL     1      55.788  34.401  70.128  1.00  0.00     0.013 A 
HETATM   12  C26 UNL     1      56.173  33.605  71.216  1.00  0.00     0.013 A 
BRANCH  10  13
HETATM   13  C4  UNL     1      54.175  34.931  68.301  1.00  0.00    -0.026 A 
HETATM   14  C3  UNL     1      54.492  36.282  68.201  1.00  0.00     0.012 A 
HETATM   15  C2  UNL     1      54.028  36.968  67.103  1.00  0.00     0.001 A 
HETATM   16  C1  UNL     1      53.278  36.390  66.109  1.00  0.00     0.000 A 
HETATM   17  C29 UNL     1      52.960  35.038  66.205  1.00  0.00     0.001 A 
HETATM   18  C28 UNL     1      53.416  34.354  67.293  1.00  0.00     0.012 A 
ENDBRANCH  10  13
ENDBRANCH   1   7
BRANCH   4  19
HETATM   19  C13 UNL     1      56.732  29.170  76.044  1.00  0.00     0.214 C 
BRANCH  19  20
HETATM   20  O1  UNL     1      58.091  28.776  75.869  1.00  0.00    -0.347 OA
BRANCH  20  21
HETATM   21  C14 UNL     1      59.090  29.290  76.708  1.00  0.00     0.070 A 
HETATM   22  C15 UNL     1      59.672  28.486  77.662  1.00  0.00     0.037 A 
HETATM   23  C16 UNL     1      60.656  28.983  78.491  1.00  0.00     0.015 A 
HETATM   24  C17 UNL     1      61.099  30.291  78.407  1.00  0.00    -0.026 A 
HETATM   25  C18 UNL     1      62.087  30.754  79.253  1.00  0.00     0.012 A 
HETATM   26  C22 UNL     1      60.502  31.089  77.440  1.00  0.00    -0.023 A 
HETATM   27  C19 UNL     1      62.496  32.062  79.132  1.00  0.00     0.001 A 
HETATM   28  C20 UNL     1      61.927  32.902  78.177  1.00  0.00     0.001 A 
HETATM   29  C21 UNL     1      60.946  32.397  77.354  1.00  0.00     0.012 A 
HETATM   30  C23 UNL     1      59.519  30.594  76.610  1.00  0.00     0.049 A 
ENDBRANCH  20  21
ENDBRANCH  19  20
ENDBRANCH   4  19
TORSDOF 5
ENDMDL
MODEL 4
REMARK VINA RESULT: -13.528828864      0.295      1.262
REMARK  5 active torsions:
REMARK  status: ('A' for Active; 'I' for Inactive)
REMARK    1  A    between atoms: C4_4  and  C5_5 
REMARK    2  A    between atoms: C8_8  and  C9_9 
REMARK    3  A    between atoms: C12_12  and  C13_13 
REMARK    4  A    between atoms: C13_13  and  O1_14 
REMARK    5  A    between atoms: O1_14  and  C14_15 
ROOT
HETATM    1  C9  UNL     1      55.832  31.728  72.800  1.00  0.00    -0.026 A 
HETATM    2  C10 UNL     1      55.679  32.221  74.076  1.00  0.00     0.013 A 
HETATM    3  C11 UNL     1      56.041  31.456  75.159  1.00  0.00     0.010 A 
HETATM    4  C12 UNL     1      56.563  30.189  75.033  1.00  0.00    -0.034 A 
HETATM    5  C24 UNL     1      56.701  29.729  73.730  1.00  0.00     0.010 A 
HETATM    6  C25 UNL     1      56.347  30.472  72.634  1.00  0.00     0.013 A 
ENDROOT
BRANCH   1   7
HETATM    7  C8  UNL     1      55.442  32.555  71.638  1.00  0.00    -0.026 A 
HETATM    8  C7  UNL     1      54.289  32.201  70.986  1.00  0.00     0.013 A 
HETATM    9  C6  UNL     1      53.904  32.967  69.888  1.00  0.00     0.013 A 
HETATM   10  C5  UNL     1      54.645  34.049  69.456  1.00  0.00    -0.026 A 
HETATM   11  C27 UNL     1      55.791  34.370  70.134  1.00  0.00     0.013 A 
HETATM   12  C26 UNL     1      56.212  33.624  71.244  1.00  0.00     0.013 A 
BRANCH  10  13
HETATM   13  C4  UNL     1      54.152  34.779  68.299  1.00  0.00    -0.026 A 
HETATM   14  C3  UNL     1      54.394  36.143  68.169  1.00  0.00     0.012 A 
HETATM   15  C2  UNL     1      53.901  36.776  67.051  1.00  0.00     0.001 A 
HETATM   16  C1  UNL     1      53.191  36.133  66.066  1.00  0.00     0.000 A 
HETATM   17  C29 UNL     1      52.948  34.769  66.194  1.00  0.00     0.001 A 
HETATM   18  C28 UNL     1      53.434  34.137  67.301  1.00  0.00     0.012 A 
ENDBRANCH  10  13
ENDBRANCH   1   7
BRANCH   4  19
HETATM   19  C13 UNL     1      56.956  29.363  76.203  1.00  0.00     0.214 C 
BRANCH  19  20
HETATM   20  O1  UNL     1      58.344  29.067  76.065  1.00  0.00    -0.347 OA
BRANCH  20  21
HETATM   21  C14 UNL     1      59.305  29.864  76.702  1.00  0.00     0.070 A 
HETATM   22  C15 UNL     1      59.536  31.149  76.265  1.00  0.00     0.037 A 
HETATM   23  C16 UNL     1      60.480  31.941  76.887  1.00  0.00     0.015 A 
HETATM   24  C17 UNL     1      61.226  31.492  77.962  1.00  0.00    -0.026 A 
HETATM   25  C18 UNL     1      62.161  32.312  78.561  1.00  0.00     0.012 A 
HETATM   26  C22 UNL     1      60.981  30.194  78.391  1.00  0.00    -0.023 A 
HETATM   27  C19 UNL     1      62.879  31.822  79.626  1.00  0.00     0.001 A 
HETATM   28  C20 UNL     1      62.669  30.526  80.093  1.00  0.00     0.001 A 
HETATM   29  C21 UNL     1      61.726  29.744  79.466  1.00  0.00     0.012 A 
HETATM   30  C23 UNL     1      60.038  29.400  77.771  1.00  0.00     0.049 A 
ENDBRANCH  20  21
ENDBRANCH  19  20
ENDBRANCH   4  19
TORSDOF 5
ENDMDL
MODEL 5
REMARK VINA RESULT: -13.500885812      0.465      1.791
REMARK  5 active torsions:
REMARK  status: ('A' for Active; 'I' for Inactive)
REMARK    1  A    between atoms: C4_4  and  C5_5 
REMARK    2  A    between atoms: C8_8  and  C9_9 
REMARK    3  A    between atoms: C12_12  and  C13_13 
REMARK    4  A    between atoms: C13_13  and  O1_14 
REMARK    5  A    between atoms: O1_14  and  C14_15 
ROOT
HETATM    1  C9  UNL     1      55.739  31.836  72.722  1.00  0.00    -0.026 A 
HETATM    2  C10 UNL     1      56.198  30.553  72.527  1.00  0.00     0.013 A 
HETATM    3  C11 UNL     1      56.589  29.789  73.601  1.00  0.00     0.010 A 
HETATM    4  C12 UNL     1      56.544  30.252  74.896  1.00  0.00    -0.034 A 
HETATM    5  C24 UNL     1      56.076  31.550  75.051  1.00  0.00     0.010 A 
HETATM    6  C25 UNL     1      55.681  32.331  73.996  1.00  0.00     0.013 A 
ENDROOT
BRANCH   1   7
HETATM    7  C8  UNL     1      55.319  32.652  71.563  1.00  0.00    -0.026 A 
HETATM    8  C7  UNL     1      56.024  33.806  71.331  1.00  0.00     0.013 A 
HETATM    9  C6  UNL     1      55.643  34.590  70.245  1.00  0.00     0.013 A 
HETATM   10  C5  UNL     1      54.595  34.236  69.420  1.00  0.00    -0.026 A 
HETATM   11  C27 UNL     1      53.915  33.077  69.685  1.00  0.00     0.013 A 
HETATM   12  C26 UNL     1      54.268  32.260  70.769  1.00  0.00     0.013 A 
BRANCH  10  13
HETATM   13  C4  UNL     1      54.282  35.128  68.315  1.00  0.00    -0.026 A 
HETATM   14  C3  UNL     1      54.610  36.479  68.382  1.00  0.00     0.012 A 
HETATM   15  C2  UNL     1      54.288  37.270  67.304  1.00  0.00     0.001 A 
HETATM   16  C1  UNL     1      53.666  36.796  66.174  1.00  0.00     0.000 A 
HETATM   17  C29 UNL     1      53.338  35.446  66.104  1.00  0.00     0.001 A 
HETATM   18  C28 UNL     1      53.654  34.657  67.171  1.00  0.00     0.012 A 
ENDBRANCH  10  13
ENDBRANCH   1   7
BRANCH   4  19
HETATM   19  C13 UNL     1      56.965  29.426  76.058  1.00  0.00     0.214 C 
BRANCH  19  20
HETATM   20  O1  UNL     1      58.331  29.072  75.853  1.00  0.00    -0.347 OA
BRANCH  20  21
HETATM   21  C14 UNL     1      59.307  29.449  76.785  1.00  0.00     0.070 A 
HETATM   22  C15 UNL     1      59.717  28.560  77.754  1.00  0.00     0.037 A 
HETATM   23  C16 UNL     1      60.677  28.922  78.676  1.00  0.00     0.015 A 
HETATM   24  C17 UNL     1      61.267  30.174  78.672  1.00  0.00    -0.026 A 
HETATM   25  C18 UNL     1      62.226  30.502  79.609  1.00  0.00     0.012 A 
HETATM   26  C22 UNL     1      60.843  31.059  77.689  1.00  0.00    -0.023 A 
HETATM   27  C19 UNL     1      62.784  31.758  79.566  1.00  0.00     0.001 A 
HETATM   28  C20 UNL     1      62.392  32.681  78.598  1.00  0.00     0.001 A 
HETATM   29  C21 UNL     1      61.433  32.310  77.684  1.00  0.00     0.012 A 
HETATM   30  C23 UNL     1      59.883  30.699  76.766  1.00  0.00     0.049 A 
ENDBRANCH  20  21
ENDBRANCH  19  20
ENDBRANCH   4  19
TORSDOF 5
ENDMDL
