MODEL 1
REMARK VINA RESULT: -11.006540363      0.000      0.000
REMARK  4 active torsions:
REMARK  status: ('A' for Active; 'I' for Inactive)
REMARK    1  A    between atoms: C4_4  and  C5_5 
REMARK    2  A    between atoms: C5_5  and  N1_6 
REMARK    3  A    between atoms: C14_15  and  C15_16 
REMARK    4  A    between atoms: C21_22  and  C22_23 
ROOT
HETATM    1  N1  UNL     1      57.540  30.633  75.124  1.00  0.00    -0.340 N 
HETATM    2  C6  UNL     1      58.373  30.065  76.023  1.00  0.00     0.046 A 
HETATM    3  C7  UNL     1      58.389  28.748  76.611  1.00  0.00    -0.009 A 
HETATM    4  C8  UNL     1      59.572  28.343  77.261  1.00  0.00     0.014 A 
HETATM    5  C9  UNL     1      59.696  27.136  77.900  1.00  0.00     0.001 A 
HETATM    6  C10 UNL     1      58.661  26.260  77.937  1.00  0.00     0.000 A 
HETATM    7  C11 UNL     1      57.500  26.606  77.325  1.00  0.00     0.001 A 
HETATM    8  C12 UNL     1      57.379  27.844  76.672  1.00  0.00     0.014 A 
HETATM    9  C13 UNL     1      59.361  31.045  76.278  1.00  0.00     0.045 A 
HETATM   10  C14 UNL     1      59.112  32.158  75.551  1.00  0.00     0.004 A 
HETATM   11  C21 UNL     1      57.968  31.903  74.826  1.00  0.00     0.056 A 
ENDROOT
BRANCH   1  12
HETATM   12  C5  UNL     1      56.356  30.060  74.535  1.00  0.00     0.168 C 
BRANCH  12  13
HETATM   13  C4  UNL     1      56.249  30.250  73.056  1.00  0.00    -0.040 A 
HETATM   14  C3  UNL     1      57.224  29.892  72.167  1.00  0.00     0.009 A 
HETATM   15  C2  UNL     1      57.147  30.108  70.793  1.00  0.00     0.001 A 
HETATM   16  C1  UNL     1      56.016  30.719  70.305  1.00  0.00     0.000 A 
HETATM   17  C29 UNL     1      54.986  31.108  71.149  1.00  0.00     0.001 A 
HETATM   18  C28 UNL     1      55.125  30.869  72.480  1.00  0.00     0.009 A 
ENDBRANCH  12  13
ENDBRANCH   1  12
BRANCH  11  19
HETATM   19  C22 UNL     1      57.326  32.867  73.933  1.00  0.00    -0.008 A 
HETATM   20  C23 UNL     1      57.796  33.112  72.660  1.00  0.00     0.014 A 
HETATM   21  C24 UNL     1      57.220  33.988  71.773  1.00  0.00     0.001 A 
HETATM   22  C25 UNL     1      56.085  34.674  72.188  1.00  0.00     0.000 A 
HETATM   23  C26 UNL     1      55.598  34.445  73.454  1.00  0.00     0.001 A 
HETATM   24  C27 UNL     1      56.189  33.565  74.327  1.00  0.00     0.014 A 
ENDBRANCH  11  19
BRANCH  10  25
HETATM   25  C15 UNL     1      59.866  33.413  75.499  1.00  0.00    -0.024 A 
HETATM   26  C16 UNL     1      59.871  34.237  74.410  1.00  0.00     0.012 A 
HETATM   27  C17 UNL     1      60.604  35.409  74.448  1.00  0.00     0.001 A 
HETATM   28  C18 UNL     1      61.339  35.795  75.544  1.00  0.00     0.000 A 
HETATM   29  C19 UNL     1      61.333  34.962  76.644  1.00  0.00     0.001 A 
HETATM   30  C20 UNL     1      60.602  33.793  76.606  1.00  0.00     0.012 A 
ENDBRANCH  10  25
TORSDOF 4
ENDMDL
MODEL 2
REMARK VINA RESULT: -9.881077329      2.571      4.377
REMARK  4 active torsions:
REMARK  status: ('A' for Active; 'I' for Inactive)
REMARK    1  A    between atoms: C4_4  and  C5_5 
REMARK    2  A    between atoms: C5_5  and  N1_6 
REMARK    3  A    between atoms: C14_15  and  C15_16 
REMARK    4  A    between atoms: C21_22  and  C22_23 
ROOT
HETATM    1  N1  UNL     1      60.656  31.715  76.918  1.00  0.00    -0.340 N 
HETATM    2  C6  UNL     1      61.489  32.069  77.921  1.00  0.00     0.046 A 
HETATM    3  C7  UNL     1      62.181  31.280  78.911  1.00  0.00    -0.009 A 
HETATM    4  C8  UNL     1      63.237  31.897  79.611  1.00  0.00     0.014 A 
HETATM    5  C9  UNL     1      63.939  31.270  80.607  1.00  0.00     0.001 A 
HETATM    6  C10 UNL     1      63.639  29.999  80.973  1.00  0.00     0.000 A 
HETATM    7  C11 UNL     1      62.630  29.362  80.328  1.00  0.00     0.001 A 
HETATM    8  C12 UNL     1      61.914  30.009  79.307  1.00  0.00     0.014 A 
HETATM    9  C13 UNL     1      61.638  33.470  77.799  1.00  0.00     0.045 A 
HETATM   10  C14 UNL     1      60.909  33.926  76.754  1.00  0.00     0.004 A 
HETATM   11  C21 UNL     1      60.290  32.827  76.200  1.00  0.00     0.056 A 
ENDROOT
BRANCH   1  12
HETATM   12  C5  UNL     1      60.170  30.397  76.600  1.00  0.00     0.168 C 
BRANCH  12  13
HETATM   13  C4  UNL     1      58.682  30.259  76.653  1.00  0.00    -0.040 A 
HETATM   14  C3  UNL     1      57.920  30.607  77.732  1.00  0.00     0.009 A 
HETATM   15  C2  UNL     1      56.539  30.439  77.802  1.00  0.00     0.001 A 
HETATM   16  C1  UNL     1      55.906  29.888  76.712  1.00  0.00     0.000 A 
HETATM   17  C29 UNL     1      56.617  29.512  75.581  1.00  0.00     0.001 A 
HETATM   18  C28 UNL     1      57.963  29.703  75.579  1.00  0.00     0.009 A 
ENDBRANCH  12  13
ENDBRANCH   1  12
BRANCH  11  19
HETATM   19  C22 UNL     1      59.370  32.884  75.065  1.00  0.00    -0.008 A 
HETATM   20  C23 UNL     1      58.017  33.096  75.227  1.00  0.00     0.014 A 
HETATM   21  C24 UNL     1      57.114  33.181  74.197  1.00  0.00     0.001 A 
HETATM   22  C25 UNL     1      57.597  33.045  72.901  1.00  0.00     0.000 A 
HETATM   23  C26 UNL     1      58.943  32.832  72.716  1.00  0.00     0.001 A 
HETATM   24  C27 UNL     1      59.831  32.750  73.760  1.00  0.00     0.014 A 
ENDBRANCH  11  19
BRANCH  10  25
HETATM   25  C15 UNL     1      60.765  35.298  76.260  1.00  0.00    -0.024 A 
HETATM   26  C16 UNL     1      59.603  35.785  75.735  1.00  0.00     0.012 A 
HETATM   27  C17 UNL     1      59.550  37.096  75.300  1.00  0.00     0.001 A 
HETATM   28  C18 UNL     1      60.625  37.950  75.370  1.00  0.00     0.000 A 
HETATM   29  C19 UNL     1      61.800  37.458  75.901  1.00  0.00     0.001 A 
HETATM   30  C20 UNL     1      61.852  36.149  76.335  1.00  0.00     0.012 A 
ENDBRANCH  10  25
TORSDOF 4
ENDMDL
MODEL 3
REMARK VINA RESULT: -9.743999877      1.458      5.118
REMARK  4 active torsions:
REMARK  status: ('A' for Active; 'I' for Inactive)
REMARK    1  A    between atoms: C4_4  and  C5_5 
REMARK    2  A    between atoms: C5_5  and  N1_6 
REMARK    3  A    between atoms: C14_15  and  C15_16 
REMARK    4  A    between atoms: C21_22  and  C22_23 
ROOT
HETATM    1  N1  UNL     1      57.600  30.530  76.171  1.00  0.00    -0.340 N 
HETATM    2  C6  UNL     1      57.509  29.189  76.032  1.00  0.00     0.046 A 
HETATM    3  C7  UNL     1      57.648  28.118  76.988  1.00  0.00    -0.009 A 
HETATM    4  C8  UNL     1      57.169  26.848  76.613  1.00  0.00     0.014 A 
HETATM    5  C9  UNL     1      57.286  25.740  77.412  1.00  0.00     0.001 A 
HETATM    6  C10 UNL     1      57.884  25.821  78.628  1.00  0.00     0.000 A 
HETATM    7  C11 UNL     1      58.361  27.024  79.034  1.00  0.00     0.001 A 
HETATM    8  C12 UNL     1      58.238  28.156  78.210  1.00  0.00     0.014 A 
HETATM    9  C13 UNL     1      57.163  28.984  74.676  1.00  0.00     0.045 A 
HETATM   10  C14 UNL     1      57.057  30.171  74.037  1.00  0.00     0.004 A 
HETATM   11  C21 UNL     1      57.333  31.144  74.972  1.00  0.00     0.056 A 
ENDROOT
BRANCH   1  12
HETATM   12  C5  UNL     1      57.937  31.272  77.359  1.00  0.00     0.168 C 
BRANCH  12  13
HETATM   13  C4  UNL     1      59.381  31.647  77.463  1.00  0.00    -0.040 A 
HETATM   14  C3  UNL     1      60.407  30.744  77.463  1.00  0.00     0.009 A 
HETATM   15  C2  UNL     1      61.750  31.085  77.604  1.00  0.00     0.001 A 
HETATM   16  C1  UNL     1      62.058  32.417  77.752  1.00  0.00     0.000 A 
HETATM   17  C29 UNL     1      61.068  33.389  77.760  1.00  0.00     0.001 A 
HETATM   18  C28 UNL     1      59.777  32.987  77.618  1.00  0.00     0.009 A 
ENDBRANCH  12  13
ENDBRANCH   1  12
BRANCH  11  19
HETATM   19  C22 UNL     1      57.367  32.577  74.685  1.00  0.00    -0.008 A 
HETATM   20  C23 UNL     1      58.536  33.233  74.364  1.00  0.00     0.014 A 
HETATM   21  C24 UNL     1      58.622  34.570  74.063  1.00  0.00     0.001 A 
HETATM   22  C25 UNL     1      57.447  35.313  74.084  1.00  0.00     0.000 A 
HETATM   23  C26 UNL     1      56.269  34.679  74.402  1.00  0.00     0.001 A 
HETATM   24  C27 UNL     1      56.204  33.341  74.700  1.00  0.00     0.014 A 
ENDBRANCH  11  19
BRANCH  10  25
HETATM   25  C15 UNL     1      56.720  30.437  72.636  1.00  0.00    -0.024 A 
HETATM   26  C16 UNL     1      57.646  30.442  71.633  1.00  0.00     0.012 A 
HETATM   27  C17 UNL     1      57.241  30.693  70.335  1.00  0.00     0.001 A 
HETATM   28  C18 UNL     1      55.932  30.941  69.996  1.00  0.00     0.000 A 
HETATM   29  C19 UNL     1      54.996  30.935  71.010  1.00  0.00     0.001 A 
HETATM   30  C20 UNL     1      55.400  30.684  72.305  1.00  0.00     0.012 A 
ENDBRANCH  10  25
TORSDOF 4
ENDMDL
MODEL 4
REMARK VINA RESULT: -9.556240197      1.592      6.584
REMARK  4 active torsions:
REMARK  status: ('A' for Active; 'I' for Inactive)
REMARK    1  A    between atoms: C4_4  and  C5_5 
REMARK    2  A    between atoms: C5_5  and  N1_6 
REMARK    3  A    between atoms: C14_15  and  C15_16 
REMARK    4  A    between atoms: C21_22  and  C22_23 
ROOT
HETATM    1  N1  UNL     1      58.591  32.791  74.105  1.00  0.00    -0.340 N 
HETATM    2  C6  UNL     1      58.620  34.134  74.252  1.00  0.00     0.046 A 
HETATM    3  C7  UNL     1      59.454  34.989  75.060  1.00  0.00    -0.009 A 
HETATM    4  C8  UNL     1      59.470  36.363  74.749  1.00  0.00     0.014 A 
HETATM    5  C9  UNL     1      60.183  37.283  75.472  1.00  0.00     0.001 A 
HETATM    6  C10 UNL     1      60.921  36.903  76.545  1.00  0.00     0.000 A 
HETATM    7  C11 UNL     1      60.937  35.590  76.885  1.00  0.00     0.001 A 
HETATM    8  C12 UNL     1      60.204  34.650  76.140  1.00  0.00     0.014 A 
HETATM    9  C13 UNL     1      57.644  34.623  73.351  1.00  0.00     0.045 A 
HETATM   10  C14 UNL     1      57.057  33.595  72.697  1.00  0.00     0.004 A 
HETATM   11  C21 UNL     1      57.648  32.443  73.170  1.00  0.00     0.056 A 
ENDROOT
BRANCH   1  12
HETATM   12  C5  UNL     1      59.386  31.811  74.800  1.00  0.00     0.168 C 
BRANCH  12  13
HETATM   13  C4  UNL     1      58.690  31.155  75.950  1.00  0.00    -0.040 A 
HETATM   14  C3  UNL     1      57.803  31.792  76.771  1.00  0.00     0.009 A 
HETATM   15  C2  UNL     1      57.186  31.198  77.868  1.00  0.00     0.001 A 
HETATM   16  C1  UNL     1      57.491  29.884  78.138  1.00  0.00     0.000 A 
HETATM   17  C29 UNL     1      58.382  29.174  77.346  1.00  0.00     0.001 A 
HETATM   18  C28 UNL     1      58.950  29.816  76.290  1.00  0.00     0.009 A 
ENDBRANCH  12  13
ENDBRANCH   1  12
BRANCH  11  19
HETATM   19  C22 UNL     1      57.275  31.093  72.750  1.00  0.00    -0.008 A 
HETATM   20  C23 UNL     1      56.658  30.204  73.604  1.00  0.00     0.014 A 
HETATM   21  C24 UNL     1      56.266  28.935  73.256  1.00  0.00     0.001 A 
HETATM   22  C25 UNL     1      56.507  28.518  71.952  1.00  0.00     0.000 A 
HETATM   23  C26 UNL     1      57.121  29.389  71.083  1.00  0.00     0.001 A 
HETATM   24  C27 UNL     1      57.507  30.655  71.450  1.00  0.00     0.014 A 
ENDBRANCH  11  19
BRANCH  10  25
HETATM   25  C15 UNL     1      56.002  33.631  71.681  1.00  0.00    -0.024 A 
HETATM   26  C16 UNL     1      56.051  34.438  70.582  1.00  0.00     0.012 A 
HETATM   27  C17 UNL     1      55.015  34.403  69.666  1.00  0.00     0.001 A 
HETATM   28  C18 UNL     1      53.921  33.583  69.807  1.00  0.00     0.000 A 
HETATM   29  C19 UNL     1      53.873  32.766  70.918  1.00  0.00     0.001 A 
HETATM   30  C20 UNL     1      54.906  32.801  71.832  1.00  0.00     0.012 A 
ENDBRANCH  10  25
TORSDOF 4
ENDMDL
MODEL 5
REMARK VINA RESULT: -9.532209133      1.617      5.867
REMARK  4 active torsions:
REMARK  status: ('A' for Active; 'I' for Inactive)
REMARK    1  A    between atoms: C4_4  and  C5_5 
REMARK    2  A    between atoms: C5_5  and  N1_6 
REMARK    3  A    between atoms: C14_15  and  C15_16 
REMARK    4  A    between atoms: C21_22  and  C22_23 
ROOT
HETATM    1  N1  UNL     1      58.333  32.272  73.980  1.00  0.00    -0.340 N 
HETATM    2  C6  UNL     1      57.906  33.075  72.981  1.00  0.00     0.046 A 
HETATM    3  C7  UNL     1      56.969  32.847  71.908  1.00  0.00    -0.009 A 
HETATM    4  C8  UNL     1      56.479  33.978  71.224  1.00  0.00     0.014 A 
HETATM    5  C9  UNL     1      55.623  33.891  70.156  1.00  0.00     0.001 A 
HETATM    6  C10 UNL     1      55.202  32.685  69.701  1.00  0.00     0.000 A 
HETATM    7  C11 UNL     1      55.646  31.567  70.327  1.00  0.00     0.001 A 
HETATM    8  C12 UNL     1      56.523  31.662  71.421  1.00  0.00     0.014 A 
HETATM    9  C13 UNL     1      58.542  34.317  73.210  1.00  0.00     0.045 A 
HETATM   10  C14 UNL     1      59.322  34.245  74.312  1.00  0.00     0.004 A 
HETATM   11  C21 UNL     1      59.195  32.961  74.797  1.00  0.00     0.056 A 
ENDROOT
BRANCH   1  12
HETATM   12  C5  UNL     1      57.992  30.891  74.209  1.00  0.00     0.168 C 
BRANCH  12  13
HETATM   13  C4  UNL     1      57.733  30.549  75.642  1.00  0.00    -0.040 A 
HETATM   14  C3  UNL     1      57.093  31.376  76.521  1.00  0.00     0.009 A 
HETATM   15  C2  UNL     1      56.889  31.080  77.867  1.00  0.00     0.001 A 
HETATM   16  C1  UNL     1      57.362  29.877  78.335  1.00  0.00     0.000 A 
HETATM   17  C29 UNL     1      58.020  28.987  77.497  1.00  0.00     0.001 A 
HETATM   18  C28 UNL     1      58.186  29.339  76.195  1.00  0.00     0.009 A 
ENDBRANCH  12  13
ENDBRANCH   1  12
BRANCH  11  19
HETATM   19  C22 UNL     1      59.910  32.447  75.964  1.00  0.00    -0.008 A 
HETATM   20  C23 UNL     1      60.670  31.297  75.911  1.00  0.00     0.014 A 
HETATM   21  C24 UNL     1      61.378  30.783  76.969  1.00  0.00     0.001 A 
HETATM   22  C25 UNL     1      61.325  31.469  78.177  1.00  0.00     0.000 A 
HETATM   23  C26 UNL     1      60.573  32.618  78.252  1.00  0.00     0.001 A 
HETATM   24  C27 UNL     1      59.871  33.117  77.183  1.00  0.00     0.014 A 
ENDBRANCH  11  19
BRANCH  10  25
HETATM   25  C15 UNL     1      60.159  35.284  74.919  1.00  0.00    -0.024 A 
HETATM   26  C16 UNL     1      61.516  35.184  75.024  1.00  0.00     0.012 A 
HETATM   27  C17 UNL     1      62.231  36.216  75.603  1.00  0.00     0.001 A 
HETATM   28  C18 UNL     1      61.637  37.356  76.087  1.00  0.00     0.000 A 
HETATM   29  C19 UNL     1      60.265  37.457  75.981  1.00  0.00     0.001 A 
HETATM   30  C20 UNL     1      59.551  36.428  75.403  1.00  0.00     0.012 A 
ENDBRANCH  10  25
TORSDOF 4
ENDMDL
