MODEL 1
REMARK VINA RESULT: -9.681689673      0.000      0.000
REMARK  6 active torsions:
REMARK  status: ('A' for Active; 'I' for Inactive)
REMARK    1  A    between atoms: C3_3  and  C4_4 
REMARK    2  A    between atoms: C4_4  and  C5_5 
REMARK    3  A    between atoms: C8_8  and  N1_9 
REMARK       I    between atoms: N1_9  and  C9_11 
REMARK    4  A    between atoms: C9_11  and  C10_13 
REMARK    5  A    between atoms: C10_13  and  N2_14 
REMARK    6  A    between atoms: C13_21  and  C14_22 
ROOT
HETATM    1  N2  UNL     1      -1.162   4.277  10.988  1.00  0.00    -0.258 N 
HETATM    2  C11 UNL     1      -0.071   5.040  11.236  1.00  0.00     0.219 A 
HETATM    3  N3  UNL     1      -0.065   5.380  12.540  1.00  0.00    -0.184 N 
ATOM      4  H3  UNL     1       0.634   5.951  13.016  1.00  0.00     0.185 HD
HETATM    5  C12 UNL     1      -1.168   4.817  13.100  1.00  0.00     0.705 A 
HETATM    6  N4  UNL     1      -1.858   4.673  14.267  1.00  0.00    -0.188 N 
ATOM      7  H4  UNL     1      -1.598   5.072  15.170  1.00  0.00     0.184 HD
HETATM    8  C13 UNL     1      -2.934   3.920  14.023  1.00  0.00     0.079 A 
HETATM    9  C21 UNL     1      -2.909   3.593  12.688  1.00  0.00     0.166 A 
HETATM   10  N7  UNL     1      -1.801   4.162  12.136  1.00  0.00    -0.092 N 
ENDROOT
BRANCH   1  11
HETATM   11  C10 UNL     1      -1.474   3.742   9.691  1.00  0.00     0.254 C 
BRANCH  11  12
HETATM   12  C9  UNL     1      -2.909   4.129   9.366  1.00  0.00     0.242 C 
HETATM   13  N1  UNL     1      -3.159   5.485   9.195  1.00  0.00    -0.326 N 
ATOM     14  H1  UNL     1      -2.367   6.120   9.293  1.00  0.00     0.169 HD
HETATM   15  O1  UNL     1      -3.729   3.191   9.285  1.00  0.00    -0.271 OA
BRANCH  13  16
HETATM   16  C8  UNL     1      -4.405   6.058   8.898  1.00  0.00     0.034 A 
HETATM   17  C7  UNL     1      -5.206   6.494   9.973  1.00  0.00     0.030 A 
HETATM   18  C6  UNL     1      -6.433   7.040   9.720  1.00  0.00     0.013 A 
HETATM   19  C5  UNL     1      -6.942   7.190   8.439  1.00  0.00    -0.035 A 
HETATM   20  C23 UNL     1      -6.133   6.753   7.415  1.00  0.00     0.013 A 
HETATM   21  C22 UNL     1      -4.871   6.188   7.624  1.00  0.00     0.030 A 
BRANCH  19  22
HETATM   22  C4  UNL     1      -8.212   7.805   8.200  1.00  0.00     0.025 C 
BRANCH  22  23
HETATM   23  C3  UNL     1      -8.508   9.086   8.115  1.00  0.00    -0.008 A 
HETATM   24  C2  UNL     1      -7.767  10.230   8.295  1.00  0.00     0.034 A 
HETATM   25  C1  UNL     1      -6.502  10.336   8.614  1.00  0.00     0.044 C 
HETATM   26  N8  UNL     1      -8.533  11.347   8.092  1.00  0.00    -0.361 N 
HETATM   27  C25 UNL     1      -9.755  10.907   7.786  1.00  0.00     0.091 A 
HETATM   28  C26 UNL     1      -8.148  12.738   8.180  1.00  0.00     0.155 C 
HETATM   29  C24 UNL     1      -9.803   9.556   7.783  1.00  0.00     0.031 A 
ENDBRANCH  22  23
ENDBRANCH  19  22
ENDBRANCH  13  16
ENDBRANCH  11  12
ENDBRANCH   1  11
BRANCH   8  30
HETATM   30  C14 UNL     1      -3.971   3.493  14.951  1.00  0.00     0.010 A 
HETATM   31  C15 UNL     1      -4.954   4.377  15.396  1.00  0.00     0.017 A 
HETATM   32  C16 UNL     1      -5.907   3.915  16.273  1.00  0.00     0.032 A 
HETATM   33  C17 UNL     1      -5.944   2.601  16.741  1.00  0.00     0.057 A 
HETATM   34  C18 UNL     1      -6.790   1.938  17.603  1.00  0.00     0.050 A 
HETATM   35  N6  UNL     1      -4.985   1.774  16.293  1.00  0.00    -0.267 N 
HETATM   36  C19 UNL     1      -6.306   0.656  17.667  1.00  0.00     0.110 A 
HETATM   37  N5  UNL     1      -5.229   0.596  16.873  1.00  0.00    -0.305 N 
ATOM     38  H5  UNL     1      -4.666  -0.242  16.729  1.00  0.00     0.186 HD
HETATM   39  C20 UNL     1      -4.042   2.206  15.436  1.00  0.00     0.130 A 
ENDBRANCH   8  30
TORSDOF 6
ENDMDL
MODEL 2
REMARK VINA RESULT: -9.675832516      2.035      2.433
REMARK  6 active torsions:
REMARK  status: ('A' for Active; 'I' for Inactive)
REMARK    1  A    between atoms: C3_3  and  C4_4 
REMARK    2  A    between atoms: C4_4  and  C5_5 
REMARK    3  A    between atoms: C8_8  and  N1_9 
REMARK       I    between atoms: N1_9  and  C9_11 
REMARK    4  A    between atoms: C9_11  and  C10_13 
REMARK    5  A    between atoms: C10_13  and  N2_14 
REMARK    6  A    between atoms: C13_21  and  C14_22 
ROOT
HETATM    1  N2  UNL     1      -1.462   7.142  12.934  1.00  0.00    -0.258 N 
HETATM    2  C11 UNL     1      -0.281   6.644  12.496  1.00  0.00     0.219 A 
HETATM    3  N3  UNL     1      -0.182   5.356  12.878  1.00  0.00    -0.184 N 
ATOM      4  H3  UNL     1       0.597   4.724  12.691  1.00  0.00     0.185 HD
HETATM    5  C12 UNL     1      -1.320   5.059  13.561  1.00  0.00     0.705 A 
HETATM    6  N4  UNL     1      -1.975   4.067  14.228  1.00  0.00    -0.188 N 
ATOM      7  H4  UNL     1      -1.635   3.116  14.373  1.00  0.00     0.184 HD
HETATM    8  C13 UNL     1      -3.140   4.558  14.661  1.00  0.00     0.079 A 
HETATM    9  C21 UNL     1      -3.206   5.870  14.255  1.00  0.00     0.166 A 
HETATM   10  N7  UNL     1      -2.062   6.158  13.572  1.00  0.00    -0.092 N 
ENDROOT
BRANCH   1  11
HETATM   11  C10 UNL     1      -1.885   8.494  12.697  1.00  0.00     0.254 C 
BRANCH  11  12
HETATM   12  C9  UNL     1      -2.850   8.476  11.521  1.00  0.00     0.242 C 
HETATM   13  N1  UNL     1      -4.191   8.273  11.825  1.00  0.00    -0.326 N 
ATOM     14  H1  UNL     1      -4.432   8.157  12.809  1.00  0.00     0.169 HD
HETATM   15  O1  UNL     1      -2.346   8.643  10.391  1.00  0.00    -0.271 OA
BRANCH  13  16
HETATM   16  C8  UNL     1      -5.242   8.214  10.899  1.00  0.00     0.034 A 
HETATM   17  C7  UNL     1      -5.953   9.401  10.629  1.00  0.00     0.030 A 
HETATM   18  C6  UNL     1      -6.996   9.375   9.746  1.00  0.00     0.013 A 
HETATM   19  C5  UNL     1      -7.399   8.223   9.089  1.00  0.00    -0.035 A 
HETATM   20  C23 UNL     1      -6.682   7.084   9.376  1.00  0.00     0.013 A 
HETATM   21  C22 UNL     1      -5.609   7.061  10.273  1.00  0.00     0.030 A 
BRANCH  19  22
HETATM   22  C4  UNL     1      -8.466   8.233   8.134  1.00  0.00     0.025 C 
BRANCH  22  23
HETATM   23  C3  UNL     1      -9.004   9.258   7.505  1.00  0.00    -0.008 A 
HETATM   24  C2  UNL     1      -8.561  10.067   6.485  1.00  0.00     0.034 A 
HETATM   25  C1  UNL     1      -7.420  10.012   5.845  1.00  0.00     0.044 C 
HETATM   26  N8  UNL     1      -9.497  11.014   6.169  1.00  0.00    -0.361 N 
HETATM   27  C25 UNL     1     -10.528  10.804   6.989  1.00  0.00     0.091 A 
HETATM   28  C26 UNL     1      -9.432  12.052   5.164  1.00  0.00     0.155 C 
HETATM   29  C24 UNL     1     -10.292   9.762   7.816  1.00  0.00     0.031 A 
ENDBRANCH  22  23
ENDBRANCH  19  22
ENDBRANCH  13  16
ENDBRANCH  11  12
ENDBRANCH   1  11
BRANCH   8  30
HETATM   30  C14 UNL     1      -4.182   3.883  15.421  1.00  0.00     0.010 A 
HETATM   31  C15 UNL     1      -5.365   4.536  15.767  1.00  0.00     0.017 A 
HETATM   32  C16 UNL     1      -6.312   3.845  16.487  1.00  0.00     0.032 A 
HETATM   33  C17 UNL     1      -6.151   2.519  16.888  1.00  0.00     0.057 A 
HETATM   34  C18 UNL     1      -6.954   1.653  17.599  1.00  0.00     0.050 A 
HETATM   35  N6  UNL     1      -5.002   1.918  16.539  1.00  0.00    -0.267 N 
HETATM   36  C19 UNL     1      -6.241   0.482  17.672  1.00  0.00     0.110 A 
HETATM   37  N5  UNL     1      -5.083   0.679  17.030  1.00  0.00    -0.305 N 
ATOM     38  H5  UNL     1      -4.355  -0.028  16.927  1.00  0.00     0.186 HD
HETATM   39  C20 UNL     1      -4.061   2.575  15.836  1.00  0.00     0.130 A 
ENDBRANCH   8  30
TORSDOF 6
ENDMDL
MODEL 3
REMARK VINA RESULT: -9.671340956      0.490      1.052
REMARK  6 active torsions:
REMARK  status: ('A' for Active; 'I' for Inactive)
REMARK    1  A    between atoms: C3_3  and  C4_4 
REMARK    2  A    between atoms: C4_4  and  C5_5 
REMARK    3  A    between atoms: C8_8  and  N1_9 
REMARK       I    between atoms: N1_9  and  C9_11 
REMARK    4  A    between atoms: C9_11  and  C10_13 
REMARK    5  A    between atoms: C10_13  and  N2_14 
REMARK    6  A    between atoms: C13_21  and  C14_22 
ROOT
HETATM    1  N2  UNL     1      -1.207   4.027  10.934  1.00  0.00    -0.258 N 
HETATM    2  C11 UNL     1      -0.103   4.783  11.146  1.00  0.00     0.219 A 
HETATM    3  N3  UNL     1      -0.066   5.146  12.443  1.00  0.00    -0.184 N 
ATOM      4  H3  UNL     1       0.648   5.719  12.893  1.00  0.00     0.185 HD
HETATM    5  C12 UNL     1      -1.163   4.606  13.036  1.00  0.00     0.705 A 
HETATM    6  N4  UNL     1      -1.830   4.491  14.219  1.00  0.00    -0.188 N 
ATOM      7  H4  UNL     1      -1.548   4.904  15.108  1.00  0.00     0.184 HD
HETATM    8  C13 UNL     1      -2.920   3.746  14.010  1.00  0.00     0.079 A 
HETATM    9  C21 UNL     1      -2.925   3.394  12.682  1.00  0.00     0.166 A 
HETATM   10  N7  UNL     1      -1.823   3.941  12.097  1.00  0.00    -0.092 N 
ENDROOT
BRANCH   1  11
HETATM   11  C10 UNL     1      -1.551   3.472   9.654  1.00  0.00     0.254 C 
BRANCH  11  12
HETATM   12  C9  UNL     1      -2.938   3.979   9.290  1.00  0.00     0.242 C 
HETATM   13  N1  UNL     1      -3.043   5.334   8.998  1.00  0.00    -0.326 N 
ATOM     14  H1  UNL     1      -2.187   5.887   9.043  1.00  0.00     0.169 HD
HETATM   15  O1  UNL     1      -3.853   3.130   9.289  1.00  0.00    -0.271 OA
BRANCH  13  16
HETATM   16  C8  UNL     1      -4.222   6.007   8.646  1.00  0.00     0.034 A 
HETATM   17  C7  UNL     1      -5.089   6.410   9.682  1.00  0.00     0.030 A 
HETATM   18  C6  UNL     1      -6.255   7.052   9.373  1.00  0.00     0.013 A 
HETATM   19  C5  UNL     1      -6.638   7.333   8.071  1.00  0.00    -0.035 A 
HETATM   20  C23 UNL     1      -5.768   6.926   7.086  1.00  0.00     0.013 A 
HETATM   21  C22 UNL     1      -4.564   6.266   7.353  1.00  0.00     0.030 A 
BRANCH  19  22
HETATM   22  C4  UNL     1      -7.845   8.046   7.777  1.00  0.00     0.025 C 
BRANCH  22  23
HETATM   23  C3  UNL     1      -8.114   9.324   7.953  1.00  0.00    -0.008 A 
HETATM   24  C2  UNL     1      -9.262  10.067   7.802  1.00  0.00     0.034 A 
HETATM   25  C1  UNL     1     -10.448   9.660   7.425  1.00  0.00     0.044 C 
HETATM   26  N8  UNL     1      -9.038  11.382   8.110  1.00  0.00    -0.361 N 
HETATM   27  C25 UNL     1      -7.751  11.468   8.452  1.00  0.00     0.091 A 
HETATM   28  C26 UNL     1      -9.968  12.489   8.085  1.00  0.00     0.155 C 
HETATM   29  C24 UNL     1      -7.142  10.264   8.378  1.00  0.00     0.031 A 
ENDBRANCH  22  23
ENDBRANCH  19  22
ENDBRANCH  13  16
ENDBRANCH  11  12
ENDBRANCH   1  11
BRANCH   8  30
HETATM   30  C14 UNL     1      -3.942   3.347  14.967  1.00  0.00     0.010 A 
HETATM   31  C15 UNL     1      -4.890   4.257  15.436  1.00  0.00     0.017 A 
HETATM   32  C16 UNL     1      -5.831   3.821  16.339  1.00  0.00     0.032 A 
HETATM   33  C17 UNL     1      -5.888   2.509  16.812  1.00  0.00     0.057 A 
HETATM   34  C18 UNL     1      -6.728   1.870  17.698  1.00  0.00     0.050 A 
HETATM   35  N6  UNL     1      -4.963   1.657  16.341  1.00  0.00    -0.267 N 
HETATM   36  C19 UNL     1      -6.274   0.576  17.753  1.00  0.00     0.110 A 
HETATM   37  N5  UNL     1      -5.220   0.487  16.930  1.00  0.00    -0.305 N 
ATOM     38  H5  UNL     1      -4.683  -0.365  16.774  1.00  0.00     0.186 HD
HETATM   39  C20 UNL     1      -4.032   2.063  15.457  1.00  0.00     0.130 A 
ENDBRANCH   8  30
TORSDOF 6
ENDMDL
MODEL 4
REMARK VINA RESULT: -9.647891328      1.450      1.723
REMARK  6 active torsions:
REMARK  status: ('A' for Active; 'I' for Inactive)
REMARK    1  A    between atoms: C3_3  and  C4_4 
REMARK    2  A    between atoms: C4_4  and  C5_5 
REMARK    3  A    between atoms: C8_8  and  N1_9 
REMARK       I    between atoms: N1_9  and  C9_11 
REMARK    4  A    between atoms: C9_11  and  C10_13 
REMARK    5  A    between atoms: C10_13  and  N2_14 
REMARK    6  A    between atoms: C13_21  and  C14_22 
ROOT
HETATM    1  N2  UNL     1      -1.740   5.678  11.355  1.00  0.00    -0.258 N 
HETATM    2  C11 UNL     1      -0.711   6.482  11.717  1.00  0.00     0.219 A 
HETATM    3  N3  UNL     1      -0.684   6.577  13.060  1.00  0.00    -0.184 N 
ATOM      4  H3  UNL     1      -0.020   7.114  13.618  1.00  0.00     0.185 HD
HETATM    5  C12 UNL     1      -1.710   5.820  13.531  1.00  0.00     0.705 A 
HETATM    6  N4  UNL     1      -2.338   5.401  14.666  1.00  0.00    -0.188 N 
ATOM      7  H4  UNL     1      -2.079   5.651  15.621  1.00  0.00     0.184 HD
HETATM    8  C13 UNL     1      -3.354   4.608  14.310  1.00  0.00     0.079 A 
HETATM    9  C21 UNL     1      -3.352   4.535  12.937  1.00  0.00     0.166 A 
HETATM   10  N7  UNL     1      -2.320   5.296  12.476  1.00  0.00    -0.092 N 
ENDROOT
BRANCH   1  11
HETATM   11  C10 UNL     1      -2.054   5.363   9.989  1.00  0.00     0.254 C 
BRANCH  11  12
HETATM   12  C9  UNL     1      -3.192   6.274   9.556  1.00  0.00     0.242 C 
HETATM   13  N1  UNL     1      -4.479   5.771   9.709  1.00  0.00    -0.326 N 
ATOM     14  H1  UNL     1      -4.567   4.834  10.103  1.00  0.00     0.169 HD
HETATM   15  O1  UNL     1      -2.864   7.390   9.102  1.00  0.00    -0.271 OA
BRANCH  13  16
HETATM   16  C8  UNL     1      -5.665   6.437   9.370  1.00  0.00     0.034 A 
HETATM   17  C7  UNL     1      -6.284   6.107   8.147  1.00  0.00     0.030 A 
HETATM   18  C6  UNL     1      -7.431   6.750   7.777  1.00  0.00     0.013 A 
HETATM   19  C5  UNL     1      -8.030   7.729   8.554  1.00  0.00    -0.035 A 
HETATM   20  C23 UNL     1      -7.399   8.025   9.741  1.00  0.00     0.013 A 
HETATM   21  C22 UNL     1      -6.224   7.395  10.161  1.00  0.00     0.030 A 
BRANCH  19  22
HETATM   22  C4  UNL     1      -9.257   8.357   8.164  1.00  0.00     0.025 C 
BRANCH  22  23
HETATM   23  C3  UNL     1      -9.437   9.507   7.548  1.00  0.00    -0.008 A 
HETATM   24  C2  UNL     1      -8.705  10.186   6.602  1.00  0.00     0.034 A 
HETATM   25  C1  UNL     1      -7.575   9.833   6.043  1.00  0.00     0.044 C 
HETATM   26  N8  UNL     1      -9.315  11.365   6.265  1.00  0.00    -0.361 N 
HETATM   27  C25 UNL     1     -10.427  11.429   6.998  1.00  0.00     0.091 A 
HETATM   28  C26 UNL     1      -8.883  12.369   5.318  1.00  0.00     0.155 C 
HETATM   29  C24 UNL     1     -10.558  10.341   7.789  1.00  0.00     0.031 A 
ENDBRANCH  22  23
ENDBRANCH  19  22
ENDBRANCH  13  16
ENDBRANCH  11  12
ENDBRANCH   1  11
BRANCH   8  30
HETATM   30  C14 UNL     1      -4.312   3.924  15.165  1.00  0.00     0.010 A 
HETATM   31  C15 UNL     1      -5.436   4.581  15.664  1.00  0.00     0.017 A 
HETATM   32  C16 UNL     1      -6.306   3.881  16.468  1.00  0.00     0.032 A 
HETATM   33  C17 UNL     1      -6.122   2.540  16.809  1.00  0.00     0.057 A 
HETATM   34  C18 UNL     1      -6.851   1.663  17.582  1.00  0.00     0.050 A 
HETATM   35  N6  UNL     1      -5.030   1.936  16.313  1.00  0.00    -0.267 N 
HETATM   36  C19 UNL     1      -6.154   0.482  17.539  1.00  0.00     0.110 A 
HETATM   37  N5  UNL     1      -5.074   0.683  16.773  1.00  0.00    -0.305 N 
ATOM     38  H5  UNL     1      -4.375  -0.030  16.566  1.00  0.00     0.186 HD
HETATM   39  C20 UNL     1      -4.166   2.602  15.525  1.00  0.00     0.130 A 
ENDBRANCH   8  30
TORSDOF 6
ENDMDL
MODEL 5
REMARK VINA RESULT: -9.633379795      1.060      1.101
REMARK  6 active torsions:
REMARK  status: ('A' for Active; 'I' for Inactive)
REMARK    1  A    between atoms: C3_3  and  C4_4 
REMARK    2  A    between atoms: C4_4  and  C5_5 
REMARK    3  A    between atoms: C8_8  and  N1_9 
REMARK       I    between atoms: N1_9  and  C9_11 
REMARK    4  A    between atoms: C9_11  and  C10_13 
REMARK    5  A    between atoms: C10_13  and  N2_14 
REMARK    6  A    between atoms: C13_21  and  C14_22 
ROOT
HETATM    1  N2  UNL     1      -1.776   4.688  10.937  1.00  0.00    -0.258 N 
HETATM    2  C11 UNL     1      -0.697   5.484  11.127  1.00  0.00     0.219 A 
HETATM    3  N3  UNL     1      -0.580   5.752  12.442  1.00  0.00    -0.184 N 
ATOM      4  H3  UNL     1       0.138   6.327  12.883  1.00  0.00     0.185 HD
HETATM    5  C12 UNL     1      -1.601   5.110  13.068  1.00  0.00     0.705 A 
HETATM    6  N4  UNL     1      -2.170   4.872  14.284  1.00  0.00    -0.188 N 
ATOM      7  H4  UNL     1      -1.841   5.232  15.180  1.00  0.00     0.184 HD
HETATM    8  C13 UNL     1      -3.235   4.086  14.097  1.00  0.00     0.079 A 
HETATM    9  C21 UNL     1      -3.324   3.835  12.748  1.00  0.00     0.166 A 
HETATM   10  N7  UNL     1      -2.297   4.482  12.130  1.00  0.00    -0.092 N 
ENDROOT
BRANCH   1  11
HETATM   11  C10 UNL     1      -2.189   4.212   9.645  1.00  0.00     0.254 C 
BRANCH  11  12
HETATM   12  C9  UNL     1      -3.651   4.590   9.461  1.00  0.00     0.242 C 
HETATM   13  N1  UNL     1      -3.904   5.894   9.052  1.00  0.00    -0.326 N 
ATOM     14  H1  UNL     1      -3.097   6.499   8.901  1.00  0.00     0.169 HD
HETATM   15  O1  UNL     1      -4.487   3.693   9.694  1.00  0.00    -0.271 OA
BRANCH  13  16
HETATM   16  C8  UNL     1      -5.172   6.452   8.829  1.00  0.00     0.034 A 
HETATM   17  C7  UNL     1      -5.641   7.416   9.744  1.00  0.00     0.030 A 
HETATM   18  C6  UNL     1      -6.880   7.965   9.566  1.00  0.00     0.013 A 
HETATM   19  C5  UNL     1      -7.715   7.619   8.515  1.00  0.00    -0.035 A 
HETATM   20  C23 UNL     1      -7.223   6.675   7.642  1.00  0.00     0.013 A 
HETATM   21  C22 UNL     1      -5.963   6.085   7.783  1.00  0.00     0.030 A 
BRANCH  19  22
HETATM   22  C4  UNL     1      -8.990   8.242   8.328  1.00  0.00     0.025 C 
BRANCH  22  23
HETATM   23  C3  UNL     1      -9.293   9.309   7.615  1.00  0.00    -0.008 A 
HETATM   24  C2  UNL     1      -8.623   9.994   6.628  1.00  0.00     0.034 A 
HETATM   25  C1  UNL     1      -7.444   9.739   6.120  1.00  0.00     0.044 C 
HETATM   26  N8  UNL     1      -9.362  11.058   6.184  1.00  0.00    -0.361 N 
HETATM   27  C25 UNL     1     -10.494  11.043   6.891  1.00  0.00     0.091 A 
HETATM   28  C26 UNL     1      -9.031  12.028   5.164  1.00  0.00     0.155 C 
HETATM   29  C24 UNL     1     -10.512  10.015   7.767  1.00  0.00     0.031 A 
ENDBRANCH  22  23
ENDBRANCH  19  22
ENDBRANCH  13  16
ENDBRANCH  11  12
ENDBRANCH   1  11
BRANCH   8  30
HETATM   30  C14 UNL     1      -4.161   3.563  15.090  1.00  0.00     0.010 A 
HETATM   31  C15 UNL     1      -5.108   4.384  15.702  1.00  0.00     0.017 A 
HETATM   32  C16 UNL     1      -5.956   3.832  16.634  1.00  0.00     0.032 A 
HETATM   33  C17 UNL     1      -5.919   2.485  16.999  1.00  0.00     0.057 A 
HETATM   34  C18 UNL     1      -6.658   1.737  17.890  1.00  0.00     0.050 A 
HETATM   35  N6  UNL     1      -4.997   1.721  16.392  1.00  0.00    -0.267 N 
HETATM   36  C19 UNL     1      -6.145   0.467  17.803  1.00  0.00     0.110 A 
HETATM   37  N5  UNL     1      -5.156   0.497  16.900  1.00  0.00    -0.305 N 
ATOM     38  H5  UNL     1      -4.596  -0.313  16.634  1.00  0.00     0.186 HD
HETATM   39  C20 UNL     1      -4.156   2.241  15.478  1.00  0.00     0.130 A 
ENDBRANCH   8  30
TORSDOF 6
ENDMDL
