MODEL 1
REMARK VINA RESULT: -9.748054151      0.000      0.000
REMARK  6 active torsions:
REMARK  status: ('A' for Active; 'I' for Inactive)
REMARK    1  A    between atoms: C6_6  and  N1_7 
REMARK    2  A    between atoms: N1_7  and  C7_9 
REMARK    3  A    between atoms: C12_18  and  C13_19 
REMARK    4  A    between atoms: N4_21  and  C15_22 
REMARK    5  A    between atoms: C15_22  and  C16_23 
REMARK       I    between atoms: C16_23  and  N5_25 
REMARK    6  A    between atoms: C22_35  and  C23_36 
ROOT
HETATM    1  C1  UNL     1      -6.306   2.329  19.058  1.00  0.00     0.018 C 
HETATM    2  C2  UNL     1      -6.075   2.764  17.943  1.00  0.00    -0.077 C 
HETATM    3  C3  UNL     1      -5.793   3.297  16.640  1.00  0.00     0.023 A 
HETATM    4  C4  UNL     1      -6.272   4.552  16.327  1.00  0.00     0.023 A 
HETATM    5  C5  UNL     1      -6.001   5.066  15.076  1.00  0.00     0.031 A 
HETATM    6  C6  UNL     1      -5.257   4.331  14.147  1.00  0.00     0.041 A 
HETATM    7  C22 UNL     1      -4.775   3.076  14.451  1.00  0.00    -0.011 A 
HETATM    8  C25 UNL     1      -5.054   2.575  15.704  1.00  0.00    -0.034 A 
HETATM    9  C26 UNL     1      -4.538   1.219  16.047  1.00  0.00     0.050 C 
ENDROOT
BRANCH   7  10
HETATM   10  C23 UNL     1      -3.977   2.285  13.454  1.00  0.00     0.165 C 
HETATM   11  C24 UNL     1      -4.756   2.063  12.232  1.00  0.00     0.063 C 
HETATM   12  N7  UNL     1      -5.364   1.885  11.242  1.00  0.00    -0.197 NA
ENDBRANCH   7  10
BRANCH   6  13
HETATM   13  N1  UNL     1      -5.023   4.929  12.907  1.00  0.00    -0.341 N 
ATOM     14  H1  UNL     1      -5.661   4.653  12.160  1.00  0.00     0.167 HD
BRANCH  13  15
HETATM   15  C7  UNL     1      -4.131   5.767  12.579  1.00  0.00     0.119 A 
HETATM   16  N2  UNL     1      -2.815   5.594  12.714  1.00  0.00    -0.332 N 
HETATM   17  C8  UNL     1      -1.980   6.559  12.327  1.00  0.00     0.079 A 
ATOM     18  H2  UNL     1      -2.450   4.729  13.112  1.00  0.00     0.168 HD
HETATM   19  C9  UNL     1      -0.519   6.328  12.494  1.00  0.00     0.089 C 
HETATM   20  N3  UNL     1      -2.412   7.733  11.790  1.00  0.00    -0.345 N 
HETATM   21  C10 UNL     1      -3.716   7.952  11.635  1.00  0.00     0.048 A 
ATOM     22  H3  UNL     1      -1.738   8.445  11.507  1.00  0.00     0.167 HD
HETATM   23  C11 UNL     1      -4.220   9.132  11.093  1.00  0.00     0.043 A 
HETATM   24  C21 UNL     1      -4.599   6.969  12.029  1.00  0.00     0.035 A 
HETATM   25  C12 UNL     1      -5.585   9.313  10.951  1.00  0.00    -0.017 A 
HETATM   26  C19 UNL     1      -6.479   8.336  11.342  1.00  0.00     0.013 A 
HETATM   27  C20 UNL     1      -5.965   7.177  11.876  1.00  0.00     0.018 A 
BRANCH  25  28
HETATM   28  C13 UNL     1      -6.117  10.532  10.387  1.00  0.00     0.061 A 
HETATM   29  C14 UNL     1      -6.075  11.815  10.884  1.00  0.00     0.128 A 
HETATM   30  N4  UNL     1      -6.702  12.607  10.010  1.00  0.00    -0.291 N 
HETATM   31  N6  UNL     1      -7.133  11.892   8.996  1.00  0.00    -0.264 N 
HETATM   32  C18 UNL     1      -6.796  10.623   9.187  1.00  0.00     0.272 A 
ATOM     33  H6  UNL     1      -7.645  12.254   8.191  1.00  0.00     0.190 HD
HETATM   34  O2  UNL     1      -7.068   9.686   8.389  1.00  0.00    -0.266 OA
BRANCH  30  35
HETATM   35  C15 UNL     1      -6.879  14.032  10.152  1.00  0.00     0.250 C 
BRANCH  35  36
HETATM   36  C16 UNL     1      -8.277  14.410  10.390  1.00  0.00     0.236 C 
HETATM   37  O1  UNL     1      -9.188  13.809   9.770  1.00  0.00    -0.272 OA
HETATM   38  N5  UNL     1      -8.559  15.448  11.317  1.00  0.00    -0.364 N 
HETATM   39  C17 UNL     1      -9.947  15.836  11.565  1.00  0.00     0.149 C 
ATOM     40  H5  UNL     1      -7.799  15.920  11.806  1.00  0.00     0.161 HD
ENDBRANCH  35  36
ENDBRANCH  30  35
ENDBRANCH  25  28
ENDBRANCH  13  15
ENDBRANCH   6  13
TORSDOF 6
ENDMDL
MODEL 2
REMARK VINA RESULT: -9.564583259      5.726      8.717
REMARK  6 active torsions:
REMARK  status: ('A' for Active; 'I' for Inactive)
REMARK    1  A    between atoms: C6_6  and  N1_7 
REMARK    2  A    between atoms: N1_7  and  C7_9 
REMARK    3  A    between atoms: C12_18  and  C13_19 
REMARK    4  A    between atoms: N4_21  and  C15_22 
REMARK    5  A    between atoms: C15_22  and  C16_23 
REMARK       I    between atoms: C16_23  and  N5_25 
REMARK    6  A    between atoms: C22_35  and  C23_36 
ROOT
HETATM    1  C1  UNL     1      -6.302   2.358  19.509  1.00  0.00     0.018 C 
HETATM    2  C2  UNL     1      -5.988   2.436  18.335  1.00  0.00    -0.077 C 
HETATM    3  C3  UNL     1      -5.630   2.506  16.946  1.00  0.00     0.023 A 
HETATM    4  C4  UNL     1      -4.965   1.435  16.385  1.00  0.00     0.023 A 
HETATM    5  C5  UNL     1      -4.621   1.500  15.051  1.00  0.00     0.031 A 
HETATM    6  C6  UNL     1      -4.939   2.627  14.285  1.00  0.00     0.041 A 
HETATM    7  C22 UNL     1      -5.603   3.701  14.837  1.00  0.00    -0.011 A 
HETATM    8  C25 UNL     1      -5.940   3.622  16.171  1.00  0.00    -0.034 A 
HETATM    9  C26 UNL     1      -6.659   4.777  16.781  1.00  0.00     0.050 C 
ENDROOT
BRANCH   7  10
HETATM   10  C23 UNL     1      -5.944   4.912  14.016  1.00  0.00     0.165 C 
HETATM   11  C24 UNL     1      -4.750   5.732  13.788  1.00  0.00     0.063 C 
HETATM   12  N7  UNL     1      -3.801   6.394  13.588  1.00  0.00    -0.197 NA
ENDBRANCH   7  10
BRANCH   6  13
HETATM   13  N1  UNL     1      -4.560   2.606  12.942  1.00  0.00    -0.341 N 
ATOM     14  H1  UNL     1      -4.936   3.363  12.369  1.00  0.00     0.167 HD
BRANCH  13  15
HETATM   15  C7  UNL     1      -3.815   1.781  12.333  1.00  0.00     0.119 A 
HETATM   16  N2  UNL     1      -3.988   0.459  12.295  1.00  0.00    -0.332 N 
HETATM   17  C8  UNL     1      -3.128  -0.300  11.614  1.00  0.00     0.079 A 
ATOM     18  H2  UNL     1      -4.773   0.030  12.785  1.00  0.00     0.168 HD
HETATM   19  C9  UNL     1      -3.355  -1.771  11.597  1.00  0.00     0.089 C 
HETATM   20  N3  UNL     1      -2.063   0.218  10.943  1.00  0.00    -0.345 N 
HETATM   21  C10 UNL     1      -1.849   1.533  10.951  1.00  0.00     0.048 A 
ATOM     22  H3  UNL     1      -1.429  -0.399  10.435  1.00  0.00     0.167 HD
HETATM   23  C11 UNL     1      -0.777   2.123  10.286  1.00  0.00     0.043 A 
HETATM   24  C21 UNL     1      -2.725   2.337  11.649  1.00  0.00     0.035 A 
HETATM   25  C12 UNL     1      -0.596   3.495  10.322  1.00  0.00    -0.017 A 
HETATM   26  C19 UNL     1      -1.467   4.310  11.017  1.00  0.00     0.013 A 
HETATM   27  C20 UNL     1      -2.520   3.712  11.671  1.00  0.00     0.018 A 
BRANCH  25  28
HETATM   28  C13 UNL     1       0.510   4.116   9.631  1.00  0.00     0.061 A 
HETATM   29  C14 UNL     1       0.611   4.498   8.313  1.00  0.00     0.128 A 
HETATM   30  N4  UNL     1       1.825   5.028   8.138  1.00  0.00    -0.291 N 
HETATM   31  N6  UNL     1       2.487   4.998   9.273  1.00  0.00    -0.264 N 
HETATM   32  C18 UNL     1       1.721   4.451  10.208  1.00  0.00     0.272 A 
ATOM     33  H6  UNL     1       3.439   5.340   9.412  1.00  0.00     0.190 HD
HETATM   34  O2  UNL     1       2.070   4.280  11.406  1.00  0.00    -0.266 OA
BRANCH  30  35
HETATM   35  C15 UNL     1       2.336   5.556   6.897  1.00  0.00     0.250 C 
BRANCH  35  36
HETATM   36  C16 UNL     1       3.710   5.124   6.617  1.00  0.00     0.236 C 
HETATM   37  O1  UNL     1       3.932   3.914   6.366  1.00  0.00    -0.272 OA
HETATM   38  N5  UNL     1       4.751   6.088   6.641  1.00  0.00    -0.364 N 
HETATM   39  C17 UNL     1       6.125   5.673   6.364  1.00  0.00     0.149 C 
ATOM     40  H5  UNL     1       4.542   7.064   6.849  1.00  0.00     0.161 HD
ENDBRANCH  35  36
ENDBRANCH  30  35
ENDBRANCH  25  28
ENDBRANCH  13  15
ENDBRANCH   6  13
TORSDOF 6
ENDMDL
MODEL 3
REMARK VINA RESULT: -9.548369792      5.595      8.806
REMARK  6 active torsions:
REMARK  status: ('A' for Active; 'I' for Inactive)
REMARK    1  A    between atoms: C6_6  and  N1_7 
REMARK    2  A    between atoms: N1_7  and  C7_9 
REMARK    3  A    between atoms: C12_18  and  C13_19 
REMARK    4  A    between atoms: N4_21  and  C15_22 
REMARK    5  A    between atoms: C15_22  and  C16_23 
REMARK       I    between atoms: C16_23  and  N5_25 
REMARK    6  A    between atoms: C22_35  and  C23_36 
ROOT
HETATM    1  C1  UNL     1      -6.296   2.724  19.479  1.00  0.00     0.018 C 
HETATM    2  C2  UNL     1      -6.000   2.719  18.297  1.00  0.00    -0.077 C 
HETATM    3  C3  UNL     1      -5.663   2.691  16.901  1.00  0.00     0.023 A 
HETATM    4  C4  UNL     1      -5.026   1.574  16.402  1.00  0.00     0.023 A 
HETATM    5  C5  UNL     1      -4.703   1.546  15.061  1.00  0.00     0.031 A 
HETATM    6  C6  UNL     1      -5.014   2.625  14.228  1.00  0.00     0.041 A 
HETATM    7  C22 UNL     1      -5.651   3.745  14.718  1.00  0.00    -0.011 A 
HETATM    8  C25 UNL     1      -5.968   3.760  16.060  1.00  0.00    -0.034 A 
HETATM    9  C26 UNL     1      -6.657   4.965  16.603  1.00  0.00     0.050 C 
ENDROOT
BRANCH   7  10
HETATM   10  C23 UNL     1      -5.985   4.905  13.825  1.00  0.00     0.165 C 
HETATM   11  C24 UNL     1      -4.825   5.788  13.672  1.00  0.00     0.063 C 
HETATM   12  N7  UNL     1      -3.902   6.501  13.532  1.00  0.00    -0.197 NA
ENDBRANCH   7  10
BRANCH   6  13
HETATM   13  N1  UNL     1      -4.658   2.510  12.883  1.00  0.00    -0.341 N 
ATOM     14  H1  UNL     1      -5.166   3.120  12.242  1.00  0.00     0.167 HD
BRANCH  13  15
HETATM   15  C7  UNL     1      -3.793   1.755  12.346  1.00  0.00     0.119 A 
HETATM   16  N2  UNL     1      -3.934   0.448  12.122  1.00  0.00    -0.332 N 
HETATM   17  C8  UNL     1      -2.943  -0.234  11.546  1.00  0.00     0.079 A 
ATOM     18  H2  UNL     1      -4.796  -0.028  12.389  1.00  0.00     0.168 HD
HETATM   19  C9  UNL     1      -3.139  -1.691  11.313  1.00  0.00     0.089 C 
HETATM   20  N3  UNL     1      -1.772   0.350  11.169  1.00  0.00    -0.345 N 
HETATM   21  C10 UNL     1      -1.584   1.653  11.373  1.00  0.00     0.048 A 
ATOM     22  H3  UNL     1      -1.039  -0.209  10.732  1.00  0.00     0.167 HD
HETATM   23  C11 UNL     1      -0.410   2.307  11.010  1.00  0.00     0.043 A 
HETATM   24  C21 UNL     1      -2.596   2.378  11.967  1.00  0.00     0.035 A 
HETATM   25  C12 UNL     1      -0.261   3.664  11.242  1.00  0.00    -0.017 A 
HETATM   26  C19 UNL     1      -1.266   4.400  11.836  1.00  0.00     0.013 A 
HETATM   27  C20 UNL     1      -2.420   3.739  12.189  1.00  0.00     0.018 A 
BRANCH  25  28
HETATM   28  C13 UNL     1       0.952   4.352  10.866  1.00  0.00     0.061 A 
HETATM   29  C14 UNL     1       1.736   5.207  11.606  1.00  0.00     0.128 A 
HETATM   30  N4  UNL     1       2.754   5.595  10.833  1.00  0.00    -0.291 N 
HETATM   31  N6  UNL     1       2.650   5.031   9.651  1.00  0.00    -0.264 N 
HETATM   32  C18 UNL     1       1.566   4.265   9.630  1.00  0.00     0.272 A 
ATOM     33  H6  UNL     1       3.298   5.161   8.874  1.00  0.00     0.190 HD
HETATM   34  O2  UNL     1       1.190   3.589   8.636  1.00  0.00    -0.266 OA
BRANCH  30  35
HETATM   35  C15 UNL     1       3.810   6.494  11.230  1.00  0.00     0.250 C 
BRANCH  35  36
HETATM   36  C16 UNL     1       5.026   5.791  11.656  1.00  0.00     0.236 C 
HETATM   37  O1  UNL     1       4.954   4.956  12.590  1.00  0.00    -0.272 OA
HETATM   38  N5  UNL     1       6.251   6.079  10.998  1.00  0.00    -0.364 N 
HETATM   39  C17 UNL     1       7.470   5.387  11.412  1.00  0.00     0.149 C 
ATOM     40  H5  UNL     1       6.280   6.763  10.243  1.00  0.00     0.161 HD
ENDBRANCH  35  36
ENDBRANCH  30  35
ENDBRANCH  25  28
ENDBRANCH  13  15
ENDBRANCH   6  13
TORSDOF 6
ENDMDL
MODEL 4
REMARK VINA RESULT: -9.370196665      1.663      2.010
REMARK  6 active torsions:
REMARK  status: ('A' for Active; 'I' for Inactive)
REMARK    1  A    between atoms: C6_6  and  N1_7 
REMARK    2  A    between atoms: N1_7  and  C7_9 
REMARK    3  A    between atoms: C12_18  and  C13_19 
REMARK    4  A    between atoms: N4_21  and  C15_22 
REMARK    5  A    between atoms: C15_22  and  C16_23 
REMARK       I    between atoms: C16_23  and  N5_25 
REMARK    6  A    between atoms: C22_35  and  C23_36 
ROOT
HETATM    1  C1  UNL     1      -6.214   2.260  18.983  1.00  0.00     0.018 C 
HETATM    2  C2  UNL     1      -6.013   2.760  17.890  1.00  0.00    -0.077 C 
HETATM    3  C3  UNL     1      -5.766   3.371  16.614  1.00  0.00     0.023 A 
HETATM    4  C4  UNL     1      -6.332   4.602  16.356  1.00  0.00     0.023 A 
HETATM    5  C5  UNL     1      -6.095   5.190  15.131  1.00  0.00     0.031 A 
HETATM    6  C6  UNL     1      -5.301   4.551  14.173  1.00  0.00     0.041 A 
HETATM    7  C22 UNL     1      -4.733   3.321  14.422  1.00  0.00    -0.011 A 
HETATM    8  C25 UNL     1      -4.977   2.745  15.650  1.00  0.00    -0.034 A 
HETATM    9  C26 UNL     1      -4.369   1.414  15.933  1.00  0.00     0.050 C 
ENDROOT
BRANCH   7  10
HETATM   10  C23 UNL     1      -3.881   2.633  13.394  1.00  0.00     0.165 C 
HETATM   11  C24 UNL     1      -4.700   2.182  12.265  1.00  0.00     0.063 C 
HETATM   12  N7  UNL     1      -5.341   1.823  11.348  1.00  0.00    -0.197 NA
ENDBRANCH   7  10
BRANCH   6  13
HETATM   13  N1  UNL     1      -5.108   5.220  12.963  1.00  0.00    -0.341 N 
ATOM     14  H1  UNL     1      -5.717   4.927  12.198  1.00  0.00     0.167 HD
BRANCH  13  15
HETATM   15  C7  UNL     1      -4.283   6.140  12.680  1.00  0.00     0.119 A 
HETATM   16  N2  UNL     1      -2.992   6.155  13.013  1.00  0.00    -0.332 N 
HETATM   17  C8  UNL     1      -2.229   7.188  12.651  1.00  0.00     0.079 A 
ATOM     18  H2  UNL     1      -2.589   5.382  13.541  1.00  0.00     0.168 HD
HETATM   19  C9  UNL     1      -0.793   7.168  13.042  1.00  0.00     0.089 C 
HETATM   20  N3  UNL     1      -2.713   8.247  11.945  1.00  0.00    -0.345 N 
HETATM   21  C10 UNL     1      -3.996   8.277  11.589  1.00  0.00     0.048 A 
ATOM     22  H3  UNL     1      -2.095   9.016  11.689  1.00  0.00     0.167 HD
HETATM   23  C11 UNL     1      -4.551   9.331  10.869  1.00  0.00     0.043 A 
HETATM   24  C21 UNL     1      -4.804   7.220  11.953  1.00  0.00     0.035 A 
HETATM   25  C12 UNL     1      -5.891   9.318  10.521  1.00  0.00    -0.017 A 
HETATM   26  C19 UNL     1      -6.709   8.265  10.879  1.00  0.00     0.013 A 
HETATM   27  C20 UNL     1      -6.147   7.231  11.593  1.00  0.00     0.018 A 
BRANCH  25  28
HETATM   28  C13 UNL     1      -6.474  10.405   9.770  1.00  0.00     0.061 A 
HETATM   29  C14 UNL     1      -7.145  10.374   8.568  1.00  0.00     0.128 A 
HETATM   30  N4  UNL     1      -7.497  11.628   8.271  1.00  0.00    -0.291 N 
HETATM   31  N6  UNL     1      -7.083  12.440   9.217  1.00  0.00    -0.264 N 
HETATM   32  C18 UNL     1      -6.456  11.734  10.150  1.00  0.00     0.272 A 
ATOM     33  H6  UNL     1      -7.222  13.451   9.233  1.00  0.00     0.190 HD
HETATM   34  O2  UNL     1      -5.943  12.224  11.191  1.00  0.00    -0.266 OA
BRANCH  30  35
HETATM   35  C15 UNL     1      -8.222  12.035   7.092  1.00  0.00     0.250 C 
BRANCH  35  36
HETATM   36  C16 UNL     1      -9.601  12.441   7.383  1.00  0.00     0.236 C 
HETATM   37  O1  UNL     1      -9.985  12.490   8.577  1.00  0.00    -0.272 OA
HETATM   38  N5  UNL     1     -10.465  12.766   6.304  1.00  0.00    -0.364 N 
HETATM   39  C17 UNL     1     -11.841  13.172   6.580  1.00  0.00     0.149 C 
ATOM     40  H5  UNL     1     -10.126  12.715   5.343  1.00  0.00     0.161 HD
ENDBRANCH  35  36
ENDBRANCH  30  35
ENDBRANCH  25  28
ENDBRANCH  13  15
ENDBRANCH   6  13
TORSDOF 6
ENDMDL
MODEL 5
REMARK VINA RESULT: -9.052905583      5.539      8.090
REMARK  6 active torsions:
REMARK  status: ('A' for Active; 'I' for Inactive)
REMARK    1  A    between atoms: C6_6  and  N1_7 
REMARK    2  A    between atoms: N1_7  and  C7_9 
REMARK    3  A    between atoms: C12_18  and  C13_19 
REMARK    4  A    between atoms: N4_21  and  C15_22 
REMARK    5  A    between atoms: C15_22  and  C16_23 
REMARK       I    between atoms: C16_23  and  N5_25 
REMARK    6  A    between atoms: C22_35  and  C23_36 
ROOT
HETATM    1  C1  UNL     1      -6.301   2.699  19.514  1.00  0.00     0.018 C 
HETATM    2  C2  UNL     1      -6.004   2.702  18.332  1.00  0.00    -0.077 C 
HETATM    3  C3  UNL     1      -5.667   2.682  16.937  1.00  0.00     0.023 A 
HETATM    4  C4  UNL     1      -5.034   1.566  16.430  1.00  0.00     0.023 A 
HETATM    5  C5  UNL     1      -4.711   1.546  15.089  1.00  0.00     0.031 A 
HETATM    6  C6  UNL     1      -5.017   2.632  14.263  1.00  0.00     0.041 A 
HETATM    7  C22 UNL     1      -5.649   3.751  14.761  1.00  0.00    -0.011 A 
HETATM    8  C25 UNL     1      -5.967   3.758  16.102  1.00  0.00    -0.034 A 
HETATM    9  C26 UNL     1      -6.650   4.962  16.654  1.00  0.00     0.050 C 
ENDROOT
BRANCH   7  10
HETATM   10  C23 UNL     1      -5.978   4.919  13.876  1.00  0.00     0.165 C 
HETATM   11  C24 UNL     1      -4.794   5.759  13.671  1.00  0.00     0.063 C 
HETATM   12  N7  UNL     1      -3.852   6.437  13.490  1.00  0.00    -0.197 NA
ENDBRANCH   7  10
BRANCH   6  13
HETATM   13  N1  UNL     1      -4.661   2.525  12.918  1.00  0.00    -0.341 N 
ATOM     14  H1  UNL     1      -5.087   3.212  12.296  1.00  0.00     0.167 HD
BRANCH  13  15
HETATM   15  C7  UNL     1      -3.882   1.694  12.360  1.00  0.00     0.119 A 
HETATM   16  N2  UNL     1      -4.045   0.370  12.339  1.00  0.00    -0.332 N 
HETATM   17  C8  UNL     1      -3.149  -0.395  11.714  1.00  0.00     0.079 A 
ATOM     18  H2  UNL     1      -4.850  -0.055  12.799  1.00  0.00     0.168 HD
HETATM   19  C9  UNL     1      -3.365  -1.867  11.712  1.00  0.00     0.089 C 
HETATM   20  N3  UNL     1      -2.056   0.119  11.084  1.00  0.00    -0.345 N 
HETATM   21  C10 UNL     1      -1.851   1.435  11.078  1.00  0.00     0.048 A 
ATOM     22  H3  UNL     1      -1.396  -0.502  10.617  1.00  0.00     0.167 HD
HETATM   23  C11 UNL     1      -0.754   2.021  10.452  1.00  0.00     0.043 A 
HETATM   24  C21 UNL     1      -2.765   2.246  11.719  1.00  0.00     0.035 A 
HETATM   25  C12 UNL     1      -0.583   3.395  10.472  1.00  0.00    -0.017 A 
HETATM   26  C19 UNL     1      -1.491   4.216  11.111  1.00  0.00     0.013 A 
HETATM   27  C20 UNL     1      -2.569   3.622  11.725  1.00  0.00     0.018 A 
BRANCH  25  28
HETATM   28  C13 UNL     1       0.550   4.011   9.823  1.00  0.00     0.061 A 
HETATM   29  C14 UNL     1       0.714   4.365   8.503  1.00  0.00     0.128 A 
HETATM   30  N4  UNL     1       1.930   4.903   8.376  1.00  0.00    -0.291 N 
HETATM   31  N6  UNL     1       2.535   4.905   9.543  1.00  0.00    -0.264 N 
HETATM   32  C18 UNL     1       1.728   4.371  10.451  1.00  0.00     0.272 A 
ATOM     33  H6  UNL     1       3.475   5.260   9.721  1.00  0.00     0.190 HD
HETATM   34  O2  UNL     1       2.019   4.231  11.669  1.00  0.00    -0.266 OA
BRANCH  30  35
HETATM   35  C15 UNL     1       2.497   5.407   7.150  1.00  0.00     0.250 C 
BRANCH  35  36
HETATM   36  C16 UNL     1       2.494   6.873   7.082  1.00  0.00     0.236 C 
HETATM   37  O1  UNL     1       2.750   7.534   8.118  1.00  0.00    -0.272 OA
HETATM   38  N5  UNL     1       2.200   7.503   5.844  1.00  0.00    -0.364 N 
HETATM   39  C17 UNL     1       2.193   8.962   5.762  1.00  0.00     0.149 C 
ATOM     40  H5  UNL     1       1.994   6.941   5.019  1.00  0.00     0.161 HD
ENDBRANCH  35  36
ENDBRANCH  30  35
ENDBRANCH  25  28
ENDBRANCH  13  15
ENDBRANCH   6  13
TORSDOF 6
ENDMDL
