MODEL 1
REMARK VINA RESULT: -8.690840730      0.000      0.000
REMARK  5 active torsions:
REMARK  status: ('A' for Active; 'I' for Inactive)
REMARK       I    between atoms: C1_2  and  N1_3 
REMARK    1  A    between atoms: C1_2  and  C11_17 
REMARK    2  A    between atoms: N1_3  and  C2_5 
REMARK    3  A    between atoms: C4_9  and  C5_10 
REMARK    4  A    between atoms: C15_21  and  N3_22 
REMARK       I    between atoms: N3_22  and  C16_24 
REMARK    5  A    between atoms: C16_24  and  C17_26 
ROOT
HETATM    1  C11 UNL     1       1.714   2.919 -16.353  1.00  0.00     0.102 A 
HETATM    2  C12 UNL     1       1.651   2.899 -14.974  1.00  0.00     0.035 A 
HETATM    3  C13 UNL     1       1.958   4.034 -14.242  1.00  0.00     0.006 A 
HETATM    4  C14 UNL     1       2.323   5.157 -14.933  1.00  0.00     0.049 A 
HETATM    5  C15 UNL     1       2.380   5.153 -16.305  1.00  0.00     0.108 A 
HETATM    6  N5  UNL     1       2.078   4.043 -16.984  1.00  0.00    -0.338 N 
ATOM      7  H5  UNL     1       2.125   4.051 -18.002  1.00  0.00     0.167 HD
ENDROOT
BRANCH   1   8
HETATM    8  C1  UNL     1       1.398   1.745 -17.140  1.00  0.00     0.274 C 
HETATM    9  O1  UNL     1       0.288   1.684 -17.723  1.00  0.00    -0.266 OA
HETATM   10  N1  UNL     1       2.368   0.714 -17.216  1.00  0.00    -0.302 N 
ATOM     11  H1  UNL     1       2.656   0.190 -16.389  1.00  0.00     0.171 HD
BRANCH  10  12
HETATM   12  C2  UNL     1       2.877   0.464 -18.401  1.00  0.00     0.152 A 
HETATM   13  N2  UNL     1       2.568   0.996 -19.577  1.00  0.00    -0.345 N 
HETATM   14  C3  UNL     1       3.212   0.594 -20.641  1.00  0.00     0.110 A 
ATOM     15  H2  UNL     1       1.840   1.707 -19.649  1.00  0.00     0.167 HD
HETATM   16  C4  UNL     1       4.177  -0.362 -20.479  1.00  0.00     0.034 A 
HETATM   17  S1  UNL     1       4.119  -0.646 -18.796  1.00  0.00    -0.052 SA
BRANCH  16  18
HETATM   18  C5  UNL     1       5.038  -0.985 -21.482  1.00  0.00    -0.018 A 
HETATM   19  C6  UNL     1       4.912  -2.324 -21.748  1.00  0.00     0.013 A 
HETATM   20  C7  UNL     1       5.730  -2.903 -22.697  1.00  0.00     0.001 A 
HETATM   21  C8  UNL     1       6.677  -2.156 -23.385  1.00  0.00     0.000 A 
HETATM   22  C9  UNL     1       6.803  -0.811 -23.119  1.00  0.00     0.001 A 
HETATM   23  C10 UNL     1       5.975  -0.235 -22.161  1.00  0.00     0.013 A 
ENDBRANCH  16  18
ENDBRANCH  10  12
ENDBRANCH   1   8
BRANCH   5  24
HETATM   24  N3  UNL     1       2.725   6.215 -16.960  1.00  0.00    -0.307 N 
HETATM   25  C16 UNL     1       1.880   7.329 -17.099  1.00  0.00     0.283 C 
HETATM   26  O2  UNL     1       2.025   8.277 -16.284  1.00  0.00    -0.265 OA
ATOM     27  H3  UNL     1       3.648   6.244 -17.393  1.00  0.00     0.170 HD
BRANCH  25  28
HETATM   28  C17 UNL     1       0.891   7.349 -18.156  1.00  0.00     0.168 A 
HETATM   29  C18 UNL     1       1.048   6.918 -19.468  1.00  0.00     0.064 A 
HETATM   30  C19 UNL     1      -0.165   7.140 -20.082  1.00  0.00     0.117 A 
HETATM   31  N4  UNL     1      -0.972   7.672 -19.166  1.00  0.00    -0.272 N 
HETATM   32  O3  UNL     1      -0.334   7.782 -18.062  1.00  0.00    -0.233 OA
ATOM     33  H4  UNL     1      -1.942   7.947 -19.320  1.00  0.00     0.194 HD
ENDBRANCH  25  28
ENDBRANCH   5  24
TORSDOF 5
ENDMDL
MODEL 2
REMARK VINA RESULT: -8.464103623      1.799      2.131
REMARK  5 active torsions:
REMARK  status: ('A' for Active; 'I' for Inactive)
REMARK       I    between atoms: C1_2  and  N1_3 
REMARK    1  A    between atoms: C1_2  and  C11_17 
REMARK    2  A    between atoms: N1_3  and  C2_5 
REMARK    3  A    between atoms: C4_9  and  C5_10 
REMARK    4  A    between atoms: C15_21  and  N3_22 
REMARK       I    between atoms: N3_22  and  C16_24 
REMARK    5  A    between atoms: C16_24  and  C17_26 
ROOT
HETATM    1  C11 UNL     1       2.570   3.206 -14.844  1.00  0.00     0.102 A 
HETATM    2  C12 UNL     1       2.330   3.706 -13.580  1.00  0.00     0.035 A 
HETATM    3  C13 UNL     1       2.237   5.072 -13.372  1.00  0.00     0.006 A 
HETATM    4  C14 UNL     1       2.393   5.892 -14.456  1.00  0.00     0.049 A 
HETATM    5  C15 UNL     1       2.633   5.373 -15.704  1.00  0.00     0.108 A 
HETATM    6  N5  UNL     1       2.717   4.050 -15.874  1.00  0.00    -0.338 N 
ATOM      7  H5  UNL     1       2.896   3.675 -16.805  1.00  0.00     0.167 HD
ENDROOT
BRANCH   1   8
HETATM    8  C1  UNL     1       2.672   1.781 -15.087  1.00  0.00     0.274 C 
HETATM    9  O1  UNL     1       1.626   1.088 -15.089  1.00  0.00    -0.266 OA
HETATM   10  N1  UNL     1       3.960   1.236 -15.314  1.00  0.00    -0.302 N 
ATOM     11  H1  UNL     1       4.683   1.255 -14.594  1.00  0.00     0.171 HD
BRANCH  10  12
HETATM   12  C2  UNL     1       4.181   0.705 -16.495  1.00  0.00     0.152 A 
HETATM   13  N2  UNL     1       3.682  -0.406 -17.023  1.00  0.00    -0.345 N 
HETATM   14  C3  UNL     1       4.043  -0.749 -18.232  1.00  0.00     0.110 A 
ATOM     15  H2  UNL     1       3.026  -0.982 -16.494  1.00  0.00     0.167 HD
HETATM   16  C4  UNL     1       4.925   0.065 -18.888  1.00  0.00     0.034 A 
HETATM   17  S1  UNL     1       5.200   1.297 -17.738  1.00  0.00    -0.052 SA
BRANCH  16  18
HETATM   18  C5  UNL     1       5.490  -0.077 -20.229  1.00  0.00    -0.018 A 
HETATM   19  C6  UNL     1       4.934   0.613 -21.275  1.00  0.00     0.013 A 
HETATM   20  C7  UNL     1       5.475   0.473 -22.538  1.00  0.00     0.001 A 
HETATM   21  C8  UNL     1       6.568  -0.352 -22.767  1.00  0.00     0.000 A 
HETATM   22  C9  UNL     1       7.126  -1.044 -21.715  1.00  0.00     0.001 A 
HETATM   23  C10 UNL     1       6.576  -0.897 -20.446  1.00  0.00     0.013 A 
ENDBRANCH  16  18
ENDBRANCH  10  12
ENDBRANCH   1   8
BRANCH   5  24
HETATM   24  N3  UNL     1       2.779   6.147 -16.731  1.00  0.00    -0.307 N 
HETATM   25  C16 UNL     1       1.695   6.763 -17.380  1.00  0.00     0.283 C 
HETATM   26  O2  UNL     1       1.405   7.940 -17.042  1.00  0.00    -0.265 OA
ATOM     27  H3  UNL     1       3.721   6.318 -17.084  1.00  0.00     0.170 HD
BRANCH  25  28
HETATM   28  C17 UNL     1       0.964   6.036 -18.396  1.00  0.00     0.168 A 
HETATM   29  C18 UNL     1       0.261   6.566 -19.472  1.00  0.00     0.064 A 
HETATM   30  C19 UNL     1      -0.259   5.483 -20.148  1.00  0.00     0.117 A 
HETATM   31  N4  UNL     1       0.130   4.393 -19.490  1.00  0.00    -0.272 N 
HETATM   32  O3  UNL     1       0.835   4.743 -18.481  1.00  0.00    -0.233 OA
ATOM     33  H4  UNL     1      -0.098   3.432 -19.749  1.00  0.00     0.194 HD
ENDBRANCH  25  28
ENDBRANCH   5  24
TORSDOF 5
ENDMDL
MODEL 3
REMARK VINA RESULT: -8.330781929      2.948      5.180
REMARK  5 active torsions:
REMARK  status: ('A' for Active; 'I' for Inactive)
REMARK       I    between atoms: C1_2  and  N1_3 
REMARK    1  A    between atoms: C1_2  and  C11_17 
REMARK    2  A    between atoms: N1_3  and  C2_5 
REMARK    3  A    between atoms: C4_9  and  C5_10 
REMARK    4  A    between atoms: C15_21  and  N3_22 
REMARK       I    between atoms: N3_22  and  C16_24 
REMARK    5  A    between atoms: C16_24  and  C17_26 
ROOT
HETATM    1  C11 UNL     1       2.916   4.766 -16.184  1.00  0.00     0.102 A 
HETATM    2  C12 UNL     1       2.233   5.486 -15.223  1.00  0.00     0.035 A 
HETATM    3  C13 UNL     1       2.617   5.419 -13.894  1.00  0.00     0.006 A 
HETATM    4  C14 UNL     1       3.682   4.621 -13.579  1.00  0.00     0.049 A 
HETATM    5  C15 UNL     1       4.345   3.913 -14.551  1.00  0.00     0.108 A 
HETATM    6  N5  UNL     1       3.953   3.998 -15.825  1.00  0.00    -0.338 N 
ATOM      7  H5  UNL     1       4.452   3.468 -16.538  1.00  0.00     0.167 HD
ENDROOT
BRANCH   1   8
HETATM    8  C1  UNL     1       2.535   4.819 -17.580  1.00  0.00     0.274 C 
HETATM    9  O1  UNL     1       3.040   5.700 -18.316  1.00  0.00    -0.266 OA
HETATM   10  N1  UNL     1       1.600   3.862 -18.051  1.00  0.00    -0.302 N 
ATOM     11  H1  UNL     1       0.643   3.832 -17.699  1.00  0.00     0.171 HD
BRANCH  10  12
HETATM   12  C2  UNL     1       2.025   3.016 -18.962  1.00  0.00     0.152 A 
HETATM   13  N2  UNL     1       1.467   2.677 -20.118  1.00  0.00    -0.345 N 
HETATM   14  C3  UNL     1       2.072   1.803 -20.878  1.00  0.00     0.110 A 
ATOM     15  H2  UNL     1       0.581   3.091 -20.407  1.00  0.00     0.167 HD
HETATM   16  C4  UNL     1       3.256   1.283 -20.434  1.00  0.00     0.034 A 
HETATM   17  S1  UNL     1       3.454   2.075 -18.935  1.00  0.00    -0.052 SA
BRANCH  16  18
HETATM   18  C5  UNL     1       4.132   0.302 -21.073  1.00  0.00    -0.018 A 
HETATM   19  C6  UNL     1       3.911  -1.036 -20.874  1.00  0.00     0.013 A 
HETATM   20  C7  UNL     1       4.743  -1.955 -21.482  1.00  0.00     0.001 A 
HETATM   21  C8  UNL     1       5.799  -1.549 -22.288  1.00  0.00     0.000 A 
HETATM   22  C9  UNL     1       6.021  -0.204 -22.487  1.00  0.00     0.001 A 
HETATM   23  C10 UNL     1       5.177   0.715 -21.872  1.00  0.00     0.013 A 
ENDBRANCH  16  18
ENDBRANCH  10  12
ENDBRANCH   1   8
BRANCH   5  24
HETATM   24  N3  UNL     1       5.354   3.159 -14.254  1.00  0.00    -0.307 N 
HETATM   25  C16 UNL     1       5.683   2.006 -14.987  1.00  0.00     0.283 C 
HETATM   26  O2  UNL     1       6.550   2.117 -15.892  1.00  0.00    -0.265 OA
ATOM     27  H3  UNL     1       5.935   3.412 -13.454  1.00  0.00     0.170 HD
BRANCH  25  28
HETATM   28  C17 UNL     1       5.025   0.753 -14.681  1.00  0.00     0.168 A 
HETATM   29  C18 UNL     1       4.033   0.117 -15.418  1.00  0.00     0.064 A 
HETATM   30  C19 UNL     1       3.732  -1.035 -14.724  1.00  0.00     0.117 A 
HETATM   31  N4  UNL     1       4.514  -1.054 -13.647  1.00  0.00    -0.272 N 
HETATM   32  O3  UNL     1       5.252  -0.008 -13.648  1.00  0.00    -0.233 OA
ATOM     33  H4  UNL     1       4.525  -1.785 -12.935  1.00  0.00     0.194 HD
ENDBRANCH  25  28
ENDBRANCH   5  24
TORSDOF 5
ENDMDL
MODEL 4
REMARK VINA RESULT: -8.260655346      4.249      7.998
REMARK  5 active torsions:
REMARK  status: ('A' for Active; 'I' for Inactive)
REMARK       I    between atoms: C1_2  and  N1_3 
REMARK    1  A    between atoms: C1_2  and  C11_17 
REMARK    2  A    between atoms: N1_3  and  C2_5 
REMARK    3  A    between atoms: C4_9  and  C5_10 
REMARK    4  A    between atoms: C15_21  and  N3_22 
REMARK       I    between atoms: N3_22  and  C16_24 
REMARK    5  A    between atoms: C16_24  and  C17_26 
ROOT
HETATM    1  C11 UNL     1       4.648   0.928 -15.474  1.00  0.00     0.102 A 
HETATM    2  C12 UNL     1       5.281  -0.032 -14.710  1.00  0.00     0.035 A 
HETATM    3  C13 UNL     1       5.014  -1.376 -14.911  1.00  0.00     0.006 A 
HETATM    4  C14 UNL     1       4.108  -1.706 -15.882  1.00  0.00     0.049 A 
HETATM    5  C15 UNL     1       3.490  -0.734 -16.630  1.00  0.00     0.108 A 
HETATM    6  N5  UNL     1       3.768   0.555 -16.413  1.00  0.00    -0.338 N 
ATOM      7  H5  UNL     1       3.303   1.268 -16.973  1.00  0.00     0.167 HD
ENDROOT
BRANCH   1   8
HETATM    8  C1  UNL     1       4.910   2.340 -15.283  1.00  0.00     0.274 C 
HETATM    9  O1  UNL     1       5.945   2.840 -15.785  1.00  0.00    -0.266 OA
HETATM   10  N1  UNL     1       3.975   3.094 -14.530  1.00  0.00    -0.302 N 
ATOM     11  H1  UNL     1       3.803   2.901 -13.543  1.00  0.00     0.171 HD
BRANCH  10  12
HETATM   12  C2  UNL     1       3.338   4.052 -15.164  1.00  0.00     0.152 A 
HETATM   13  N2  UNL     1       3.034   5.276 -14.748  1.00  0.00    -0.345 N 
HETATM   14  C3  UNL     1       2.387   6.075 -15.556  1.00  0.00     0.110 A 
ATOM     15  H2  UNL     1       3.300   5.587 -13.813  1.00  0.00     0.167 HD
HETATM   16  C4  UNL     1       2.058   5.599 -16.795  1.00  0.00     0.034 A 
HETATM   17  S1  UNL     1       2.694   4.015 -16.749  1.00  0.00    -0.052 SA
BRANCH  16  18
HETATM   18  C5  UNL     1       1.346   6.268 -17.882  1.00  0.00    -0.018 A 
HETATM   19  C6  UNL     1       0.676   5.519 -18.815  1.00  0.00     0.013 A 
HETATM   20  C7  UNL     1       0.007   6.160 -19.839  1.00  0.00     0.001 A 
HETATM   21  C8  UNL     1       0.001   7.544 -19.941  1.00  0.00     0.000 A 
HETATM   22  C9  UNL     1       0.674   8.296 -19.004  1.00  0.00     0.001 A 
HETATM   23  C10 UNL     1       1.346   7.643 -17.976  1.00  0.00     0.013 A 
ENDBRANCH  16  18
ENDBRANCH  10  12
ENDBRANCH   1   8
BRANCH   5  24
HETATM   24  N3  UNL     1       2.635  -1.045 -17.549  1.00  0.00    -0.307 N 
HETATM   25  C16 UNL     1       1.304  -0.593 -17.534  1.00  0.00     0.283 C 
HETATM   26  O2  UNL     1       1.030   0.441 -18.197  1.00  0.00    -0.265 OA
ATOM     27  H3  UNL     1       2.938  -1.643 -18.318  1.00  0.00     0.170 HD
BRANCH  25  28
HETATM   28  C17 UNL     1       0.311  -1.319 -16.771  1.00  0.00     0.168 A 
HETATM   29  C18 UNL     1      -0.654  -2.194 -17.256  1.00  0.00     0.064 A 
HETATM   30  C19 UNL     1      -1.354  -2.629 -16.152  1.00  0.00     0.117 A 
HETATM   31  N4  UNL     1      -0.815  -2.031 -15.091  1.00  0.00    -0.272 N 
HETATM   32  O3  UNL     1       0.146  -1.280 -15.479  1.00  0.00    -0.233 OA
ATOM     33  H4  UNL     1      -1.118  -2.153 -14.125  1.00  0.00     0.194 HD
ENDBRANCH  25  28
ENDBRANCH   5  24
TORSDOF 5
ENDMDL
MODEL 5
REMARK VINA RESULT: -8.240803228      2.179      3.761
REMARK  5 active torsions:
REMARK  status: ('A' for Active; 'I' for Inactive)
REMARK       I    between atoms: C1_2  and  N1_3 
REMARK    1  A    between atoms: C1_2  and  C11_17 
REMARK    2  A    between atoms: N1_3  and  C2_5 
REMARK    3  A    between atoms: C4_9  and  C5_10 
REMARK    4  A    between atoms: C15_21  and  N3_22 
REMARK       I    between atoms: N3_22  and  C16_24 
REMARK    5  A    between atoms: C16_24  and  C17_26 
ROOT
HETATM    1  C11 UNL     1       0.854   3.845 -19.026  1.00  0.00     0.102 A 
HETATM    2  C12 UNL     1       0.069   4.884 -19.486  1.00  0.00     0.035 A 
HETATM    3  C13 UNL     1       0.294   6.178 -19.048  1.00  0.00     0.006 A 
HETATM    4  C14 UNL     1       1.309   6.380 -18.154  1.00  0.00     0.049 A 
HETATM    5  C15 UNL     1       2.076   5.331 -17.709  1.00  0.00     0.108 A 
HETATM    6  N5  UNL     1       1.836   4.093 -18.150  1.00  0.00    -0.338 N 
ATOM      7  H5  UNL     1       2.411   3.322 -17.813  1.00  0.00     0.167 HD
ENDROOT
BRANCH   1   8
HETATM    8  C1  UNL     1       0.639   2.482 -19.469  1.00  0.00     0.274 C 
HETATM    9  O1  UNL     1       0.038   2.281 -20.552  1.00  0.00    -0.266 OA
HETATM   10  N1  UNL     1       1.125   1.433 -18.649  1.00  0.00    -0.302 N 
ATOM     11  H1  UNL     1       0.762   1.278 -17.708  1.00  0.00     0.171 HD
BRANCH  10  12
HETATM   12  C2  UNL     1       2.064   0.668 -19.157  1.00  0.00     0.152 A 
HETATM   13  N2  UNL     1       2.570  -0.466 -18.688  1.00  0.00    -0.345 N 
HETATM   14  C3  UNL     1       3.511  -1.067 -19.367  1.00  0.00     0.110 A 
ATOM     15  H2  UNL     1       2.229  -0.861 -17.811  1.00  0.00     0.167 HD
HETATM   16  C4  UNL     1       3.925  -0.487 -20.534  1.00  0.00     0.034 A 
HETATM   17  S1  UNL     1       2.940   0.907 -20.609  1.00  0.00    -0.052 SA
BRANCH  16  18
HETATM   18  C5  UNL     1       4.946  -0.936 -21.478  1.00  0.00    -0.018 A 
HETATM   19  C6  UNL     1       5.753  -0.015 -22.094  1.00  0.00     0.013 A 
HETATM   20  C7  UNL     1       6.714  -0.449 -22.985  1.00  0.00     0.001 A 
HETATM   21  C8  UNL     1       6.877  -1.799 -23.268  1.00  0.00     0.000 A 
HETATM   22  C9  UNL     1       6.067  -2.724 -22.649  1.00  0.00     0.001 A 
HETATM   23  C10 UNL     1       5.101  -2.278 -21.752  1.00  0.00     0.013 A 
ENDBRANCH  16  18
ENDBRANCH  10  12
ENDBRANCH   1   8
BRANCH   5  24
HETATM   24  N3  UNL     1       3.037   5.521 -16.864  1.00  0.00    -0.307 N 
HETATM   25  C16 UNL     1       3.374   4.583 -15.872  1.00  0.00     0.283 C 
HETATM   26  O2  UNL     1       4.301   3.772 -16.127  1.00  0.00    -0.265 OA
ATOM     27  H3  UNL     1       3.573   6.387 -16.920  1.00  0.00     0.170 HD
BRANCH  25  28
HETATM   28  C17 UNL     1       2.656   4.584 -14.615  1.00  0.00     0.168 A 
HETATM   29  C18 UNL     1       2.878   5.405 -13.516  1.00  0.00     0.064 A 
HETATM   30  C19 UNL     1       1.948   5.027 -12.573  1.00  0.00     0.117 A 
HETATM   31  N4  UNL     1       1.233   4.039 -13.108  1.00  0.00    -0.272 N 
HETATM   32  O3  UNL     1       1.664   3.804 -14.289  1.00  0.00    -0.233 OA
ATOM     33  H4  UNL     1       0.464   3.549 -12.649  1.00  0.00     0.194 HD
ENDBRANCH  25  28
ENDBRANCH   5  24
TORSDOF 5
ENDMDL
