MODEL 1
REMARK VINA RESULT: -6.461418009      0.000      0.000
REMARK  7 active torsions:
REMARK  status: ('A' for Active; 'I' for Inactive)
REMARK    1  A    between atoms: N1_1  and  N2_4 
REMARK    2  A    between atoms: N3_6  and  C1_8 
REMARK    3  A    between atoms: C1_8  and  C2_9 
REMARK    4  A    between atoms: C2_9  and  N4_10 
REMARK    5  A    between atoms: N4_10  and  C3_12 
REMARK    6  A    between atoms: C3_12  and  N5_14 
REMARK    7  A    between atoms: N5_14  and  C4_16 
ROOT
HETATM    1  C3  UNL     1      27.214   8.431 -43.468  1.00  0.00     0.173 C 
HETATM    2  S1  UNL     1      27.933   7.430 -44.529  1.00  0.00    -0.041 SA
ENDROOT
BRANCH   1   3
HETATM    3  N4  UNL     1      27.487   8.415 -42.090  1.00  0.00    -0.365 N 
ATOM      4  H4  UNL     1      26.685   8.362 -41.462  1.00  0.00     0.161 HD
BRANCH   3   5
HETATM    5  C2  UNL     1      28.792   8.468 -41.478  1.00  0.00     0.143 C 
BRANCH   5   6
HETATM    6  C1  UNL     1      29.555   9.622 -42.072  1.00  0.00     0.160 C 
BRANCH   6   7
HETATM    7  N3  UNL     1      29.171  10.822 -41.315  1.00  0.00    -0.321 N 
HETATM    8  N2  UNL     1      29.872  11.181 -40.372  1.00  0.00    -0.254 N 
ATOM      9  H2  UNL     1      29.956  10.310 -39.848  1.00  0.00     0.207 HD
ATOM     10  H3  UNL     1      28.335  11.349 -41.570  1.00  0.00     0.181 HD
BRANCH   8  11
HETATM   11  N1  UNL     1      30.537  11.946 -39.668  1.00  0.00    -0.331 N 
ATOM     12  H12 UNL     1      31.038  12.429 -40.413  1.00  0.00     0.178 HD
ATOM     13  H11 UNL     1      30.886  12.381 -38.814  1.00  0.00     0.178 HD
ENDBRANCH   8  11
ENDBRANCH   6   7
ENDBRANCH   5   6
ENDBRANCH   3   5
ENDBRANCH   1   3
BRANCH   1  14
HETATM   14  N5  UNL     1      26.262   9.343 -43.985  1.00  0.00    -0.318 N 
ATOM     15  H5  UNL     1      25.293   9.238 -43.683  1.00  0.00     0.170 HD
BRANCH  14  16
HETATM   16  C4  UNL     1      26.527  10.292 -44.805  1.00  0.00     0.121 A 
HETATM   17  C5  UNL     1      27.415  11.299 -44.519  1.00  0.00     0.051 A 
HETATM   18  C6  UNL     1      27.659  12.291 -45.441  1.00  0.00     0.022 A 
HETATM   19  C7  UNL     1      26.987  12.228 -46.637  1.00  0.00     0.107 A 
HETATM   20  N6  UNL     1      26.142  11.220 -46.840  1.00  0.00    -0.310 N 
HETATM   21  N7  UNL     1      25.883  10.263 -45.996  1.00  0.00    -0.286 N 
ATOM     22  H6  UNL     1      25.653  11.195 -47.735  1.00  0.00     0.186 HD
ATOM     23  H7  UNL     1      25.221   9.521 -46.223  1.00  0.00     0.188 HD
ENDBRANCH  14  16
ENDBRANCH   1  14
TORSDOF 7
ENDMDL
MODEL 2
REMARK VINA RESULT: -6.375714481      2.965      4.462
REMARK  7 active torsions:
REMARK  status: ('A' for Active; 'I' for Inactive)
REMARK    1  A    between atoms: N1_1  and  N2_4 
REMARK    2  A    between atoms: N3_6  and  C1_8 
REMARK    3  A    between atoms: C1_8  and  C2_9 
REMARK    4  A    between atoms: C2_9  and  N4_10 
REMARK    5  A    between atoms: N4_10  and  C3_12 
REMARK    6  A    between atoms: C3_12  and  N5_14 
REMARK    7  A    between atoms: N5_14  and  C4_16 
ROOT
HETATM    1  C3  UNL     1      27.345   8.018 -43.686  1.00  0.00     0.173 C 
HETATM    2  S1  UNL     1      27.662   7.513 -42.173  1.00  0.00    -0.041 SA
ENDROOT
BRANCH   1   3
HETATM    3  N4  UNL     1      27.892   7.411 -44.829  1.00  0.00    -0.365 N 
ATOM      4  H4  UNL     1      27.612   7.793 -45.732  1.00  0.00     0.161 HD
BRANCH   3   5
HETATM    5  C2  UNL     1      28.812   6.299 -44.847  1.00  0.00     0.143 C 
BRANCH   5   6
HETATM    6  C1  UNL     1      29.981   6.656 -45.726  1.00  0.00     0.160 C 
BRANCH   6   7
HETATM    7  N3  UNL     1      29.428   7.259 -46.947  1.00  0.00    -0.321 N 
HETATM    8  N2  UNL     1      29.767   6.808 -48.039  1.00  0.00    -0.254 N 
ATOM      9  H2  UNL     1      30.782   6.803 -47.943  1.00  0.00     0.207 HD
ATOM     10  H3  UNL     1      28.775   8.039 -46.889  1.00  0.00     0.181 HD
BRANCH   8  11
HETATM   11  N1  UNL     1      29.636   6.357 -49.181  1.00  0.00    -0.331 N 
ATOM     12  H12 UNL     1      28.634   6.519 -49.285  1.00  0.00     0.178 HD
ATOM     13  H11 UNL     1      29.910   5.930 -50.065  1.00  0.00     0.178 HD
ENDBRANCH   8  11
ENDBRANCH   6   7
ENDBRANCH   5   6
ENDBRANCH   3   5
ENDBRANCH   1   3
BRANCH   1  14
HETATM   14  N5  UNL     1      26.483   9.133 -43.827  1.00  0.00    -0.318 N 
ATOM     15  H5  UNL     1      25.697   9.207 -43.181  1.00  0.00     0.170 HD
BRANCH  14  16
HETATM   16  C4  UNL     1      26.618  10.056 -44.706  1.00  0.00     0.121 A 
HETATM   17  C5  UNL     1      27.569  11.042 -44.613  1.00  0.00     0.051 A 
HETATM   18  C6  UNL     1      27.665  12.007 -45.589  1.00  0.00     0.022 A 
HETATM   19  C7  UNL     1      26.784  11.939 -46.641  1.00  0.00     0.107 A 
HETATM   20  N6  UNL     1      25.890  10.953 -46.660  1.00  0.00    -0.310 N 
HETATM   21  N7  UNL     1      25.766  10.022 -45.758  1.00  0.00    -0.286 N 
ATOM     22  H6  UNL     1      25.246  10.923 -47.450  1.00  0.00     0.186 HD
ATOM     23  H7  UNL     1      25.055   9.295 -45.841  1.00  0.00     0.188 HD
ENDBRANCH  14  16
ENDBRANCH   1  14
TORSDOF 7
ENDMDL
MODEL 3
REMARK VINA RESULT: -6.338256884      2.869      4.519
REMARK  7 active torsions:
REMARK  status: ('A' for Active; 'I' for Inactive)
REMARK    1  A    between atoms: N1_1  and  N2_4 
REMARK    2  A    between atoms: N3_6  and  C1_8 
REMARK    3  A    between atoms: C1_8  and  C2_9 
REMARK    4  A    between atoms: C2_9  and  N4_10 
REMARK    5  A    between atoms: N4_10  and  C3_12 
REMARK    6  A    between atoms: C3_12  and  N5_14 
REMARK    7  A    between atoms: N5_14  and  C4_16 
ROOT
HETATM    1  C3  UNL     1      27.502   9.264 -45.565  1.00  0.00     0.173 C 
HETATM    2  S1  UNL     1      26.755   8.730 -44.223  1.00  0.00    -0.041 SA
ENDROOT
BRANCH   1   3
HETATM    3  N4  UNL     1      27.248  10.522 -46.137  1.00  0.00    -0.365 N 
ATOM      4  H4  UNL     1      26.952  10.534 -47.113  1.00  0.00     0.161 HD
BRANCH   3   5
HETATM    5  C2  UNL     1      27.366  11.799 -45.476  1.00  0.00     0.143 C 
BRANCH   5   6
HETATM    6  C1  UNL     1      28.798  11.990 -45.050  1.00  0.00     0.160 C 
BRANCH   6   7
HETATM    7  N3  UNL     1      28.772  12.414 -43.644  1.00  0.00    -0.321 N 
HETATM    8  N2  UNL     1      28.712  11.558 -42.765  1.00  0.00    -0.254 N 
ATOM      9  H2  UNL     1      27.928  10.995 -43.093  1.00  0.00     0.207 HD
ATOM     10  H3  UNL     1      28.804  13.404 -43.401  1.00  0.00     0.181 HD
BRANCH   8  11
HETATM   11  N1  UNL     1      29.016  10.958 -41.729  1.00  0.00    -0.331 N 
ATOM     12  H12 UNL     1      28.861  10.007 -42.063  1.00  0.00     0.178 HD
ATOM     13  H11 UNL     1      29.320  10.834 -40.764  1.00  0.00     0.178 HD
ENDBRANCH   8  11
ENDBRANCH   6   7
ENDBRANCH   5   6
ENDBRANCH   3   5
ENDBRANCH   1   3
BRANCH   1  14
HETATM   14  N5  UNL     1      28.439   8.392 -46.173  1.00  0.00    -0.318 N 
ATOM     15  H5  UNL     1      28.287   8.142 -47.150  1.00  0.00     0.170 HD
BRANCH  14  16
HETATM   16  C4  UNL     1      29.463   7.894 -45.585  1.00  0.00     0.121 A 
HETATM   17  C5  UNL     1      30.468   8.664 -45.056  1.00  0.00     0.051 A 
HETATM   18  C6  UNL     1      31.544   8.071 -44.436  1.00  0.00     0.022 A 
HETATM   19  C7  UNL     1      31.565   6.699 -44.372  1.00  0.00     0.107 A 
HETATM   20  N6  UNL     1      30.552   6.021 -44.909  1.00  0.00    -0.310 N 
HETATM   21  N7  UNL     1      29.518   6.543 -45.503  1.00  0.00    -0.286 N 
ATOM     22  H6  UNL     1      30.590   5.004 -44.850  1.00  0.00     0.186 HD
ATOM     23  H7  UNL     1      28.779   5.958 -45.891  1.00  0.00     0.188 HD
ENDBRANCH  14  16
ENDBRANCH   1  14
TORSDOF 7
ENDMDL
MODEL 4
REMARK VINA RESULT: -6.314993441      2.944      4.614
REMARK  7 active torsions:
REMARK  status: ('A' for Active; 'I' for Inactive)
REMARK    1  A    between atoms: N1_1  and  N2_4 
REMARK    2  A    between atoms: N3_6  and  C1_8 
REMARK    3  A    between atoms: C1_8  and  C2_9 
REMARK    4  A    between atoms: C2_9  and  N4_10 
REMARK    5  A    between atoms: N4_10  and  C3_12 
REMARK    6  A    between atoms: C3_12  and  N5_14 
REMARK    7  A    between atoms: N5_14  and  C4_16 
ROOT
HETATM    1  C3  UNL     1      27.534   9.642 -45.798  1.00  0.00     0.173 C 
HETATM    2  S1  UNL     1      26.508   9.377 -44.565  1.00  0.00    -0.041 SA
ENDROOT
BRANCH   1   3
HETATM    3  N4  UNL     1      27.659  10.885 -46.440  1.00  0.00    -0.365 N 
ATOM      4  H4  UNL     1      27.785  10.870 -47.453  1.00  0.00     0.161 HD
BRANCH   3   5
HETATM    5  C2  UNL     1      27.629  12.180 -45.805  1.00  0.00     0.143 C 
BRANCH   5   6
HETATM    6  C1  UNL     1      28.978  12.448 -45.193  1.00  0.00     0.160 C 
BRANCH   6   7
HETATM    7  N3  UNL     1      28.757  12.684 -43.760  1.00  0.00    -0.321 N 
HETATM    8  N2  UNL     1      28.739  11.723 -42.994  1.00  0.00    -0.254 N 
ATOM      9  H2  UNL     1      28.080  11.107 -43.469  1.00  0.00     0.207 HD
ATOM     10  H3  UNL     1      28.621  13.631 -43.406  1.00  0.00     0.181 HD
BRANCH   8  11
HETATM   11  N1  UNL     1      29.026  11.044 -42.004  1.00  0.00    -0.331 N 
ATOM     12  H12 UNL     1      28.836  10.124 -42.401  1.00  0.00     0.178 HD
ATOM     13  H11 UNL     1      29.331  10.843 -41.052  1.00  0.00     0.178 HD
ENDBRANCH   8  11
ENDBRANCH   6   7
ENDBRANCH   5   6
ENDBRANCH   3   5
ENDBRANCH   1   3
BRANCH   1  14
HETATM   14  N5  UNL     1      28.317   8.544 -46.233  1.00  0.00    -0.318 N 
ATOM     15  H5  UNL     1      27.981   8.013 -47.037  1.00  0.00     0.170 HD
BRANCH  14  16
HETATM   16  C4  UNL     1      29.416   8.168 -45.692  1.00  0.00     0.121 A 
HETATM   17  C5  UNL     1      30.067   7.013 -46.047  1.00  0.00     0.051 A 
HETATM   18  C6  UNL     1      31.245   6.662 -45.429  1.00  0.00     0.022 A 
HETATM   19  C7  UNL     1      31.731   7.506 -44.459  1.00  0.00     0.107 A 
HETATM   20  N6  UNL     1      31.042   8.607 -44.171  1.00  0.00    -0.310 N 
HETATM   21  N7  UNL     1      29.926   8.975 -44.731  1.00  0.00    -0.286 N 
ATOM     22  H6  UNL     1      31.422   9.218 -43.447  1.00  0.00     0.186 HD
ATOM     23  H7  UNL     1      29.454   9.837 -44.457  1.00  0.00     0.188 HD
ENDBRANCH  14  16
ENDBRANCH   1  14
TORSDOF 7
ENDMDL
MODEL 5
REMARK VINA RESULT: -6.224679602      4.274      6.027
REMARK  7 active torsions:
REMARK  status: ('A' for Active; 'I' for Inactive)
REMARK    1  A    between atoms: N1_1  and  N2_4 
REMARK    2  A    between atoms: N3_6  and  C1_8 
REMARK    3  A    between atoms: C1_8  and  C2_9 
REMARK    4  A    between atoms: C2_9  and  N4_10 
REMARK    5  A    between atoms: N4_10  and  C3_12 
REMARK    6  A    between atoms: C3_12  and  N5_14 
REMARK    7  A    between atoms: N5_14  and  C4_16 
ROOT
HETATM    1  C3  UNL     1      29.409   6.203 -43.941  1.00  0.00     0.173 C 
HETATM    2  S1  UNL     1      30.755   7.018 -43.529  1.00  0.00    -0.041 SA
ENDROOT
BRANCH   1   3
HETATM    3  N4  UNL     1      28.952   5.072 -43.244  1.00  0.00    -0.365 N 
ATOM      4  H4  UNL     1      29.570   4.690 -42.529  1.00  0.00     0.161 HD
BRANCH   3   5
HETATM    5  C2  UNL     1      27.692   4.398 -43.445  1.00  0.00     0.143 C 
BRANCH   5   6
HETATM    6  C1  UNL     1      27.960   2.935 -43.677  1.00  0.00     0.160 C 
BRANCH   6   7
HETATM    7  N3  UNL     1      26.869   2.193 -43.030  1.00  0.00    -0.321 N 
HETATM    8  N2  UNL     1      26.073   1.573 -43.732  1.00  0.00    -0.254 N 
ATOM      9  H2  UNL     1      25.809   2.290 -44.408  1.00  0.00     0.207 HD
ATOM     10  H3  UNL     1      26.774   2.193 -42.015  1.00  0.00     0.181 HD
BRANCH   8  11
HETATM   11  N1  UNL     1      25.395   0.618 -44.123  1.00  0.00    -0.331 N 
ATOM     12  H12 UNL     1      25.272   0.151 -43.225  1.00  0.00     0.178 HD
ATOM     13  H11 UNL     1      24.894   0.022 -44.781  1.00  0.00     0.178 HD
ENDBRANCH   8  11
ENDBRANCH   6   7
ENDBRANCH   5   6
ENDBRANCH   3   5
ENDBRANCH   1   3
BRANCH   1  14
HETATM   14  N5  UNL     1      28.690   6.671 -45.068  1.00  0.00    -0.318 N 
ATOM     15  H5  UNL     1      28.673   6.078 -45.898  1.00  0.00     0.170 HD
BRANCH  14  16
HETATM   16  C4  UNL     1      28.061   7.787 -45.123  1.00  0.00     0.121 A 
HETATM   17  C5  UNL     1      27.115   8.156 -44.199  1.00  0.00     0.051 A 
HETATM   18  C6  UNL     1      26.472   9.368 -44.311  1.00  0.00     0.022 A 
HETATM   19  C7  UNL     1      26.814  10.175 -45.369  1.00  0.00     0.107 A 
HETATM   20  N6  UNL     1      27.740   9.746 -46.224  1.00  0.00    -0.310 N 
HETATM   21  N7  UNL     1      28.371   8.609 -46.154  1.00  0.00    -0.286 N 
ATOM     22  H6  UNL     1      27.977  10.361 -47.002  1.00  0.00     0.186 HD
ATOM     23  H7  UNL     1      29.072   8.348 -46.848  1.00  0.00     0.188 HD
ENDBRANCH  14  16
ENDBRANCH   1  14
TORSDOF 7
ENDMDL
