MODEL 1
REMARK VINA RESULT: -7.001570211      0.000      0.000
REMARK  4 active torsions:
REMARK  status: ('A' for Active; 'I' for Inactive)
REMARK    1  A    between atoms: N1_1  and  C1_5 
REMARK    2  A    between atoms: C1_5  and  C2_6 
REMARK    3  A    between atoms: N2_7  and  C3_9 
REMARK    4  A    between atoms: C6_12  and  C7_13 
ROOT
HETATM    1  C3  UNL     1      27.276   9.445 -45.654  1.00  0.00     0.119 A 
HETATM    2  C4  UNL     1      26.927   8.765 -44.516  1.00  0.00     0.052 A 
HETATM    3  C5  UNL     1      27.756   7.741 -44.087  1.00  0.00     0.035 A 
HETATM    4  C6  UNL     1      28.907   7.366 -44.737  1.00  0.00     0.058 A 
HETATM    5  N3  UNL     1      29.187   8.084 -45.855  1.00  0.00    -0.298 N 
ATOM      6  H3  UNL     1      30.030   7.852 -46.381  1.00  0.00     0.187 HD
HETATM    7  N4  UNL     1      28.440   9.050 -46.290  1.00  0.00    -0.285 N 
ATOM      8  H4  UNL     1      28.722   9.540 -47.138  1.00  0.00     0.188 HD
ENDROOT
BRANCH   1   9
HETATM    9  N2  UNL     1      26.600  10.371 -46.108  1.00  0.00    -0.353 N 
HETATM   10  C2  UNL     1      26.505  11.700 -46.391  1.00  0.00     0.089 C 
ATOM     11  H2  UNL     1      25.717   9.955 -46.406  1.00  0.00     0.166 HD
BRANCH  10  12
HETATM   12  C1  UNL     1      27.659  12.594 -46.014  1.00  0.00     0.274 C 
BRANCH  12  13
HETATM   13  N1  UNL     1      27.791  12.684 -44.554  1.00  0.00    -0.075 N 
ATOM     14  H13 UNL     1      27.848  13.652 -44.239  1.00  0.00     0.274 HD
ATOM     15  H12 UNL     1      26.929  12.418 -44.079  1.00  0.00     0.274 HD
ATOM     16  H11 UNL     1      28.586  12.133 -44.229  1.00  0.00     0.274 HD
ENDBRANCH  12  13
ENDBRANCH  10  12
ENDBRANCH   1   9
BRANCH   4  17
HETATM   17  C7  UNL     1      29.784   6.290 -44.294  1.00  0.00    -0.008 A 
HETATM   18  C8  UNL     1      31.131   6.319 -44.616  1.00  0.00     0.014 A 
HETATM   19  C9  UNL     1      32.023   5.343 -44.236  1.00  0.00     0.001 A 
HETATM   20  C10 UNL     1      31.545   4.288 -43.500  1.00  0.00     0.000 A 
HETATM   21  C11 UNL     1      30.227   4.210 -43.156  1.00  0.00     0.001 A 
HETATM   22  C12 UNL     1      29.346   5.221 -43.559  1.00  0.00     0.014 A 
ENDBRANCH   4  17
TORSDOF 4
ENDMDL
MODEL 2
REMARK VINA RESULT: -6.966203667      0.066      1.184
REMARK  4 active torsions:
REMARK  status: ('A' for Active; 'I' for Inactive)
REMARK    1  A    between atoms: N1_1  and  C1_5 
REMARK    2  A    between atoms: C1_5  and  C2_6 
REMARK    3  A    between atoms: N2_7  and  C3_9 
REMARK    4  A    between atoms: C6_12  and  C7_13 
ROOT
HETATM    1  C3  UNL     1      27.302   9.436 -45.659  1.00  0.00     0.119 A 
HETATM    2  C4  UNL     1      26.975   8.740 -44.525  1.00  0.00     0.052 A 
HETATM    3  C5  UNL     1      27.828   7.727 -44.112  1.00  0.00     0.035 A 
HETATM    4  C6  UNL     1      28.981   7.381 -44.775  1.00  0.00     0.058 A 
HETATM    5  N3  UNL     1      29.237   8.115 -45.889  1.00  0.00    -0.298 N 
ATOM      6  H3  UNL     1      30.081   7.904 -46.423  1.00  0.00     0.187 HD
HETATM    7  N4  UNL     1      28.468   9.069 -46.308  1.00  0.00    -0.285 N 
ATOM      8  H4  UNL     1      28.733   9.573 -47.154  1.00  0.00     0.188 HD
ENDROOT
BRANCH   1   9
HETATM    9  N2  UNL     1      26.605  10.352 -46.100  1.00  0.00    -0.353 N 
HETATM   10  C2  UNL     1      26.483  11.682 -46.374  1.00  0.00     0.089 C 
ATOM     11  H2  UNL     1      25.725   9.923 -46.388  1.00  0.00     0.166 HD
BRANCH  10  12
HETATM   12  C1  UNL     1      27.627  12.593 -46.008  1.00  0.00     0.274 C 
BRANCH  12  13
HETATM   13  N1  UNL     1      27.771  12.685 -44.549  1.00  0.00    -0.075 N 
ATOM     14  H13 UNL     1      28.169  11.833 -44.154  1.00  0.00     0.274 HD
ATOM     15  H12 UNL     1      28.508  13.336 -44.283  1.00  0.00     0.274 HD
ATOM     16  H11 UNL     1      26.880  12.924 -44.113  1.00  0.00     0.274 HD
ENDBRANCH  12  13
ENDBRANCH  10  12
ENDBRANCH   1   9
BRANCH   4  17
HETATM   17  C7  UNL     1      29.882   6.319 -44.349  1.00  0.00    -0.008 A 
HETATM   18  C8  UNL     1      29.393   5.245 -43.623  1.00  0.00     0.014 A 
HETATM   19  C9  UNL     1      30.178   4.205 -43.184  1.00  0.00     0.001 A 
HETATM   20  C10 UNL     1      31.517   4.240 -43.485  1.00  0.00     0.000 A 
HETATM   21  C11 UNL     1      32.051   5.274 -44.197  1.00  0.00     0.001 A 
HETATM   22  C12 UNL     1      31.223   6.317 -44.628  1.00  0.00     0.014 A 
ENDBRANCH   4  17
TORSDOF 4
ENDMDL
MODEL 3
REMARK VINA RESULT: -6.807666065      0.869      1.149
REMARK  4 active torsions:
REMARK  status: ('A' for Active; 'I' for Inactive)
REMARK    1  A    between atoms: N1_1  and  C1_5 
REMARK    2  A    between atoms: C1_5  and  C2_6 
REMARK    3  A    between atoms: N2_7  and  C3_9 
REMARK    4  A    between atoms: C6_12  and  C7_13 
ROOT
HETATM    1  C3  UNL     1      27.070   9.649 -45.595  1.00  0.00     0.119 A 
HETATM    2  C4  UNL     1      26.462   9.095 -44.498  1.00  0.00     0.052 A 
HETATM    3  C5  UNL     1      26.962   7.897 -44.010  1.00  0.00     0.035 A 
HETATM    4  C6  UNL     1      28.030   7.233 -44.563  1.00  0.00     0.058 A 
HETATM    5  N3  UNL     1      28.579   7.842 -45.645  1.00  0.00    -0.298 N 
ATOM      6  H3  UNL     1      29.377   7.396 -46.099  1.00  0.00     0.187 HD
HETATM    7  N4  UNL     1      28.144   8.961 -46.133  1.00  0.00    -0.285 N 
ATOM      8  H4  UNL     1      28.614   9.353 -46.949  1.00  0.00     0.188 HD
ENDROOT
BRANCH   1   9
HETATM    9  N2  UNL     1      26.695  10.710 -46.097  1.00  0.00    -0.353 N 
HETATM   10  C2  UNL     1      26.899  12.049 -46.254  1.00  0.00     0.089 C 
ATOM     11  H2  UNL     1      25.856  10.488 -46.634  1.00  0.00     0.166 HD
BRANCH  10  12
HETATM   12  C1  UNL     1      28.056  12.684 -45.527  1.00  0.00     0.274 C 
BRANCH  12  13
HETATM   13  N1  UNL     1      27.822  12.685 -44.077  1.00  0.00    -0.075 N 
ATOM     14  H13 UNL     1      28.614  13.074 -43.567  1.00  0.00     0.274 HD
ATOM     15  H12 UNL     1      27.115  13.369 -43.809  1.00  0.00     0.274 HD
ATOM     16  H11 UNL     1      27.584  11.748 -43.750  1.00  0.00     0.274 HD
ENDBRANCH  12  13
ENDBRANCH  10  12
ENDBRANCH   1   9
BRANCH   4  17
HETATM   17  C7  UNL     1      28.562   5.975 -44.057  1.00  0.00    -0.008 A 
HETATM   18  C8  UNL     1      29.932   5.785 -43.974  1.00  0.00     0.014 A 
HETATM   19  C9  UNL     1      30.512   4.628 -43.509  1.00  0.00     0.001 A 
HETATM   20  C10 UNL     1      29.682   3.611 -43.108  1.00  0.00     0.000 A 
HETATM   21  C11 UNL     1      28.325   3.744 -43.169  1.00  0.00     0.001 A 
HETATM   22  C12 UNL     1      27.768   4.936 -43.648  1.00  0.00     0.014 A 
ENDBRANCH   4  17
TORSDOF 4
ENDMDL
MODEL 4
REMARK VINA RESULT: -6.722476520      3.553      6.916
REMARK  4 active torsions:
REMARK  status: ('A' for Active; 'I' for Inactive)
REMARK    1  A    between atoms: N1_1  and  C1_5 
REMARK    2  A    between atoms: C1_5  and  C2_6 
REMARK    3  A    between atoms: N2_7  and  C3_9 
REMARK    4  A    between atoms: C6_12  and  C7_13 
ROOT
HETATM    1  C3  UNL     1      27.830   4.086 -43.419  1.00  0.00     0.119 A 
HETATM    2  C4  UNL     1      28.795   4.596 -44.249  1.00  0.00     0.052 A 
HETATM    3  C5  UNL     1      28.692   5.925 -44.630  1.00  0.00     0.035 A 
HETATM    4  C6  UNL     1      27.678   6.760 -44.224  1.00  0.00     0.058 A 
HETATM    5  N3  UNL     1      26.761   6.184 -43.404  1.00  0.00    -0.298 N 
ATOM      6  H3  UNL     1      25.985   6.755 -43.070  1.00  0.00     0.187 HD
HETATM    7  N4  UNL     1      26.821   4.946 -43.024  1.00  0.00    -0.285 N 
ATOM      8  H4  UNL     1      26.092   4.591 -42.406  1.00  0.00     0.188 HD
ENDROOT
BRANCH   1   9
HETATM    9  N2  UNL     1      27.842   2.917 -43.029  1.00  0.00    -0.353 N 
HETATM   10  C2  UNL     1      27.459   1.626 -43.239  1.00  0.00     0.089 C 
ATOM     11  H2  UNL     1      28.377   2.914 -42.161  1.00  0.00     0.166 HD
BRANCH  10  12
HETATM   12  C1  UNL     1      26.600   1.323 -44.440  1.00  0.00     0.274 C 
BRANCH  12  13
HETATM   13  N1  UNL     1      25.342   0.685 -44.033  1.00  0.00    -0.075 N 
ATOM     14  H13 UNL     1      25.247   0.651 -43.018  1.00  0.00     0.274 HD
ATOM     15  H12 UNL     1      24.535   1.272 -44.243  1.00  0.00     0.274 HD
ATOM     16  H11 UNL     1      25.254  -0.241 -44.452  1.00  0.00     0.274 HD
ENDBRANCH  12  13
ENDBRANCH  10  12
ENDBRANCH   1   9
BRANCH   4  17
HETATM   17  C7  UNL     1      27.561   8.157 -44.619  1.00  0.00    -0.008 A 
HETATM   18  C8  UNL     1      28.463   8.700 -45.519  1.00  0.00     0.014 A 
HETATM   19  C9  UNL     1      28.422  10.008 -45.941  1.00  0.00     0.001 A 
HETATM   20  C10 UNL     1      27.430  10.813 -45.438  1.00  0.00     0.000 A 
HETATM   21  C11 UNL     1      26.515  10.330 -44.548  1.00  0.00     0.001 A 
HETATM   22  C12 UNL     1      26.587   8.992 -44.140  1.00  0.00     0.014 A 
ENDBRANCH   4  17
TORSDOF 4
ENDMDL
MODEL 5
REMARK VINA RESULT: -6.696263989      3.548      6.993
REMARK  4 active torsions:
REMARK  status: ('A' for Active; 'I' for Inactive)
REMARK    1  A    between atoms: N1_1  and  C1_5 
REMARK    2  A    between atoms: C1_5  and  C2_6 
REMARK    3  A    between atoms: N2_7  and  C3_9 
REMARK    4  A    between atoms: C6_12  and  C7_13 
ROOT
HETATM    1  C3  UNL     1      27.787   4.124 -43.402  1.00  0.00     0.119 A 
HETATM    2  C4  UNL     1      28.769   4.597 -44.233  1.00  0.00     0.052 A 
HETATM    3  C5  UNL     1      28.699   5.921 -44.640  1.00  0.00     0.035 A 
HETATM    4  C6  UNL     1      27.701   6.785 -44.260  1.00  0.00     0.058 A 
HETATM    5  N3  UNL     1      26.765   6.245 -43.438  1.00  0.00    -0.298 N 
ATOM      6  H3  UNL     1      25.998   6.840 -43.122  1.00  0.00     0.187 HD
HETATM    7  N4  UNL     1      26.793   5.014 -43.034  1.00  0.00    -0.285 N 
ATOM      8  H4  UNL     1      26.051   4.687 -42.416  1.00  0.00     0.188 HD
ENDROOT
BRANCH   1   9
HETATM    9  N2  UNL     1      27.768   2.963 -42.990  1.00  0.00    -0.353 N 
HETATM   10  C2  UNL     1      27.386   1.671 -43.194  1.00  0.00     0.089 C 
ATOM     11  H2  UNL     1      28.260   2.973 -42.096  1.00  0.00     0.166 HD
BRANCH  10  12
HETATM   12  C1  UNL     1      26.587   1.351 -44.432  1.00  0.00     0.274 C 
BRANCH  12  13
HETATM   13  N1  UNL     1      25.325   0.688 -44.079  1.00  0.00    -0.075 N 
ATOM     14  H13 UNL     1      25.225  -0.210 -44.553  1.00  0.00     0.274 HD
ATOM     15  H12 UNL     1      25.330   0.353 -43.116  1.00  0.00     0.274 HD
ATOM     16  H11 UNL     1      24.532   1.302 -44.261  1.00  0.00     0.274 HD
ENDBRANCH  12  13
ENDBRANCH  10  12
ENDBRANCH   1   9
BRANCH   4  17
HETATM   17  C7  UNL     1      27.619   8.177 -44.682  1.00  0.00    -0.008 A 
HETATM   18  C8  UNL     1      26.606   8.989 -44.198  1.00  0.00     0.014 A 
HETATM   19  C9  UNL     1      26.460  10.311 -44.548  1.00  0.00     0.001 A 
HETATM   20  C10 UNL     1      27.370  10.847 -45.425  1.00  0.00     0.000 A 
HETATM   21  C11 UNL     1      28.387  10.091 -45.933  1.00  0.00     0.001 A 
HETATM   22  C12 UNL     1      28.506   8.748 -45.555  1.00  0.00     0.014 A 
ENDBRANCH   4  17
TORSDOF 4
ENDMDL
