MODEL 1
REMARK VINA RESULT: -5.799904885      0.000      0.000
REMARK  7 active torsions:
REMARK  status: ('A' for Active; 'I' for Inactive)
REMARK    1  A    between atoms: C2_2  and  C3_3 
REMARK    2  A    between atoms: C3_3  and  N1_4 
REMARK    3  A    between atoms: N1_4  and  C4_6 
REMARK    4  A    between atoms: C4_6  and  N2_8 
REMARK    5  A    between atoms: N2_8  and  C5_10 
REMARK    6  A    between atoms: C7_14  and  N4_15 
REMARK    7  A    between atoms: N4_15  and  O1_17 
ROOT
HETATM    1  C5  UNL     1      25.536   0.191 -44.866  1.00  0.00     0.232 A 
HETATM    2  N3  UNL     1      24.432  -0.582 -44.923  1.00  0.00    -0.328 N 
ATOM      3  H3  UNL     1      23.629  -0.502 -44.300  1.00  0.00     0.169 HD
HETATM    4  C6  UNL     1      24.550  -1.473 -45.923  1.00  0.00     0.149 A 
HETATM    5  C7  UNL     1      25.780  -1.221 -46.489  1.00  0.00     0.186 A 
HETATM    6  O2  UNL     1      26.307  -0.238 -45.829  1.00  0.00    -0.259 OA
ENDROOT
BRANCH   1   7
HETATM    7  N2  UNL     1      25.764   1.161 -44.018  1.00  0.00    -0.299 N 
ATOM      8  H2  UNL     1      24.993   1.688 -43.608  1.00  0.00     0.171 HD
BRANCH   7   9
HETATM    9  C4  UNL     1      27.110   1.464 -43.681  1.00  0.00     0.174 C 
HETATM   10  S1  UNL     1      27.593   3.027 -43.471  1.00  0.00    -0.041 SA
BRANCH   9  11
HETATM   11  N1  UNL     1      28.073   0.428 -43.518  1.00  0.00    -0.364 N 
ATOM     12  H1  UNL     1      28.893   0.404 -44.125  1.00  0.00     0.162 HD
BRANCH  11  13
HETATM   13  C3  UNL     1      27.910  -0.595 -42.505  1.00  0.00     0.148 C 
BRANCH  13  14
HETATM   14  C2  UNL     1      28.673  -1.805 -42.904  1.00  0.00    -0.018 C 
HETATM   15  C1  UNL     1      28.163  -2.623 -43.807  1.00  0.00     0.008 C 
ENDBRANCH  13  14
ENDBRANCH  11  13
ENDBRANCH   9  11
ENDBRANCH   7   9
ENDBRANCH   1   7
BRANCH   5  16
HETATM   16  N4  UNL     1      26.389  -1.904 -47.606  1.00  0.00    -0.246 N 
ATOM     17  H4  UNL     1      25.936  -2.084 -48.502  1.00  0.00     0.196 HD
BRANCH  16  18
HETATM   18  O1  UNL     1      27.638  -2.265 -47.289  1.00  0.00    -0.288 OA
ATOM     19  H1  UNL     1      27.862  -3.071 -47.737  1.00  0.00     0.244 HD
ENDBRANCH  16  18
ENDBRANCH   5  16
TORSDOF 7
ENDMDL
MODEL 2
REMARK VINA RESULT: -5.751350729      8.117      9.586
REMARK  7 active torsions:
REMARK  status: ('A' for Active; 'I' for Inactive)
REMARK    1  A    between atoms: C2_2  and  C3_3 
REMARK    2  A    between atoms: C3_3  and  N1_4 
REMARK    3  A    between atoms: N1_4  and  C4_6 
REMARK    4  A    between atoms: C4_6  and  N2_8 
REMARK    5  A    between atoms: N2_8  and  C5_10 
REMARK    6  A    between atoms: C7_14  and  N4_15 
REMARK    7  A    between atoms: N4_15  and  O1_17 
ROOT
HETATM    1  C5  UNL     1      26.793   8.658 -44.096  1.00  0.00     0.232 A 
HETATM    2  N3  UNL     1      26.763   9.753 -43.309  1.00  0.00    -0.328 N 
ATOM      3  H3  UNL     1      26.818   9.744 -42.291  1.00  0.00     0.169 HD
HETATM    4  C6  UNL     1      26.650  10.857 -44.067  1.00  0.00     0.149 A 
HETATM    5  C7  UNL     1      26.610  10.402 -45.367  1.00  0.00     0.186 A 
HETATM    6  O2  UNL     1      26.698   9.109 -45.318  1.00  0.00    -0.259 OA
ENDROOT
BRANCH   1   7
HETATM    7  N2  UNL     1      26.896   7.416 -43.698  1.00  0.00    -0.299 N 
ATOM      8  H2  UNL     1      26.227   7.023 -43.036  1.00  0.00     0.171 HD
BRANCH   7   9
HETATM    9  C4  UNL     1      27.960   6.627 -44.210  1.00  0.00     0.174 C 
HETATM   10  S1  UNL     1      28.129   5.049 -43.758  1.00  0.00    -0.041 SA
BRANCH   9  11
HETATM   11  N1  UNL     1      28.904   7.177 -45.122  1.00  0.00    -0.364 N 
ATOM     12  H1  UNL     1      28.908   8.182 -45.295  1.00  0.00     0.162 HD
BRANCH  11  13
HETATM   13  C3  UNL     1      29.861   6.334 -45.810  1.00  0.00     0.148 C 
BRANCH  13  14
HETATM   14  C2  UNL     1      31.233   6.688 -45.365  1.00  0.00    -0.018 C 
HETATM   15  C1  UNL     1      31.822   5.953 -44.439  1.00  0.00     0.008 C 
ENDBRANCH  13  14
ENDBRANCH  11  13
ENDBRANCH   9  11
ENDBRANCH   7   9
ENDBRANCH   1   7
BRANCH   5  16
HETATM   16  N4  UNL     1      26.495  11.191 -46.570  1.00  0.00    -0.246 N 
ATOM     17  H4  UNL     1      25.629  11.594 -46.927  1.00  0.00     0.196 HD
BRANCH  16  18
HETATM   18  O1  UNL     1      27.696  11.312 -47.147  1.00  0.00    -0.288 OA
ATOM     19  H1  UNL     1      27.675  10.927 -48.015  1.00  0.00     0.244 HD
ENDBRANCH  16  18
ENDBRANCH   5  16
TORSDOF 7
ENDMDL
MODEL 3
REMARK VINA RESULT: -5.723335743      8.872     10.519
REMARK  7 active torsions:
REMARK  status: ('A' for Active; 'I' for Inactive)
REMARK    1  A    between atoms: C2_2  and  C3_3 
REMARK    2  A    between atoms: C3_3  and  N1_4 
REMARK    3  A    between atoms: N1_4  and  C4_6 
REMARK    4  A    between atoms: C4_6  and  N2_8 
REMARK    5  A    between atoms: N2_8  and  C5_10 
REMARK    6  A    between atoms: C7_14  and  N4_15 
REMARK    7  A    between atoms: N4_15  and  O1_17 
ROOT
HETATM    1  C5  UNL     1      28.385   9.708 -45.844  1.00  0.00     0.232 A 
HETATM    2  N3  UNL     1      27.894  10.751 -46.544  1.00  0.00    -0.328 N 
ATOM      3  H3  UNL     1      27.520  10.696 -47.491  1.00  0.00     0.169 HD
HETATM    4  C6  UNL     1      27.971  11.873 -45.807  1.00  0.00     0.149 A 
HETATM    5  C7  UNL     1      28.535  11.483 -44.612  1.00  0.00     0.186 A 
HETATM    6  O2  UNL     1      28.753  10.207 -44.694  1.00  0.00    -0.259 OA
ENDROOT
BRANCH   1   7
HETATM    7  N2  UNL     1      28.467   8.467 -46.249  1.00  0.00    -0.299 N 
ATOM      8  H2  UNL     1      28.083   8.187 -47.152  1.00  0.00     0.171 HD
BRANCH   7   9
HETATM    9  C4  UNL     1      29.101   7.518 -45.404  1.00  0.00     0.174 C 
HETATM   10  S1  UNL     1      28.209   6.541 -44.419  1.00  0.00    -0.041 SA
BRANCH   9  11
HETATM   11  N1  UNL     1      30.519   7.388 -45.386  1.00  0.00    -0.364 N 
ATOM     12  H1  UNL     1      31.048   7.554 -46.242  1.00  0.00     0.162 HD
BRANCH  11  13
HETATM   13  C3  UNL     1      31.223   7.022 -44.174  1.00  0.00     0.148 C 
BRANCH  13  14
HETATM   14  C2  UNL     1      31.866   5.697 -44.364  1.00  0.00    -0.018 C 
HETATM   15  C1  UNL     1      31.498   4.684 -43.600  1.00  0.00     0.008 C 
ENDBRANCH  13  14
ENDBRANCH  11  13
ENDBRANCH   9  11
ENDBRANCH   7   9
ENDBRANCH   1   7
BRANCH   5  16
HETATM   16  N4  UNL     1      28.833  12.314 -43.469  1.00  0.00    -0.246 N 
ATOM     17  H4  UNL     1      28.918  13.329 -43.488  1.00  0.00     0.196 HD
BRANCH  16  18
HETATM   18  O1  UNL     1      28.981  11.549 -42.381  1.00  0.00    -0.288 OA
ATOM     19  H1  UNL     1      29.856  11.658 -42.030  1.00  0.00     0.244 HD
ENDBRANCH  16  18
ENDBRANCH   5  16
TORSDOF 7
ENDMDL
MODEL 4
REMARK VINA RESULT: -5.723235181      7.762      9.462
REMARK  7 active torsions:
REMARK  status: ('A' for Active; 'I' for Inactive)
REMARK    1  A    between atoms: C2_2  and  C3_3 
REMARK    2  A    between atoms: C3_3  and  N1_4 
REMARK    3  A    between atoms: N1_4  and  C4_6 
REMARK    4  A    between atoms: C4_6  and  N2_8 
REMARK    5  A    between atoms: N2_8  and  C5_10 
REMARK    6  A    between atoms: C7_14  and  N4_15 
REMARK    7  A    between atoms: N4_15  and  O1_17 
ROOT
HETATM    1  C5  UNL     1      26.843   8.292 -43.788  1.00  0.00     0.232 A 
HETATM    2  N3  UNL     1      26.897   9.400 -43.021  1.00  0.00    -0.328 N 
ATOM      3  H3  UNL     1      26.992   9.405 -42.005  1.00  0.00     0.169 HD
HETATM    4  C6  UNL     1      26.808  10.496 -43.794  1.00  0.00     0.149 A 
HETATM    5  C7  UNL     1      26.694  10.022 -45.083  1.00  0.00     0.186 A 
HETATM    6  O2  UNL     1      26.722   8.727 -45.013  1.00  0.00    -0.259 OA
ENDROOT
BRANCH   1   7
HETATM    7  N2  UNL     1      26.902   7.053 -43.371  1.00  0.00    -0.299 N 
ATOM      8  H2  UNL     1      26.237   6.703 -42.681  1.00  0.00     0.171 HD
BRANCH   7   9
HETATM    9  C4  UNL     1      27.912   6.207 -43.901  1.00  0.00     0.174 C 
HETATM   10  S1  UNL     1      27.949   4.603 -43.522  1.00  0.00    -0.041 SA
BRANCH   9  11
HETATM   11  N1  UNL     1      28.914   6.723 -44.771  1.00  0.00    -0.364 N 
ATOM     12  H1  UNL     1      28.720   7.561 -45.320  1.00  0.00     0.162 HD
BRANCH  11  13
HETATM   13  C3  UNL     1      30.207   6.079 -44.892  1.00  0.00     0.148 C 
BRANCH  13  14
HETATM   14  C2  UNL     1      31.190   7.054 -45.428  1.00  0.00    -0.018 C 
HETATM   15  C1  UNL     1      31.573   8.068 -44.674  1.00  0.00     0.008 C 
ENDBRANCH  13  14
ENDBRANCH  11  13
ENDBRANCH   9  11
ENDBRANCH   7   9
ENDBRANCH   1   7
BRANCH   5  16
HETATM   16  N4  UNL     1      26.569  10.795 -46.296  1.00  0.00    -0.246 N 
ATOM     17  H4  UNL     1      27.303  11.378 -46.697  1.00  0.00     0.196 HD
BRANCH  16  18
HETATM   18  O1  UNL     1      25.346  10.631 -46.812  1.00  0.00    -0.288 OA
ATOM     19  H1  UNL     1      25.389  10.044 -47.557  1.00  0.00     0.244 HD
ENDBRANCH  16  18
ENDBRANCH   5  16
TORSDOF 7
ENDMDL
MODEL 5
REMARK VINA RESULT: -5.722383896      2.993      4.059
REMARK  7 active torsions:
REMARK  status: ('A' for Active; 'I' for Inactive)
REMARK    1  A    between atoms: C2_2  and  C3_3 
REMARK    2  A    between atoms: C3_3  and  N1_4 
REMARK    3  A    between atoms: N1_4  and  C4_6 
REMARK    4  A    between atoms: C4_6  and  N2_8 
REMARK    5  A    between atoms: N2_8  and  C5_10 
REMARK    6  A    between atoms: C7_14  and  N4_15 
REMARK    7  A    between atoms: N4_15  and  O1_17 
ROOT
HETATM    1  C5  UNL     1      27.082   1.561 -43.525  1.00  0.00     0.232 A 
HETATM    2  N3  UNL     1      27.242   0.435 -42.800  1.00  0.00    -0.328 N 
ATOM      3  H3  UNL     1      27.216   0.386 -41.782  1.00  0.00     0.169 HD
HETATM    4  C6  UNL     1      27.441  -0.612 -43.620  1.00  0.00     0.149 A 
HETATM    5  C7  UNL     1      27.399  -0.088 -44.893  1.00  0.00     0.186 A 
HETATM    6  O2  UNL     1      27.185   1.186 -44.772  1.00  0.00    -0.259 OA
ENDROOT
BRANCH   1   7
HETATM    7  N2  UNL     1      26.869   2.764 -43.058  1.00  0.00    -0.299 N 
ATOM      8  H2  UNL     1      26.008   2.985 -42.556  1.00  0.00     0.171 HD
BRANCH   7   9
HETATM    9  C4  UNL     1      27.862   3.758 -43.266  1.00  0.00     0.174 C 
HETATM   10  S1  UNL     1      27.447   5.349 -43.385  1.00  0.00    -0.041 SA
BRANCH   9  11
HETATM   11  N1  UNL     1      29.237   3.404 -43.378  1.00  0.00    -0.364 N 
ATOM     12  H1  UNL     1      29.508   2.627 -43.980  1.00  0.00     0.162 HD
BRANCH  11  13
HETATM   13  C3  UNL     1      30.259   4.128 -42.649  1.00  0.00     0.148 C 
BRANCH  13  14
HETATM   14  C2  UNL     1      31.400   4.409 -43.558  1.00  0.00    -0.018 C 
HETATM   15  C1  UNL     1      31.436   5.553 -44.217  1.00  0.00     0.008 C 
ENDBRANCH  13  14
ENDBRANCH  11  13
ENDBRANCH   9  11
ENDBRANCH   7   9
ENDBRANCH   1   7
BRANCH   5  16
HETATM   16  N4  UNL     1      27.556  -0.798 -46.140  1.00  0.00    -0.246 N 
ATOM     17  H4  UNL     1      26.860  -0.838 -46.884  1.00  0.00     0.196 HD
BRANCH  16  18
HETATM   18  O1  UNL     1      28.753  -1.394 -46.173  1.00  0.00    -0.288 OA
ATOM     19  H1  UNL     1      28.646  -2.333 -46.083  1.00  0.00     0.244 HD
ENDBRANCH  16  18
ENDBRANCH   5  16
TORSDOF 7
ENDMDL
