MODEL 1
REMARK VINA RESULT: -7.298827914      0.000      0.000
REMARK  11 active torsions:
REMARK  status: ('A' for Active; 'I' for Inactive)
REMARK    1  A    between atoms: C2_2  and  C3_4 
REMARK    2  A    between atoms: C3_4  and  C4_5 
REMARK    3  A    between atoms: C4_5  and  N1_6 
REMARK    4  A    between atoms: N1_6  and  C5_8 
REMARK    5  A    between atoms: C5_8  and  N4_21 
REMARK    6  A    between atoms: C6_9  and  C7_10 
REMARK    7  A    between atoms: C7_10  and  C8_11 
REMARK    8  A    between atoms: C7_10  and  C12_16 
REMARK    9  A    between atoms: C8_11  and  N2_12 
REMARK   10  A    between atoms: C12_16  and  N3_17 
REMARK       I    between atoms: N4_21  and  C16_23 
REMARK   11  A    between atoms: C16_23  and  C17_25 
ROOT
HETATM    1  C5  UNL     1      26.914  -4.160  43.386  1.00  0.00     0.103 C 
HETATM    2  C6  UNL     1      27.271  -4.149  42.065  1.00  0.00     0.030 C 
ENDROOT
BRANCH   1   3
HETATM    3  N1  UNL     1      26.566  -5.264  44.038  1.00  0.00    -0.356 N 
ATOM      4  H1  UNL     1      25.558  -5.417  44.014  1.00  0.00     0.166 HD
BRANCH   3   5
HETATM    5  C4  UNL     1      27.218  -6.252  44.738  1.00  0.00     0.063 C 
BRANCH   5   6
HETATM    6  C3  UNL     1      28.437  -5.846  45.513  1.00  0.00     0.060 C 
BRANCH   6   7
HETATM    7  C2  UNL     1      29.198  -7.004  46.109  1.00  0.00     0.059 C 
HETATM    8  C1  UNL     1      29.890  -6.655  47.385  1.00  0.00     0.022 C 
HETATM    9  S1  UNL     1      28.042  -8.373  46.377  1.00  0.00    -0.092 SA
ENDBRANCH   6   7
ENDBRANCH   5   6
ENDBRANCH   3   5
ENDBRANCH   1   3
BRANCH   1  10
HETATM   10  N4  UNL     1      26.836  -2.867  43.924  1.00  0.00    -0.312 N 
HETATM   11  C16 UNL     1      27.219  -2.117  45.021  1.00  0.00     0.254 C 
HETATM   12  O1  UNL     1      27.825  -2.459  46.053  1.00  0.00    -0.271 OA
ATOM     13  H4  UNL     1      26.315  -2.271  43.282  1.00  0.00     0.170 HD
BRANCH  11  14
HETATM   14  C17 UNL     1      26.822  -0.641  44.955  1.00  0.00     0.282 C 
HETATM   15  N5  UNL     1      25.321  -0.589  44.953  1.00  0.00    -0.061 N 
HETATM   16  C18 UNL     1      25.338   0.575  45.816  1.00  0.00     0.240 C 
ATOM     17  H52 UNL     1      24.818  -0.553  44.066  1.00  0.00     0.278 HD
ATOM     18  H51 UNL     1      24.788  -1.414  45.229  1.00  0.00     0.278 HD
HETATM   19  C19 UNL     1      26.699   0.011  46.340  1.00  0.00     0.047 C 
HETATM   20  C20 UNL     1      27.580   1.180  46.618  1.00  0.00     0.014 C 
ENDBRANCH  11  14
ENDBRANCH   1  10
BRANCH   2  21
HETATM   21  C7  UNL     1      27.328  -5.286  41.172  1.00  0.00     0.064 C 
BRANCH  21  22
HETATM   22  C8  UNL     1      26.941  -4.838  39.743  1.00  0.00     0.246 C 
BRANCH  22  23
HETATM   23  N2  UNL     1      26.505  -5.822  38.831  1.00  0.00    -0.078 N 
HETATM   24  C9  UNL     1      25.738  -6.914  39.343  1.00  0.00     0.271 C 
HETATM   25  C10 UNL     1      27.486  -6.234  37.841  1.00  0.00     0.271 C 
HETATM   26  C11 UNL     1      25.507  -5.064  37.995  1.00  0.00     0.271 C 
ENDBRANCH  22  23
ENDBRANCH  21  22
BRANCH  21  27
HETATM   27  C12 UNL     1      28.702  -5.871  41.104  1.00  0.00     0.246 C 
BRANCH  27  28
HETATM   28  N3  UNL     1      29.044  -7.174  41.442  1.00  0.00    -0.078 N 
HETATM   29  C13 UNL     1      29.865  -7.670  40.294  1.00  0.00     0.271 C 
HETATM   30  C14 UNL     1      30.138  -7.119  42.501  1.00  0.00     0.271 C 
HETATM   31  C15 UNL     1      28.199  -8.236  41.743  1.00  0.00     0.271 C 
ENDBRANCH  27  28
ENDBRANCH  21  27
ENDBRANCH   2  21
TORSDOF 11
ENDMDL
MODEL 2
REMARK VINA RESULT: -7.089156960      0.792      1.123
REMARK  11 active torsions:
REMARK  status: ('A' for Active; 'I' for Inactive)
REMARK    1  A    between atoms: C2_2  and  C3_4 
REMARK    2  A    between atoms: C3_4  and  C4_5 
REMARK    3  A    between atoms: C4_5  and  N1_6 
REMARK    4  A    between atoms: N1_6  and  C5_8 
REMARK    5  A    between atoms: C5_8  and  N4_21 
REMARK    6  A    between atoms: C6_9  and  C7_10 
REMARK    7  A    between atoms: C7_10  and  C8_11 
REMARK    8  A    between atoms: C7_10  and  C12_16 
REMARK    9  A    between atoms: C8_11  and  N2_12 
REMARK   10  A    between atoms: C12_16  and  N3_17 
REMARK       I    between atoms: N4_21  and  C16_23 
REMARK   11  A    between atoms: C16_23  and  C17_25 
ROOT
HETATM    1  C5  UNL     1      27.107  -4.191  43.388  1.00  0.00     0.103 C 
HETATM    2  C6  UNL     1      27.419  -4.177  42.056  1.00  0.00     0.030 C 
ENDROOT
BRANCH   1   3
HETATM    3  N1  UNL     1      26.865  -5.307  44.069  1.00  0.00    -0.356 N 
ATOM      4  H1  UNL     1      25.955  -5.704  43.837  1.00  0.00     0.166 HD
BRANCH   3   5
HETATM    5  C4  UNL     1      27.531  -6.063  45.006  1.00  0.00     0.063 C 
BRANCH   5   6
HETATM    6  C3  UNL     1      28.870  -5.559  45.459  1.00  0.00     0.060 C 
BRANCH   6   7
HETATM    7  C2  UNL     1      29.481  -6.367  46.577  1.00  0.00     0.059 C 
HETATM    8  C1  UNL     1      28.834  -7.700  46.757  1.00  0.00     0.022 C 
HETATM    9  S1  UNL     1      31.249  -6.571  46.236  1.00  0.00    -0.092 SA
ENDBRANCH   6   7
ENDBRANCH   5   6
ENDBRANCH   3   5
ENDBRANCH   1   3
BRANCH   1  10
HETATM   10  N4  UNL     1      26.946  -2.899  43.909  1.00  0.00    -0.312 N 
HETATM   11  C16 UNL     1      27.233  -2.127  45.019  1.00  0.00     0.254 C 
HETATM   12  O1  UNL     1      27.790  -2.437  46.089  1.00  0.00    -0.271 OA
ATOM     13  H4  UNL     1      26.440  -2.329  43.231  1.00  0.00     0.170 HD
BRANCH  11  14
HETATM   14  C17 UNL     1      26.783  -0.668  44.916  1.00  0.00     0.282 C 
HETATM   15  N5  UNL     1      25.285  -0.662  45.024  1.00  0.00    -0.061 N 
HETATM   16  C18 UNL     1      25.326   0.543  45.829  1.00  0.00     0.240 C 
ATOM     17  H52 UNL     1      24.718  -0.683  44.176  1.00  0.00     0.278 HD
ATOM     18  H51 UNL     1      24.801  -1.488  45.376  1.00  0.00     0.278 HD
HETATM   19  C19 UNL     1      26.740   0.045  46.275  1.00  0.00     0.047 C 
HETATM   20  C20 UNL     1      27.600   1.253  46.433  1.00  0.00     0.014 C 
ENDBRANCH  11  14
ENDBRANCH   1  10
BRANCH   2  21
HETATM   21  C7  UNL     1      27.536  -5.322  41.179  1.00  0.00     0.064 C 
BRANCH  21  22
HETATM   22  C8  UNL     1      27.189  -4.900  39.733  1.00  0.00     0.246 C 
BRANCH  22  23
HETATM   23  N2  UNL     1      26.606  -5.859  38.879  1.00  0.00    -0.078 N 
HETATM   24  C9  UNL     1      25.641  -6.753  39.439  1.00  0.00     0.271 C 
HETATM   25  C10 UNL     1      27.521  -6.518  37.962  1.00  0.00     0.271 C 
HETATM   26  C11 UNL     1      25.783  -5.004  37.950  1.00  0.00     0.271 C 
ENDBRANCH  22  23
ENDBRANCH  21  22
BRANCH  21  27
HETATM   27  C12 UNL     1      28.925  -5.874  41.167  1.00  0.00     0.246 C 
BRANCH  27  28
HETATM   28  N3  UNL     1      29.294  -7.144  41.591  1.00  0.00    -0.078 N 
HETATM   29  C13 UNL     1      28.003  -7.870  41.807  1.00  0.00     0.271 C 
HETATM   30  C14 UNL     1      29.796  -7.922  40.382  1.00  0.00     0.271 C 
HETATM   31  C15 UNL     1      30.072  -7.494  42.689  1.00  0.00     0.271 C 
ENDBRANCH  27  28
ENDBRANCH  21  27
ENDBRANCH   2  21
TORSDOF 11
ENDMDL
MODEL 3
REMARK VINA RESULT: -7.033524074      2.302      4.972
REMARK  11 active torsions:
REMARK  status: ('A' for Active; 'I' for Inactive)
REMARK    1  A    between atoms: C2_2  and  C3_4 
REMARK    2  A    between atoms: C3_4  and  C4_5 
REMARK    3  A    between atoms: C4_5  and  N1_6 
REMARK    4  A    between atoms: N1_6  and  C5_8 
REMARK    5  A    between atoms: C5_8  and  N4_21 
REMARK    6  A    between atoms: C6_9  and  C7_10 
REMARK    7  A    between atoms: C7_10  and  C8_11 
REMARK    8  A    between atoms: C7_10  and  C12_16 
REMARK    9  A    between atoms: C8_11  and  N2_12 
REMARK   10  A    between atoms: C12_16  and  N3_17 
REMARK       I    between atoms: N4_21  and  C16_23 
REMARK   11  A    between atoms: C16_23  and  C17_25 
ROOT
HETATM    1  C5  UNL     1      27.066  -3.639  44.054  1.00  0.00     0.103 C 
HETATM    2  C6  UNL     1      27.996  -4.244  44.856  1.00  0.00     0.030 C 
ENDROOT
BRANCH   1   3
HETATM    3  N1  UNL     1      26.492  -4.245  43.020  1.00  0.00    -0.356 N 
ATOM      4  H1  UNL     1      25.621  -4.705  43.284  1.00  0.00     0.166 HD
BRANCH   3   5
HETATM    5  C4  UNL     1      26.773  -4.409  41.683  1.00  0.00     0.063 C 
BRANCH   5   6
HETATM    6  C3  UNL     1      27.074  -5.803  41.217  1.00  0.00     0.060 C 
BRANCH   6   7
HETATM    7  C2  UNL     1      27.535  -5.884  39.783  1.00  0.00     0.059 C 
HETATM    8  C1  UNL     1      27.107  -4.711  38.964  1.00  0.00     0.022 C 
HETATM    9  S1  UNL     1      29.340  -6.033  39.769  1.00  0.00    -0.092 SA
ENDBRANCH   6   7
ENDBRANCH   5   6
ENDBRANCH   3   5
ENDBRANCH   1   3
BRANCH   1  10
HETATM   10  N4  UNL     1      26.892  -2.284  44.372  1.00  0.00    -0.312 N 
HETATM   11  C16 UNL     1      27.541  -1.064  44.337  1.00  0.00     0.254 C 
HETATM   12  O1  UNL     1      28.699  -0.782  43.978  1.00  0.00    -0.271 OA
ATOM     13  H4  UNL     1      25.961  -2.153  44.766  1.00  0.00     0.170 HD
BRANCH  11  14
HETATM   14  C17 UNL     1      26.703   0.118  44.828  1.00  0.00     0.282 C 
HETATM   15  N5  UNL     1      25.306  -0.392  45.041  1.00  0.00    -0.061 N 
HETATM   16  C18 UNL     1      25.170   0.416  46.237  1.00  0.00     0.240 C 
ATOM     17  H52 UNL     1      24.618  -0.305  44.293  1.00  0.00     0.278 HD
ATOM     18  H51 UNL     1      25.138  -1.397  45.089  1.00  0.00     0.278 HD
HETATM   19  C19 UNL     1      26.724   0.277  46.355  1.00  0.00     0.047 C 
HETATM   20  C20 UNL     1      27.239   1.567  46.894  1.00  0.00     0.014 C 
ENDBRANCH  11  14
ENDBRANCH   1  10
BRANCH   2  21
HETATM   21  C7  UNL     1      28.507  -5.591  44.730  1.00  0.00     0.064 C 
BRANCH  21  22
HETATM   22  C8  UNL     1      29.825  -5.718  45.529  1.00  0.00     0.246 C 
BRANCH  22  23
HETATM   23  N2  UNL     1      30.989  -6.113  44.836  1.00  0.00    -0.078 N 
HETATM   24  C9  UNL     1      30.999  -5.976  43.414  1.00  0.00     0.271 C 
HETATM   25  C10 UNL     1      31.595  -7.354  45.289  1.00  0.00     0.271 C 
HETATM   26  C11 UNL     1      31.994  -5.084  45.287  1.00  0.00     0.271 C 
ENDBRANCH  22  23
ENDBRANCH  21  22
BRANCH  21  27
HETATM   27  C12 UNL     1      27.550  -6.602  45.274  1.00  0.00     0.246 C 
BRANCH  27  28
HETATM   28  N3  UNL     1      27.658  -7.979  45.127  1.00  0.00    -0.078 N 
HETATM   29  C13 UNL     1      28.143  -8.474  46.453  1.00  0.00     0.271 C 
HETATM   30  C14 UNL     1      26.255  -8.572  45.159  1.00  0.00     0.271 C 
HETATM   31  C15 UNL     1      28.410  -8.690  44.199  1.00  0.00     0.271 C 
ENDBRANCH  27  28
ENDBRANCH  21  27
ENDBRANCH   2  21
TORSDOF 11
ENDMDL
MODEL 4
REMARK VINA RESULT: -6.966188836      3.800      6.880
REMARK  11 active torsions:
REMARK  status: ('A' for Active; 'I' for Inactive)
REMARK    1  A    between atoms: C2_2  and  C3_4 
REMARK    2  A    between atoms: C3_4  and  C4_5 
REMARK    3  A    between atoms: C4_5  and  N1_6 
REMARK    4  A    between atoms: N1_6  and  C5_8 
REMARK    5  A    between atoms: C5_8  and  N4_21 
REMARK    6  A    between atoms: C6_9  and  C7_10 
REMARK    7  A    between atoms: C7_10  and  C8_11 
REMARK    8  A    between atoms: C7_10  and  C12_16 
REMARK    9  A    between atoms: C8_11  and  N2_12 
REMARK   10  A    between atoms: C12_16  and  N3_17 
REMARK       I    between atoms: N4_21  and  C16_23 
REMARK   11  A    between atoms: C16_23  and  C17_25 
ROOT
HETATM    1  C5  UNL     1      29.574  -8.860  44.368  1.00  0.00     0.103 C 
HETATM    2  C6  UNL     1      28.706  -8.899  43.310  1.00  0.00     0.030 C 
ENDROOT
BRANCH   1   3
HETATM    3  N1  UNL     1      30.766  -8.274  44.311  1.00  0.00    -0.356 N 
ATOM      4  H1  UNL     1      31.300  -8.578  43.497  1.00  0.00     0.166 HD
BRANCH   3   5
HETATM    5  C4  UNL     1      31.462  -7.363  45.070  1.00  0.00     0.063 C 
BRANCH   5   6
HETATM    6  C3  UNL     1      30.701  -6.658  46.154  1.00  0.00     0.060 C 
BRANCH   6   7
HETATM    7  C2  UNL     1      30.189  -5.296  45.757  1.00  0.00     0.059 C 
HETATM    8  C1  UNL     1      31.013  -4.648  44.694  1.00  0.00     0.022 C 
HETATM    9  S1  UNL     1      28.474  -5.468  45.201  1.00  0.00    -0.092 SA
ENDBRANCH   6   7
ENDBRANCH   5   6
ENDBRANCH   3   5
ENDBRANCH   1   3
BRANCH   1  10
HETATM   10  N4  UNL     1      29.116  -9.613  45.459  1.00  0.00    -0.312 N 
HETATM   11  C16 UNL     1      28.217  -9.578  46.508  1.00  0.00     0.254 C 
HETATM   12  O1  UNL     1      27.438  -8.675  46.866  1.00  0.00    -0.271 OA
ATOM     13  H4  UNL     1      29.625 -10.497  45.488  1.00  0.00     0.170 HD
BRANCH  11  14
HETATM   14  C17 UNL     1      28.186 -10.845  47.365  1.00  0.00     0.282 C 
HETATM   15  N5  UNL     1      26.754 -11.076  47.755  1.00  0.00    -0.061 N 
HETATM   16  C18 UNL     1      26.915 -12.506  47.579  1.00  0.00     0.240 C 
ATOM     17  H52 UNL     1      26.407 -10.713  48.643  1.00  0.00     0.278 HD
ATOM     18  H51 UNL     1      26.010 -10.587  47.256  1.00  0.00     0.278 HD
HETATM   19  C19 UNL     1      28.018 -12.127  46.537  1.00  0.00     0.047 C 
HETATM   20  C20 UNL     1      29.096 -13.150  46.648  1.00  0.00     0.014 C 
ENDBRANCH  11  14
ENDBRANCH   1  10
BRANCH   2  21
HETATM   21  C7  UNL     1      28.916  -8.340  41.993  1.00  0.00     0.064 C 
BRANCH  21  22
HETATM   22  C8  UNL     1      28.945  -9.481  40.949  1.00  0.00     0.246 C 
BRANCH  22  23
HETATM   23  N2  UNL     1      30.197  -9.887  40.441  1.00  0.00    -0.078 N 
HETATM   24  C9  UNL     1      30.739 -11.123  40.910  1.00  0.00     0.271 C 
HETATM   25  C10 UNL     1      31.196  -8.838  40.328  1.00  0.00     0.271 C 
HETATM   26  C11 UNL     1      29.877 -10.179  38.997  1.00  0.00     0.271 C 
ENDBRANCH  22  23
ENDBRANCH  21  22
BRANCH  21  27
HETATM   27  C12 UNL     1      27.818  -7.403  41.606  1.00  0.00     0.246 C 
BRANCH  27  28
HETATM   28  N3  UNL     1      27.988  -6.098  41.161  1.00  0.00    -0.078 N 
HETATM   29  C13 UNL     1      29.411  -5.762  41.480  1.00  0.00     0.271 C 
HETATM   30  C14 UNL     1      28.093  -6.123  39.642  1.00  0.00     0.271 C 
HETATM   31  C15 UNL     1      27.277  -4.962  41.530  1.00  0.00     0.271 C 
ENDBRANCH  27  28
ENDBRANCH  21  27
ENDBRANCH   2  21
TORSDOF 11
ENDMDL
MODEL 5
REMARK VINA RESULT: -6.919251574      4.015      7.315
REMARK  11 active torsions:
REMARK  status: ('A' for Active; 'I' for Inactive)
REMARK    1  A    between atoms: C2_2  and  C3_4 
REMARK    2  A    between atoms: C3_4  and  C4_5 
REMARK    3  A    between atoms: C4_5  and  N1_6 
REMARK    4  A    between atoms: N1_6  and  C5_8 
REMARK    5  A    between atoms: C5_8  and  N4_21 
REMARK    6  A    between atoms: C6_9  and  C7_10 
REMARK    7  A    between atoms: C7_10  and  C8_11 
REMARK    8  A    between atoms: C7_10  and  C12_16 
REMARK    9  A    between atoms: C8_11  and  N2_12 
REMARK   10  A    between atoms: C12_16  and  N3_17 
REMARK       I    between atoms: N4_21  and  C16_23 
REMARK   11  A    between atoms: C16_23  and  C17_25 
ROOT
HETATM    1  C5  UNL     1      29.098  -9.527  43.432  1.00  0.00     0.103 C 
HETATM    2  C6  UNL     1      28.332  -9.208  42.343  1.00  0.00     0.030 C 
ENDROOT
BRANCH   1   3
HETATM    3  N1  UNL     1      30.257  -8.937  43.705  1.00  0.00    -0.356 N 
ATOM      4  H1  UNL     1      31.051  -9.512  43.425  1.00  0.00     0.166 HD
BRANCH   3   5
HETATM    5  C4  UNL     1      30.659  -7.748  44.270  1.00  0.00     0.063 C 
BRANCH   5   6
HETATM    6  C3  UNL     1      31.117  -7.795  45.698  1.00  0.00     0.060 C 
BRANCH   6   7
HETATM    7  C2  UNL     1      30.187  -7.102  46.662  1.00  0.00     0.059 C 
HETATM    8  C1  UNL     1      29.676  -5.797  46.148  1.00  0.00     0.022 C 
HETATM    9  S1  UNL     1      28.805  -8.216  47.025  1.00  0.00    -0.092 SA
ENDBRANCH   6   7
ENDBRANCH   5   6
ENDBRANCH   3   5
ENDBRANCH   1   3
BRANCH   1  10
HETATM   10  N4  UNL     1      28.584 -10.623  44.140  1.00  0.00    -0.312 N 
HETATM   11  C16 UNL     1      28.829 -11.955  44.416  1.00  0.00     0.254 C 
HETATM   12  O1  UNL     1      29.731 -12.707  44.000  1.00  0.00    -0.271 OA
ATOM     13  H4  UNL     1      27.731 -10.337  44.619  1.00  0.00     0.170 HD
BRANCH  11  14
HETATM   14  C17 UNL     1      27.827 -12.604  45.372  1.00  0.00     0.282 C 
HETATM   15  N5  UNL     1      28.420 -13.913  45.808  1.00  0.00    -0.061 N 
HETATM   16  C18 UNL     1      27.926 -13.714  47.156  1.00  0.00     0.240 C 
ATOM     17  H52 UNL     1      28.182 -14.768  45.305  1.00  0.00     0.278 HD
ATOM     18  H51 UNL     1      29.413 -14.092  45.656  1.00  0.00     0.278 HD
HETATM   19  C19 UNL     1      28.036 -12.187  46.835  1.00  0.00     0.047 C 
HETATM   20  C20 UNL     1      26.894 -11.513  47.516  1.00  0.00     0.014 C 
ENDBRANCH  11  14
ENDBRANCH   1  10
BRANCH   2  21
HETATM   21  C7  UNL     1      28.630  -8.219  41.331  1.00  0.00     0.064 C 
BRANCH  21  22
HETATM   22  C8  UNL     1      28.747  -8.911  39.953  1.00  0.00     0.246 C 
BRANCH  22  23
HETATM   23  N2  UNL     1      30.019  -9.354  39.535  1.00  0.00    -0.078 N 
HETATM   24  C9  UNL     1      30.320 -10.745  39.672  1.00  0.00     0.271 C 
HETATM   25  C10 UNL     1      31.133  -8.496  39.904  1.00  0.00     0.271 C 
HETATM   26  C11 UNL     1      29.950  -9.164  38.042  1.00  0.00     0.271 C 
ENDBRANCH  22  23
ENDBRANCH  21  22
BRANCH  21  27
HETATM   27  C12 UNL     1      27.553  -7.187  41.228  1.00  0.00     0.246 C 
BRANCH  27  28
HETATM   28  N3  UNL     1      27.499  -6.000  41.947  1.00  0.00    -0.078 N 
HETATM   29  C13 UNL     1      28.902  -5.480  41.942  1.00  0.00     0.271 C 
HETATM   30  C14 UNL     1      26.857  -4.938  41.064  1.00  0.00     0.271 C 
HETATM   31  C15 UNL     1      27.064  -5.802  43.252  1.00  0.00     0.271 C 
ENDBRANCH  27  28
ENDBRANCH  21  27
ENDBRANCH   2  21
TORSDOF 11
ENDMDL
