MODEL 1
REMARK VINA RESULT: -8.884931047      0.000      0.000
REMARK  14 active torsions:
REMARK  status: ('A' for Active; 'I' for Inactive)
REMARK    1  A    between atoms: C2_2  and  C4_4 
REMARK    2  A    between atoms: C4_4  and  C5_5 
REMARK       I    between atoms: C5_5  and  N1_7 
REMARK    3  A    between atoms: N1_7  and  C6_9 
REMARK    4  A    between atoms: C6_9  and  C7_10 
REMARK    5  A    between atoms: C7_10  and  C8_11 
REMARK    6  A    between atoms: C8_11  and  C9_12 
REMARK    7  A    between atoms: C9_12  and  C10_13 
REMARK    8  A    between atoms: C10_13  and  C11_14 
REMARK    9  A    between atoms: C11_14  and  C12_15 
REMARK   10  A    between atoms: C12_15  and  N2_16 
REMARK       I    between atoms: N2_16  and  C13_18 
REMARK       I    between atoms: C13_18  and  N4_22 
REMARK   11  A    between atoms: N4_22  and  C14_24 
REMARK   12  A    between atoms: C15_25  and  N5_26 
REMARK   13  A    between atoms: N5_26  and  C16_27 
REMARK   14  A    between atoms: C17_28  and  C18_29 
ROOT
HETATM    1  N2  UNL     1      28.306  -2.368 -24.441  1.00  0.00    -0.227 N 
ATOM      2  H2  UNL     1      29.064  -2.186 -25.099  1.00  0.00     0.177 HD
HETATM    3  C13 UNL     1      27.304  -1.377 -24.292  1.00  0.00     0.671 C 
HETATM    4  N3  UNL     1      26.364  -1.506 -23.471  1.00  0.00    -0.235 N 
ATOM      5  H31 UNL     1      25.643  -0.793 -23.363  1.00  0.00     0.174 HD
ATOM      6  H32 UNL     1      26.268  -2.315 -22.856  1.00  0.00     0.174 HD
HETATM    7  N4  UNL     1      27.439  -0.239 -25.156  1.00  0.00    -0.201 N 
ATOM      8  H4  UNL     1      26.874  -0.229 -26.006  1.00  0.00     0.183 HD
ENDROOT
BRANCH   1   9
HETATM    9  C12 UNL     1      28.322  -3.631 -23.713  1.00  0.00     0.138 C 
BRANCH   9  10
HETATM   10  C11 UNL     1      29.154  -4.637 -24.450  1.00  0.00     0.020 C 
BRANCH  10  11
HETATM   11  C10 UNL     1      30.621  -4.175 -24.486  1.00  0.00     0.002 C 
BRANCH  11  12
HETATM   12  C9  UNL     1      31.528  -5.125 -23.802  1.00  0.00     0.000 C 
BRANCH  12  13
HETATM   13  C8  UNL     1      31.044  -6.480 -23.482  1.00  0.00     0.002 C 
BRANCH  13  14
HETATM   14  C7  UNL     1      30.981  -6.980 -22.099  1.00  0.00     0.020 C 
BRANCH  14  15
HETATM   15  C6  UNL     1      29.694  -6.809 -21.399  1.00  0.00     0.122 C 
BRANCH  15  16
HETATM   16  N1  UNL     1      28.917  -8.051 -21.369  1.00  0.00    -0.361 N 
HETATM   17  C5  UNL     1      27.896  -8.276 -22.370  1.00  0.00     0.217 C 
HETATM   18  O1  UNL     1      27.635  -7.468 -23.241  1.00  0.00    -0.274 OA
ATOM     19  H1  UNL     1      29.095  -8.752 -20.649  1.00  0.00     0.162 HD
BRANCH  17  20
HETATM   20  C4  UNL     1      27.179  -9.578 -22.252  1.00  0.00     0.106 C 
BRANCH  20  21
HETATM   21  C2  UNL     1      28.156 -10.652 -21.898  1.00  0.00    -0.014 C 
HETATM   22  C1  UNL     1      28.886 -11.109 -23.143  1.00  0.00     0.010 C 
HETATM   23  C3  UNL     1      27.440 -11.825 -21.243  1.00  0.00     0.010 C 
ENDBRANCH  20  21
ENDBRANCH  17  20
ENDBRANCH  15  16
ENDBRANCH  14  15
ENDBRANCH  13  14
ENDBRANCH  12  13
ENDBRANCH  11  12
ENDBRANCH  10  11
ENDBRANCH   9  10
ENDBRANCH   1   9
BRANCH   7  24
HETATM   24  C14 UNL     1      28.288   0.870 -24.933  1.00  0.00     0.131 C 
HETATM   25  C15 UNL     1      27.991   1.934 -24.004  1.00  0.00     0.225 C 
BRANCH  25  26
HETATM   26  N5  UNL     1      26.928   2.870 -24.162  1.00  0.00    -0.022 N 
HETATM   27  C19 UNL     1      27.043   3.335 -25.545  1.00  0.00     0.276 C 
HETATM   28  C20 UNL     1      26.217   4.519 -25.901  1.00  0.00     0.266 C 
HETATM   29  N7  UNL     1      26.463   5.674 -25.096  1.00  0.00    -0.064 N 
HETATM   30  C21 UNL     1      26.850   6.835 -25.879  1.00  0.00     0.237 C 
HETATM   31  C24 UNL     1      25.300   6.122 -24.350  1.00  0.00     0.237 C 
HETATM   32  C25 UNL     1      27.520   5.307 -24.162  1.00  0.00     0.266 C 
HETATM   33  C22 UNL     1      25.492   7.328 -26.372  1.00  0.00     0.029 C 
HETATM   34  C23 UNL     1      24.708   7.299 -25.067  1.00  0.00     0.029 C 
HETATM   35  C26 UNL     1      27.085   4.105 -23.375  1.00  0.00     0.276 C 
BRANCH  26  36
HETATM   36  C16 UNL     1      25.617   2.421 -23.877  1.00  0.00     0.213 C 
HETATM   37  C17 UNL     1      24.938   2.405 -22.608  1.00  0.00     0.096 C 
BRANCH  37  38
HETATM   38  C18 UNL     1      25.302   1.634 -21.459  1.00  0.00     0.256 C 
HETATM   39  N6  UNL     1      24.724   1.923 -20.143  1.00  0.00    -0.058 NA
HETATM   40  O2  UNL     1      26.094   0.688 -21.432  1.00  0.00    -0.272 OA
ENDBRANCH  37  38
ENDBRANCH  26  36
ENDBRANCH  25  26
ENDBRANCH   7  24
TORSDOF 14
ENDMDL
MODEL 2
REMARK VINA RESULT: -8.725295035      2.278      3.374
REMARK  14 active torsions:
REMARK  status: ('A' for Active; 'I' for Inactive)
REMARK    1  A    between atoms: C2_2  and  C4_4 
REMARK    2  A    between atoms: C4_4  and  C5_5 
REMARK       I    between atoms: C5_5  and  N1_7 
REMARK    3  A    between atoms: N1_7  and  C6_9 
REMARK    4  A    between atoms: C6_9  and  C7_10 
REMARK    5  A    between atoms: C7_10  and  C8_11 
REMARK    6  A    between atoms: C8_11  and  C9_12 
REMARK    7  A    between atoms: C9_12  and  C10_13 
REMARK    8  A    between atoms: C10_13  and  C11_14 
REMARK    9  A    between atoms: C11_14  and  C12_15 
REMARK   10  A    between atoms: C12_15  and  N2_16 
REMARK       I    between atoms: N2_16  and  C13_18 
REMARK       I    between atoms: C13_18  and  N4_22 
REMARK   11  A    between atoms: N4_22  and  C14_24 
REMARK   12  A    between atoms: C15_25  and  N5_26 
REMARK   13  A    between atoms: N5_26  and  C16_27 
REMARK   14  A    between atoms: C17_28  and  C18_29 
ROOT
HETATM    1  N2  UNL     1      28.242  -2.849 -23.742  1.00  0.00    -0.227 N 
ATOM      2  H2  UNL     1      28.541  -2.278 -22.952  1.00  0.00     0.177 HD
HETATM    3  C13 UNL     1      27.235  -2.329 -24.594  1.00  0.00     0.671 C 
HETATM    4  N3  UNL     1      26.781  -2.988 -25.559  1.00  0.00    -0.235 N 
ATOM      5  H31 UNL     1      26.056  -2.614 -26.172  1.00  0.00     0.174 HD
ATOM      6  H32 UNL     1      27.093  -3.932 -25.785  1.00  0.00     0.174 HD
HETATM    7  N4  UNL     1      26.796  -0.999 -24.276  1.00  0.00    -0.201 N 
ATOM      8  H4  UNL     1      27.201  -0.233 -24.815  1.00  0.00     0.183 HD
ENDROOT
BRANCH   1   9
HETATM    9  C12 UNL     1      28.877  -4.148 -23.925  1.00  0.00     0.138 C 
BRANCH   9  10
HETATM   10  C11 UNL     1      30.143  -3.994 -24.712  1.00  0.00     0.020 C 
BRANCH  10  11
HETATM   11  C10 UNL     1      31.256  -4.851 -24.086  1.00  0.00     0.002 C 
BRANCH  11  12
HETATM   12  C9  UNL     1      31.017  -6.302 -24.262  1.00  0.00     0.000 C 
BRANCH  12  13
HETATM   13  C8  UNL     1      31.308  -7.221 -23.147  1.00  0.00     0.002 C 
BRANCH  13  14
HETATM   14  C7  UNL     1      31.072  -6.844 -21.744  1.00  0.00     0.020 C 
BRANCH  14  15
HETATM   15  C6  UNL     1      29.663  -6.689 -21.335  1.00  0.00     0.122 C 
BRANCH  15  16
HETATM   16  N1  UNL     1      28.940  -7.963 -21.364  1.00  0.00    -0.361 N 
HETATM   17  C5  UNL     1      27.967  -8.204 -22.408  1.00  0.00     0.217 C 
HETATM   18  O1  UNL     1      27.705  -7.387 -23.268  1.00  0.00    -0.274 OA
ATOM     19  H1  UNL     1      29.121  -8.673 -20.655  1.00  0.00     0.162 HD
BRANCH  17  20
HETATM   20  C4  UNL     1      27.303  -9.538 -22.349  1.00  0.00     0.106 C 
BRANCH  20  21
HETATM   21  C2  UNL     1      28.309 -10.577 -21.971  1.00  0.00    -0.014 C 
HETATM   22  C1  UNL     1      29.108 -10.981 -23.192  1.00  0.00     0.010 C 
HETATM   23  C3  UNL     1      27.616 -11.790 -21.366  1.00  0.00     0.010 C 
ENDBRANCH  20  21
ENDBRANCH  17  20
ENDBRANCH  15  16
ENDBRANCH  14  15
ENDBRANCH  13  14
ENDBRANCH  12  13
ENDBRANCH  11  12
ENDBRANCH  10  11
ENDBRANCH   9  10
ENDBRANCH   1   9
BRANCH   7  24
HETATM   24  C14 UNL     1      25.851  -0.658 -23.281  1.00  0.00     0.131 C 
HETATM   25  C15 UNL     1      25.419   0.692 -23.013  1.00  0.00     0.225 C 
BRANCH  25  26
HETATM   26  N5  UNL     1      26.251   1.714 -22.470  1.00  0.00    -0.022 N 
HETATM   27  C19 UNL     1      25.945   1.722 -21.038  1.00  0.00     0.276 C 
HETATM   28  C20 UNL     1      26.480   2.876 -20.268  1.00  0.00     0.266 C 
HETATM   29  N7  UNL     1      26.060   4.154 -20.749  1.00  0.00    -0.064 N 
HETATM   30  C21 UNL     1      25.387   4.945 -19.733  1.00  0.00     0.237 C 
HETATM   31  C24 UNL     1      27.156   5.000 -21.188  1.00  0.00     0.237 C 
HETATM   32  C25 UNL     1      25.171   3.897 -21.875  1.00  0.00     0.266 C 
HETATM   33  C22 UNL     1      26.574   5.503 -18.955  1.00  0.00     0.029 C 
HETATM   34  C23 UNL     1      27.440   5.999 -20.106  1.00  0.00     0.029 C 
HETATM   35  C26 UNL     1      25.900   3.077 -22.899  1.00  0.00     0.276 C 
BRANCH  26  36
HETATM   36  C16 UNL     1      27.644   1.608 -22.697  1.00  0.00     0.213 C 
HETATM   37  C17 UNL     1      28.390   2.019 -23.856  1.00  0.00     0.096 C 
BRANCH  37  38
HETATM   38  C18 UNL     1      28.274   1.481 -25.176  1.00  0.00     0.256 C 
HETATM   39  N6  UNL     1      27.161   1.862 -26.052  1.00  0.00    -0.058 NA
HETATM   40  O2  UNL     1      29.048   0.683 -25.712  1.00  0.00    -0.272 OA
ENDBRANCH  37  38
ENDBRANCH  26  36
ENDBRANCH  25  26
ENDBRANCH   7  24
TORSDOF 14
ENDMDL
MODEL 3
REMARK VINA RESULT: -8.679910123      1.385      2.135
REMARK  14 active torsions:
REMARK  status: ('A' for Active; 'I' for Inactive)
REMARK    1  A    between atoms: C2_2  and  C4_4 
REMARK    2  A    between atoms: C4_4  and  C5_5 
REMARK       I    between atoms: C5_5  and  N1_7 
REMARK    3  A    between atoms: N1_7  and  C6_9 
REMARK    4  A    between atoms: C6_9  and  C7_10 
REMARK    5  A    between atoms: C7_10  and  C8_11 
REMARK    6  A    between atoms: C8_11  and  C9_12 
REMARK    7  A    between atoms: C9_12  and  C10_13 
REMARK    8  A    between atoms: C10_13  and  C11_14 
REMARK    9  A    between atoms: C11_14  and  C12_15 
REMARK   10  A    between atoms: C12_15  and  N2_16 
REMARK       I    between atoms: N2_16  and  C13_18 
REMARK       I    between atoms: C13_18  and  N4_22 
REMARK   11  A    between atoms: N4_22  and  C14_24 
REMARK   12  A    between atoms: C15_25  and  N5_26 
REMARK   13  A    between atoms: N5_26  and  C16_27 
REMARK   14  A    between atoms: C17_28  and  C18_29 
ROOT
HETATM    1  N2  UNL     1      28.994  -2.757 -24.352  1.00  0.00    -0.227 N 
ATOM      2  H2  UNL     1      29.588  -2.180 -23.758  1.00  0.00     0.177 HD
HETATM    3  C13 UNL     1      27.705  -2.266 -24.680  1.00  0.00     0.671 C 
HETATM    4  N3  UNL     1      26.897  -2.935 -25.368  1.00  0.00    -0.235 N 
ATOM      5  H31 UNL     1      25.970  -2.582 -25.603  1.00  0.00     0.174 HD
ATOM      6  H32 UNL     1      27.108  -3.868 -25.722  1.00  0.00     0.174 HD
HETATM    7  N4  UNL     1      27.409  -0.951 -24.182  1.00  0.00    -0.201 N 
ATOM      8  H4  UNL     1      27.522  -0.172 -24.830  1.00  0.00     0.183 HD
ENDROOT
BRANCH   1   9
HETATM    9  C12 UNL     1      29.523  -4.035 -24.812  1.00  0.00     0.138 C 
BRANCH   9  10
HETATM   10  C11 UNL     1      31.012  -4.064 -24.643  1.00  0.00     0.020 C 
BRANCH  10  11
HETATM   11  C10 UNL     1      31.431  -5.357 -23.923  1.00  0.00     0.002 C 
BRANCH  11  12
HETATM   12  C9  UNL     1      30.283  -6.050 -23.294  1.00  0.00     0.000 C 
BRANCH  12  13
HETATM   13  C8  UNL     1      30.450  -6.654 -21.960  1.00  0.00     0.002 C 
BRANCH  13  14
HETATM   14  C7  UNL     1      29.375  -7.422 -21.311  1.00  0.00     0.020 C 
BRANCH  14  15
HETATM   15  C6  UNL     1      28.361  -8.014 -22.204  1.00  0.00     0.122 C 
BRANCH  15  16
HETATM   16  N1  UNL     1      27.863  -9.295 -21.695  1.00  0.00    -0.361 N 
HETATM   17  C5  UNL     1      26.732  -9.925 -22.341  1.00  0.00     0.217 C 
HETATM   18  O1  UNL     1      26.156  -9.434 -23.292  1.00  0.00    -0.274 OA
ATOM     19  H1  UNL     1      28.309  -9.738 -20.892  1.00  0.00     0.162 HD
BRANCH  17  20
HETATM   20  C4  UNL     1      26.319 -11.230 -21.750  1.00  0.00     0.106 C 
BRANCH  20  21
HETATM   21  C2  UNL     1      27.461 -12.192 -21.825  1.00  0.00    -0.014 C 
HETATM   22  C1  UNL     1      27.741 -12.538 -23.272  1.00  0.00     0.010 C 
HETATM   23  C3  UNL     1      27.146 -13.452 -21.030  1.00  0.00     0.010 C 
ENDBRANCH  20  21
ENDBRANCH  17  20
ENDBRANCH  15  16
ENDBRANCH  14  15
ENDBRANCH  13  14
ENDBRANCH  12  13
ENDBRANCH  11  12
ENDBRANCH  10  11
ENDBRANCH   9  10
ENDBRANCH   1   9
BRANCH   7  24
HETATM   24  C14 UNL     1      26.975  -0.644 -22.872  1.00  0.00     0.131 C 
HETATM   25  C15 UNL     1      26.085   0.447 -22.557  1.00  0.00     0.225 C 
BRANCH  25  26
HETATM   26  N5  UNL     1      26.417   1.826 -22.692  1.00  0.00    -0.022 N 
HETATM   27  C19 UNL     1      25.335   2.394 -23.499  1.00  0.00     0.276 C 
HETATM   28  C20 UNL     1      25.566   3.768 -24.016  1.00  0.00     0.266 C 
HETATM   29  N7  UNL     1      26.742   3.909 -24.815  1.00  0.00    -0.064 N 
HETATM   30  C21 UNL     1      26.462   4.426 -26.144  1.00  0.00     0.237 C 
HETATM   31  C24 UNL     1      27.709   4.844 -24.268  1.00  0.00     0.237 C 
HETATM   32  C25 UNL     1      27.346   2.585 -24.894  1.00  0.00     0.266 C 
HETATM   33  C22 UNL     1      26.338   5.921 -25.862  1.00  0.00     0.029 C 
HETATM   34  C23 UNL     1      27.586   6.138 -25.017  1.00  0.00     0.029 C 
HETATM   35  C26 UNL     1      27.617   2.085 -23.505  1.00  0.00     0.276 C 
BRANCH  26  36
HETATM   36  C16 UNL     1      26.616   2.567 -21.503  1.00  0.00     0.213 C 
HETATM   37  C17 UNL     1      26.087   2.302 -20.192  1.00  0.00     0.096 C 
BRANCH  37  38
HETATM   38  C18 UNL     1      24.710   2.323 -19.810  1.00  0.00     0.256 C 
HETATM   39  N6  UNL     1      24.312   2.657 -18.438  1.00  0.00    -0.058 NA
HETATM   40  O2  UNL     1      23.743   2.083 -20.538  1.00  0.00    -0.272 OA
ENDBRANCH  37  38
ENDBRANCH  26  36
ENDBRANCH  25  26
ENDBRANCH   7  24
TORSDOF 14
ENDMDL
MODEL 4
REMARK VINA RESULT: -8.652040918      2.361      4.089
REMARK  14 active torsions:
REMARK  status: ('A' for Active; 'I' for Inactive)
REMARK    1  A    between atoms: C2_2  and  C4_4 
REMARK    2  A    between atoms: C4_4  and  C5_5 
REMARK       I    between atoms: C5_5  and  N1_7 
REMARK    3  A    between atoms: N1_7  and  C6_9 
REMARK    4  A    between atoms: C6_9  and  C7_10 
REMARK    5  A    between atoms: C7_10  and  C8_11 
REMARK    6  A    between atoms: C8_11  and  C9_12 
REMARK    7  A    between atoms: C9_12  and  C10_13 
REMARK    8  A    between atoms: C10_13  and  C11_14 
REMARK    9  A    between atoms: C11_14  and  C12_15 
REMARK   10  A    between atoms: C12_15  and  N2_16 
REMARK       I    between atoms: N2_16  and  C13_18 
REMARK       I    between atoms: C13_18  and  N4_22 
REMARK   11  A    between atoms: N4_22  and  C14_24 
REMARK   12  A    between atoms: C15_25  and  N5_26 
REMARK   13  A    between atoms: N5_26  and  C16_27 
REMARK   14  A    between atoms: C17_28  and  C18_29 
ROOT
HETATM    1  N2  UNL     1      26.980  -2.697 -23.689  1.00  0.00    -0.227 N 
ATOM      2  H2  UNL     1      26.373  -2.889 -22.893  1.00  0.00     0.177 HD
HETATM    3  C13 UNL     1      27.412  -1.362 -23.889  1.00  0.00     0.671 C 
HETATM    4  N3  UNL     1      28.122  -1.036 -24.870  1.00  0.00    -0.235 N 
ATOM      5  H31 UNL     1      28.433  -0.076 -25.014  1.00  0.00     0.174 HD
ATOM      6  H32 UNL     1      28.421  -1.700 -25.585  1.00  0.00     0.174 HD
HETATM    7  N4  UNL     1      26.991  -0.428 -22.882  1.00  0.00    -0.201 N 
ATOM      8  H4  UNL     1      27.663  -0.199 -22.149  1.00  0.00     0.183 HD
ENDROOT
BRANCH   1   9
HETATM    9  C12 UNL     1      27.349  -3.813 -24.551  1.00  0.00     0.138 C 
BRANCH   9  10
HETATM   10  C11 UNL     1      28.504  -4.561 -23.955  1.00  0.00     0.020 C 
BRANCH  10  11
HETATM   11  C10 UNL     1      29.649  -4.654 -24.977  1.00  0.00     0.002 C 
BRANCH  11  12
HETATM   12  C9  UNL     1      30.971  -4.373 -24.370  1.00  0.00     0.000 C 
BRANCH  12  13
HETATM   13  C8  UNL     1      31.646  -5.428 -23.594  1.00  0.00     0.002 C 
BRANCH  13  14
HETATM   14  C7  UNL     1      31.523  -6.853 -23.942  1.00  0.00     0.020 C 
BRANCH  14  15
HETATM   15  C6  UNL     1      31.312  -7.786 -22.819  1.00  0.00     0.122 C 
BRANCH  15  16
HETATM   16  N1  UNL     1      30.025  -8.479 -22.916  1.00  0.00    -0.361 N 
HETATM   17  C5  UNL     1      28.906  -8.013 -22.125  1.00  0.00     0.217 C 
HETATM   18  O1  UNL     1      28.983  -7.070 -21.362  1.00  0.00    -0.274 OA
ATOM     19  H1  UNL     1      29.918  -9.282 -23.536  1.00  0.00     0.162 HD
BRANCH  17  20
HETATM   20  C4  UNL     1      27.642  -8.782 -22.314  1.00  0.00     0.106 C 
BRANCH  20  21
HETATM   21  C2  UNL     1      27.352  -8.908 -23.775  1.00  0.00    -0.014 C 
HETATM   22  C1  UNL     1      26.594  -7.687 -24.251  1.00  0.00     0.010 C 
HETATM   23  C3  UNL     1      26.546 -10.171 -24.048  1.00  0.00     0.010 C 
ENDBRANCH  20  21
ENDBRANCH  17  20
ENDBRANCH  15  16
ENDBRANCH  14  15
ENDBRANCH  13  14
ENDBRANCH  12  13
ENDBRANCH  11  12
ENDBRANCH  10  11
ENDBRANCH   9  10
ENDBRANCH   1   9
BRANCH   7  24
HETATM   24  C14 UNL     1      25.726   0.201 -22.818  1.00  0.00     0.131 C 
HETATM   25  C15 UNL     1      25.531   1.625 -22.952  1.00  0.00     0.225 C 
BRANCH  25  26
HETATM   26  N5  UNL     1      25.980   2.594 -22.009  1.00  0.00    -0.022 N 
HETATM   27  C19 UNL     1      25.968   1.896 -20.722  1.00  0.00     0.276 C 
HETATM   28  C20 UNL     1      26.140   2.753 -19.519  1.00  0.00     0.266 C 
HETATM   29  N7  UNL     1      25.169   3.794 -19.391  1.00  0.00    -0.064 N 
HETATM   30  C21 UNL     1      24.442   3.734 -18.135  1.00  0.00     0.237 C 
HETATM   31  C24 UNL     1      25.742   5.128 -19.405  1.00  0.00     0.237 C 
HETATM   32  C25 UNL     1      24.260   3.649 -20.520  1.00  0.00     0.266 C 
HETATM   33  C22 UNL     1      25.437   4.390 -17.182  1.00  0.00     0.029 C 
HETATM   34  C23 UNL     1      25.807   5.626 -17.991  1.00  0.00     0.029 C 
HETATM   35  C26 UNL     1      25.048   3.713 -21.796  1.00  0.00     0.276 C 
BRANCH  26  36
HETATM   36  C16 UNL     1      27.234   3.205 -22.250  1.00  0.00     0.213 C 
HETATM   37  C17 UNL     1      27.910   3.379 -23.508  1.00  0.00     0.096 C 
BRANCH  37  38
HETATM   38  C18 UNL     1      28.409   2.341 -24.356  1.00  0.00     0.256 C 
HETATM   39  N6  UNL     1      27.865   2.141 -25.704  1.00  0.00    -0.058 NA
HETATM   40  O2  UNL     1      29.303   1.537 -24.082  1.00  0.00    -0.272 OA
ENDBRANCH  37  38
ENDBRANCH  26  36
ENDBRANCH  25  26
ENDBRANCH   7  24
TORSDOF 14
ENDMDL
MODEL 5
REMARK VINA RESULT: -8.542387964      1.904      3.580
REMARK  14 active torsions:
REMARK  status: ('A' for Active; 'I' for Inactive)
REMARK    1  A    between atoms: C2_2  and  C4_4 
REMARK    2  A    between atoms: C4_4  and  C5_5 
REMARK       I    between atoms: C5_5  and  N1_7 
REMARK    3  A    between atoms: N1_7  and  C6_9 
REMARK    4  A    between atoms: C6_9  and  C7_10 
REMARK    5  A    between atoms: C7_10  and  C8_11 
REMARK    6  A    between atoms: C8_11  and  C9_12 
REMARK    7  A    between atoms: C9_12  and  C10_13 
REMARK    8  A    between atoms: C10_13  and  C11_14 
REMARK    9  A    between atoms: C11_14  and  C12_15 
REMARK   10  A    between atoms: C12_15  and  N2_16 
REMARK       I    between atoms: N2_16  and  C13_18 
REMARK       I    between atoms: C13_18  and  N4_22 
REMARK   11  A    between atoms: N4_22  and  C14_24 
REMARK   12  A    between atoms: C15_25  and  N5_26 
REMARK   13  A    between atoms: N5_26  and  C16_27 
REMARK   14  A    between atoms: C17_28  and  C18_29 
ROOT
HETATM    1  N2  UNL     1      28.370  -2.267 -24.819  1.00  0.00    -0.227 N 
ATOM      2  H2  UNL     1      28.575  -2.125 -25.808  1.00  0.00     0.177 HD
HETATM    3  C13 UNL     1      27.616  -1.272 -24.148  1.00  0.00     0.671 C 
HETATM    4  N3  UNL     1      27.362  -1.350 -22.922  1.00  0.00    -0.235 N 
ATOM      5  H31 UNL     1      26.819  -0.634 -22.439  1.00  0.00     0.174 HD
ATOM      6  H32 UNL     1      27.685  -2.118 -22.334  1.00  0.00     0.174 HD
HETATM    7  N4  UNL     1      27.160  -0.191 -24.976  1.00  0.00    -0.201 N 
ATOM      8  H4  UNL     1      26.199  -0.238 -25.315  1.00  0.00     0.183 HD
ENDROOT
BRANCH   1   9
HETATM    9  C12 UNL     1      28.871  -3.480 -24.185  1.00  0.00     0.138 C 
BRANCH   9  10
HETATM   10  C11 UNL     1      29.919  -4.115 -25.048  1.00  0.00     0.020 C 
BRANCH  10  11
HETATM   11  C10 UNL     1      31.150  -4.472 -24.198  1.00  0.00     0.002 C 
BRANCH  11  12
HETATM   12  C9  UNL     1      31.276  -5.930 -23.972  1.00  0.00     0.000 C 
BRANCH  12  13
HETATM   13  C8  UNL     1      30.960  -6.482 -22.642  1.00  0.00     0.002 C 
BRANCH  13  14
HETATM   14  C7  UNL     1      29.585  -6.516 -22.118  1.00  0.00     0.020 C 
BRANCH  14  15
HETATM   15  C6  UNL     1      28.540  -6.982 -23.049  1.00  0.00     0.122 C 
BRANCH  15  16
HETATM   16  N1  UNL     1      27.844  -8.168 -22.544  1.00  0.00    -0.361 N 
HETATM   17  C5  UNL     1      26.877  -8.838 -23.387  1.00  0.00     0.217 C 
HETATM   18  O1  UNL     1      26.597  -8.454 -24.507  1.00  0.00    -0.274 OA
ATOM     19  H1  UNL     1      28.039  -8.518 -21.606  1.00  0.00     0.162 HD
BRANCH  17  20
HETATM   20  C4  UNL     1      26.241 -10.041 -22.778  1.00  0.00     0.106 C 
BRANCH  20  21
HETATM   21  C2  UNL     1      27.302 -10.934 -22.220  1.00  0.00    -0.014 C 
HETATM   22  C1  UNL     1      27.783 -11.886 -23.294  1.00  0.00     0.010 C 
HETATM   23  C3  UNL     1      26.767 -11.710 -21.024  1.00  0.00     0.010 C 
ENDBRANCH  20  21
ENDBRANCH  17  20
ENDBRANCH  15  16
ENDBRANCH  14  15
ENDBRANCH  13  14
ENDBRANCH  12  13
ENDBRANCH  11  12
ENDBRANCH  10  11
ENDBRANCH   9  10
ENDBRANCH   1   9
BRANCH   7  24
HETATM   24  C14 UNL     1      27.927   0.933 -25.361  1.00  0.00     0.131 C 
HETATM   25  C15 UNL     1      28.478   1.887 -24.429  1.00  0.00     0.225 C 
BRANCH  25  26
HETATM   26  N5  UNL     1      27.702   2.780 -23.634  1.00  0.00    -0.022 N 
HETATM   27  C19 UNL     1      27.876   2.304 -22.260  1.00  0.00     0.276 C 
HETATM   28  C20 UNL     1      26.962   2.896 -21.249  1.00  0.00     0.266 C 
HETATM   29  N7  UNL     1      25.572   2.719 -21.533  1.00  0.00    -0.064 N 
HETATM   30  C21 UNL     1      24.860   2.043 -20.463  1.00  0.00     0.237 C 
HETATM   31  C24 UNL     1      24.850   3.967 -21.705  1.00  0.00     0.237 C 
HETATM   32  C25 UNL     1      25.500   1.948 -22.767  1.00  0.00     0.266 C 
HETATM   33  C22 UNL     1      24.629   3.191 -19.486  1.00  0.00     0.029 C 
HETATM   34  C23 UNL     1      24.097   4.252 -20.440  1.00  0.00     0.029 C 
HETATM   35  C26 UNL     1      26.249   2.677 -23.846  1.00  0.00     0.276 C 
BRANCH  26  36
HETATM   36  C16 UNL     1      27.988   4.161 -23.739  1.00  0.00     0.213 C 
HETATM   37  C17 UNL     1      27.400   5.126 -24.631  1.00  0.00     0.096 C 
BRANCH  37  38
HETATM   38  C18 UNL     1      27.501   5.138 -26.057  1.00  0.00     0.256 C 
HETATM   39  N6  UNL     1      26.509   4.450 -26.890  1.00  0.00    -0.058 NA
HETATM   40  O2  UNL     1      28.376   5.695 -26.725  1.00  0.00    -0.272 OA
ENDBRANCH  37  38
ENDBRANCH  26  36
ENDBRANCH  25  26
ENDBRANCH   7  24
TORSDOF 14
ENDMDL
