MODEL 1
REMARK VINA RESULT: -8.458434616      0.000      0.000
REMARK  14 active torsions:
REMARK  status: ('A' for Active; 'I' for Inactive)
REMARK    1  A    between atoms: C2_2  and  C3_3 
REMARK    2  A    between atoms: C3_3  and  C4_4 
REMARK    3  A    between atoms: C4_4  and  C5_5 
REMARK    4  A    between atoms: C5_5  and  C6_6 
REMARK    5  A    between atoms: C6_6  and  C7_7 
REMARK    6  A    between atoms: C7_7  and  C8_8 
REMARK    7  A    between atoms: C8_8  and  C9_9 
REMARK    8  A    between atoms: C9_9  and  N1_10 
REMARK       I    between atoms: C10_12  and  N3_14 
REMARK    9  A    between atoms: C14_20  and  C15_21 
REMARK   10  A    between atoms: C15_21  and  N5_22 
REMARK   11  A    between atoms: N6_25  and  C18_26 
REMARK   12  A    between atoms: C18_26  and  C19_27 
REMARK   13  A    between atoms: C19_27  and  C20_28 
REMARK   14  A    between atoms: C20_28  and  N7_29 
REMARK       I    between atoms: N7_29  and  C21_31 
ROOT
HETATM    1  N1  UNL     1      30.276  -5.748 -25.016  1.00  0.00    -0.364 N 
ATOM      2  H1  UNL     1      29.868  -4.818 -24.923  1.00  0.00     0.162 HD
HETATM    3  C10 UNL     1      29.555  -6.665 -25.542  1.00  0.00     0.187 C 
HETATM    4  N2  UNL     1      30.091  -7.962 -25.685  1.00  0.00    -0.064 NA
HETATM    5  N3  UNL     1      28.243  -6.412 -25.981  1.00  0.00    -0.343 N 
HETATM    6  C11 UNL     1      27.112  -6.930 -25.276  1.00  0.00     0.170 C 
HETATM    7  C12 UNL     1      26.288  -5.751 -24.811  1.00  0.00     0.075 C 
HETATM    8  N4  UNL     1      26.110  -4.761 -25.797  1.00  0.00    -0.399 N 
ATOM      9  H4  UNL     1      25.213  -4.285 -25.900  1.00  0.00     0.158 HD
HETATM   10  C13 UNL     1      27.203  -4.437 -26.647  1.00  0.00     0.145 C 
HETATM   11  C14 UNL     1      27.993  -5.595 -27.199  1.00  0.00     0.131 C 
ENDROOT
BRANCH  11  12
HETATM   12  C15 UNL     1      27.352  -6.463 -28.181  1.00  0.00     0.264 C 
BRANCH  12  13
HETATM   13  N5  UNL     1      28.038  -7.299 -29.075  1.00  0.00    -0.056 N 
HETATM   14  C16 UNL     1      29.430  -7.158 -29.265  1.00  0.00     0.266 C 
HETATM   15  C17 UNL     1      29.881  -7.984 -30.484  1.00  0.00     0.265 C 
HETATM   16  N6  UNL     1      29.080  -9.151 -30.582  1.00  0.00    -0.062 N 
HETATM   17  C22 UNL     1      28.889  -9.620 -29.204  1.00  0.00     0.265 C 
HETATM   18  C24 UNL     1      27.706  -8.722 -30.955  1.00  0.00     0.270 C 
HETATM   19  C23 UNL     1      27.912  -8.708 -28.516  1.00  0.00     0.266 C 
HETATM   20  C25 UNL     1      27.320  -7.416 -30.323  1.00  0.00     0.212 C 
HETATM   21  C26 UNL     1      27.408  -6.269 -31.255  1.00  0.00     0.042 C 
BRANCH  16  22
HETATM   22  C18 UNL     1      29.412 -10.138 -31.517  1.00  0.00     0.239 C 
BRANCH  22  23
HETATM   23  C19 UNL     1      30.341 -11.232 -31.231  1.00  0.00     0.048 C 
BRANCH  23  24
HETATM   24  C20 UNL     1      31.076 -11.768 -32.422  1.00  0.00     0.124 C 
BRANCH  24  25
HETATM   25  N7  UNL     1      31.603 -10.677 -33.233  1.00  0.00    -0.365 N 
HETATM   26  C21 UNL     1      32.385 -10.906 -34.356  1.00  0.00     0.181 C 
HETATM   27  N8  UNL     1      32.372 -12.041 -34.949  1.00  0.00    -0.374 N 
HETATM   28  N9  UNL     1      33.214  -9.880 -34.866  1.00  0.00    -0.064 NA
ATOM     29  H82 UNL     1      31.774 -12.780 -34.580  1.00  0.00     0.158 HD
ATOM     30  H81 UNL     1      32.947 -12.209 -35.775  1.00  0.00     0.158 HD
ATOM     31  H7  UNL     1      31.390  -9.716 -32.965  1.00  0.00     0.162 HD
ENDBRANCH  24  25
ENDBRANCH  23  24
ENDBRANCH  22  23
ENDBRANCH  16  22
ENDBRANCH  12  13
ENDBRANCH  11  12
BRANCH   1  32
HETATM   32  C9  UNL     1      31.620  -5.938 -24.547  1.00  0.00     0.122 C 
BRANCH  32  33
HETATM   33  C8  UNL     1      31.629  -5.855 -23.050  1.00  0.00     0.020 C 
BRANCH  33  34
HETATM   34  C7  UNL     1      31.126  -7.076 -22.359  1.00  0.00     0.002 C 
BRANCH  34  35
HETATM   35  C6  UNL     1      29.871  -6.902 -21.591  1.00  0.00     0.000 C 
BRANCH  35  36
HETATM   36  C5  UNL     1      28.769  -7.849 -22.003  1.00  0.00     0.000 C 
BRANCH  36  37
HETATM   37  C4  UNL     1      29.231  -9.260 -22.146  1.00  0.00     0.000 C 
BRANCH  37  38
HETATM   38  C3  UNL     1      28.058 -10.169 -21.846  1.00  0.00    -0.000 C 
BRANCH  38  39
HETATM   39  C2  UNL     1      26.795  -9.694 -22.530  1.00  0.00    -0.005 C 
HETATM   40  C1  UNL     1      26.583 -10.313 -23.875  1.00  0.00     0.005 C 
ENDBRANCH  38  39
ENDBRANCH  37  38
ENDBRANCH  36  37
ENDBRANCH  35  36
ENDBRANCH  34  35
ENDBRANCH  33  34
ENDBRANCH  32  33
ENDBRANCH   1  32
TORSDOF 14
ENDMDL
MODEL 2
REMARK VINA RESULT: -8.418529883      1.686      2.089
REMARK  14 active torsions:
REMARK  status: ('A' for Active; 'I' for Inactive)
REMARK    1  A    between atoms: C2_2  and  C3_3 
REMARK    2  A    between atoms: C3_3  and  C4_4 
REMARK    3  A    between atoms: C4_4  and  C5_5 
REMARK    4  A    between atoms: C5_5  and  C6_6 
REMARK    5  A    between atoms: C6_6  and  C7_7 
REMARK    6  A    between atoms: C7_7  and  C8_8 
REMARK    7  A    between atoms: C8_8  and  C9_9 
REMARK    8  A    between atoms: C9_9  and  N1_10 
REMARK       I    between atoms: C10_12  and  N3_14 
REMARK    9  A    between atoms: C14_20  and  C15_21 
REMARK   10  A    between atoms: C15_21  and  N5_22 
REMARK   11  A    between atoms: N6_25  and  C18_26 
REMARK   12  A    between atoms: C18_26  and  C19_27 
REMARK   13  A    between atoms: C19_27  and  C20_28 
REMARK   14  A    between atoms: C20_28  and  N7_29 
REMARK       I    between atoms: N7_29  and  C21_31 
ROOT
HETATM    1  N1  UNL     1      30.438  -5.849 -24.932  1.00  0.00    -0.364 N 
ATOM      2  H1  UNL     1      30.019  -4.920 -24.886  1.00  0.00     0.162 HD
HETATM    3  C10 UNL     1      29.755  -6.785 -25.474  1.00  0.00     0.187 C 
HETATM    4  N2  UNL     1      30.309  -8.081 -25.553  1.00  0.00    -0.064 NA
HETATM    5  N3  UNL     1      28.470  -6.555 -25.995  1.00  0.00    -0.343 N 
HETATM    6  C11 UNL     1      27.303  -7.064 -25.343  1.00  0.00     0.170 C 
HETATM    7  C12 UNL     1      26.445  -5.882 -24.957  1.00  0.00     0.075 C 
HETATM    8  N4  UNL     1      26.317  -4.918 -25.977  1.00  0.00    -0.399 N 
ATOM      9  H4  UNL     1      25.425  -4.453 -26.143  1.00  0.00     0.158 HD
HETATM   10  C13 UNL     1      27.455  -4.606 -26.770  1.00  0.00     0.145 C 
HETATM   11  C14 UNL     1      28.284  -5.771 -27.245  1.00  0.00     0.131 C 
ENDROOT
BRANCH  11  12
HETATM   12  C15 UNL     1      27.707  -6.669 -28.240  1.00  0.00     0.264 C 
BRANCH  12  13
HETATM   13  N5  UNL     1      28.450  -7.515 -29.078  1.00  0.00    -0.056 N 
HETATM   14  C16 UNL     1      29.857  -7.410 -29.139  1.00  0.00     0.266 C 
HETATM   15  C17 UNL     1      30.396  -8.237 -30.321  1.00  0.00     0.265 C 
HETATM   16  N6  UNL     1      29.576  -9.381 -30.503  1.00  0.00    -0.062 N 
HETATM   17  C22 UNL     1      29.249  -9.857 -29.154  1.00  0.00     0.265 C 
HETATM   18  C24 UNL     1      28.254  -8.913 -30.996  1.00  0.00     0.270 C 
HETATM   19  C23 UNL     1      28.237  -8.925 -28.548  1.00  0.00     0.266 C 
HETATM   20  C25 UNL     1      27.845  -7.603 -30.386  1.00  0.00     0.212 C 
HETATM   21  C26 UNL     1      28.048  -6.450 -31.295  1.00  0.00     0.042 C 
BRANCH  16  22
HETATM   22  C18 UNL     1      29.967 -10.369 -31.416  1.00  0.00     0.239 C 
BRANCH  22  23
HETATM   23  C19 UNL     1      30.051 -11.789 -31.071  1.00  0.00     0.048 C 
BRANCH  23  24
HETATM   24  C20 UNL     1      29.633 -12.732 -32.158  1.00  0.00     0.124 C 
BRANCH  24  25
HETATM   25  N7  UNL     1      28.264 -13.187 -31.942  1.00  0.00    -0.365 N 
HETATM   26  C21 UNL     1      27.393 -13.425 -32.995  1.00  0.00     0.181 C 
HETATM   27  N8  UNL     1      27.831 -13.626 -34.181  1.00  0.00    -0.374 N 
HETATM   28  N9  UNL     1      25.997 -13.450 -32.772  1.00  0.00    -0.064 NA
ATOM     29  H82 UNL     1      28.838 -13.607 -34.342  1.00  0.00     0.158 HD
ATOM     30  H81 UNL     1      27.191 -13.801 -34.956  1.00  0.00     0.158 HD
ATOM     31  H7  UNL     1      27.937 -13.334 -30.987  1.00  0.00     0.162 HD
ENDBRANCH  24  25
ENDBRANCH  23  24
ENDBRANCH  22  23
ENDBRANCH  16  22
ENDBRANCH  12  13
ENDBRANCH  11  12
BRANCH   1  32
HETATM   32  C9  UNL     1      31.754  -6.016 -24.382  1.00  0.00     0.122 C 
BRANCH  32  33
HETATM   33  C8  UNL     1      31.680  -5.867 -22.891  1.00  0.00     0.020 C 
BRANCH  33  34
HETATM   34  C7  UNL     1      31.138  -7.057 -22.177  1.00  0.00     0.002 C 
BRANCH  34  35
HETATM   35  C6  UNL     1      29.850  -6.845 -21.476  1.00  0.00     0.000 C 
BRANCH  35  36
HETATM   36  C5  UNL     1      28.753  -7.784 -21.921  1.00  0.00     0.000 C 
BRANCH  36  37
HETATM   37  C4  UNL     1      29.250  -9.152 -22.250  1.00  0.00     0.000 C 
BRANCH  37  38
HETATM   38  C3  UNL     1      28.161 -10.143 -21.896  1.00  0.00    -0.000 C 
BRANCH  38  39
HETATM   39  C2  UNL     1      26.824  -9.732 -22.472  1.00  0.00    -0.005 C 
HETATM   40  C1  UNL     1      26.546 -10.340 -23.810  1.00  0.00     0.005 C 
ENDBRANCH  38  39
ENDBRANCH  37  38
ENDBRANCH  36  37
ENDBRANCH  35  36
ENDBRANCH  34  35
ENDBRANCH  33  34
ENDBRANCH  32  33
ENDBRANCH   1  32
TORSDOF 14
ENDMDL
MODEL 3
REMARK VINA RESULT: -8.410226862      3.101      9.869
REMARK  14 active torsions:
REMARK  status: ('A' for Active; 'I' for Inactive)
REMARK    1  A    between atoms: C2_2  and  C3_3 
REMARK    2  A    between atoms: C3_3  and  C4_4 
REMARK    3  A    between atoms: C4_4  and  C5_5 
REMARK    4  A    between atoms: C5_5  and  C6_6 
REMARK    5  A    between atoms: C6_6  and  C7_7 
REMARK    6  A    between atoms: C7_7  and  C8_8 
REMARK    7  A    between atoms: C8_8  and  C9_9 
REMARK    8  A    between atoms: C9_9  and  N1_10 
REMARK       I    between atoms: C10_12  and  N3_14 
REMARK    9  A    between atoms: C14_20  and  C15_21 
REMARK   10  A    between atoms: C15_21  and  N5_22 
REMARK   11  A    between atoms: N6_25  and  C18_26 
REMARK   12  A    between atoms: C18_26  and  C19_27 
REMARK   13  A    between atoms: C19_27  and  C20_28 
REMARK   14  A    between atoms: C20_28  and  N7_29 
REMARK       I    between atoms: N7_29  and  C21_31 
ROOT
HETATM    1  N1  UNL     1      29.496 -10.113 -28.012  1.00  0.00    -0.364 N 
ATOM      2  H1  UNL     1      30.299 -10.624 -27.643  1.00  0.00     0.162 HD
HETATM    3  C10 UNL     1      28.696  -9.574 -27.171  1.00  0.00     0.187 C 
HETATM    4  N2  UNL     1      27.577  -8.860 -27.650  1.00  0.00    -0.064 NA
HETATM    5  N3  UNL     1      28.903  -9.675 -25.784  1.00  0.00    -0.343 N 
HETATM    6  C11 UNL     1      28.063 -10.493 -24.966  1.00  0.00     0.170 C 
HETATM    7  C12 UNL     1      28.938 -11.547 -24.327  1.00  0.00     0.075 C 
HETATM    8  N4  UNL     1      30.147 -11.041 -23.810  1.00  0.00    -0.399 N 
ATOM      9  H4  UNL     1      30.517 -11.384 -22.923  1.00  0.00     0.158 HD
HETATM   10  C13 UNL     1      30.843 -10.044 -24.547  1.00  0.00     0.145 C 
HETATM   11  C14 UNL     1      30.008  -8.929 -25.124  1.00  0.00     0.131 C 
ENDROOT
BRANCH  11  12
HETATM   12  C15 UNL     1      29.400  -7.974 -24.205  1.00  0.00     0.264 C 
BRANCH  12  13
HETATM   13  N5  UNL     1      29.029  -6.664 -24.545  1.00  0.00    -0.056 N 
HETATM   14  C16 UNL     1      29.154  -6.206 -25.874  1.00  0.00     0.266 C 
HETATM   15  C17 UNL     1      28.955  -4.679 -25.925  1.00  0.00     0.265 C 
HETATM   16  N6  UNL     1      28.017  -4.295 -24.932  1.00  0.00    -0.062 N 
HETATM   17  C22 UNL     1      26.979  -5.334 -24.941  1.00  0.00     0.265 C 
HETATM   18  C24 UNL     1      28.655  -4.508 -23.606  1.00  0.00     0.270 C 
HETATM   19  C23 UNL     1      27.532  -6.571 -24.292  1.00  0.00     0.266 C 
HETATM   20  C25 UNL     1      29.544  -5.718 -23.583  1.00  0.00     0.212 C 
HETATM   21  C26 UNL     1      30.984  -5.384 -23.680  1.00  0.00     0.042 C 
BRANCH  16  22
HETATM   22  C18 UNL     1      27.553  -2.975 -24.896  1.00  0.00     0.239 C 
BRANCH  22  23
HETATM   23  C19 UNL     1      27.183  -2.290 -23.657  1.00  0.00     0.048 C 
BRANCH  23  24
HETATM   24  C20 UNL     1      26.786  -0.854 -23.821  1.00  0.00     0.124 C 
BRANCH  24  25
HETATM   25  N7  UNL     1      25.474  -0.615 -23.231  1.00  0.00    -0.365 N 
HETATM   26  C21 UNL     1      25.012   0.664 -22.957  1.00  0.00     0.181 C 
HETATM   27  N8  UNL     1      25.521   1.688 -23.535  1.00  0.00    -0.374 N 
HETATM   28  N9  UNL     1      23.963   0.859 -22.029  1.00  0.00    -0.064 NA
ATOM     29  H82 UNL     1      26.278   1.548 -24.203  1.00  0.00     0.158 HD
ATOM     30  H81 UNL     1      25.181   2.628 -23.333  1.00  0.00     0.158 HD
ATOM     31  H7  UNL     1      24.878  -1.413 -23.012  1.00  0.00     0.162 HD
ENDBRANCH  24  25
ENDBRANCH  23  24
ENDBRANCH  22  23
ENDBRANCH  16  22
ENDBRANCH  12  13
ENDBRANCH  11  12
BRANCH   1  32
HETATM   32  C9  UNL     1      29.343 -10.048 -29.438  1.00  0.00     0.122 C 
BRANCH  32  33
HETATM   33  C8  UNL     1      30.546 -10.668 -30.084  1.00  0.00     0.020 C 
BRANCH  33  34
HETATM   34  C7  UNL     1      30.375 -12.097 -30.468  1.00  0.00     0.002 C 
BRANCH  34  35
HETATM   35  C6  UNL     1      31.027 -12.497 -31.738  1.00  0.00     0.000 C 
BRANCH  35  36
HETATM   36  C5  UNL     1      31.147 -11.373 -32.740  1.00  0.00     0.000 C 
BRANCH  36  37
HETATM   37  C4  UNL     1      30.426 -11.646 -34.017  1.00  0.00     0.000 C 
BRANCH  37  38
HETATM   38  C3  UNL     1      28.959 -11.341 -33.801  1.00  0.00    -0.000 C 
BRANCH  38  39
HETATM   39  C2  UNL     1      28.082 -12.512 -34.187  1.00  0.00    -0.005 C 
HETATM   40  C1  UNL     1      27.568 -13.278 -33.011  1.00  0.00     0.005 C 
ENDBRANCH  38  39
ENDBRANCH  37  38
ENDBRANCH  36  37
ENDBRANCH  35  36
ENDBRANCH  34  35
ENDBRANCH  33  34
ENDBRANCH  32  33
ENDBRANCH   1  32
TORSDOF 14
ENDMDL
MODEL 4
REMARK VINA RESULT: -8.403565739      2.032      3.010
REMARK  14 active torsions:
REMARK  status: ('A' for Active; 'I' for Inactive)
REMARK    1  A    between atoms: C2_2  and  C3_3 
REMARK    2  A    between atoms: C3_3  and  C4_4 
REMARK    3  A    between atoms: C4_4  and  C5_5 
REMARK    4  A    between atoms: C5_5  and  C6_6 
REMARK    5  A    between atoms: C6_6  and  C7_7 
REMARK    6  A    between atoms: C7_7  and  C8_8 
REMARK    7  A    between atoms: C8_8  and  C9_9 
REMARK    8  A    between atoms: C9_9  and  N1_10 
REMARK       I    between atoms: C10_12  and  N3_14 
REMARK    9  A    between atoms: C14_20  and  C15_21 
REMARK   10  A    between atoms: C15_21  and  N5_22 
REMARK   11  A    between atoms: N6_25  and  C18_26 
REMARK   12  A    between atoms: C18_26  and  C19_27 
REMARK   13  A    between atoms: C19_27  and  C20_28 
REMARK   14  A    between atoms: C20_28  and  N7_29 
REMARK       I    between atoms: N7_29  and  C21_31 
ROOT
HETATM    1  N1  UNL     1      28.479  -6.984 -22.908  1.00  0.00    -0.364 N 
ATOM      2  H1  UNL     1      29.198  -6.335 -22.585  1.00  0.00     0.162 HD
HETATM    3  C10 UNL     1      27.835  -6.678 -23.971  1.00  0.00     0.187 C 
HETATM    4  N2  UNL     1      26.836  -7.555 -24.443  1.00  0.00    -0.064 NA
HETATM    5  N3  UNL     1      28.099  -5.493 -24.679  1.00  0.00    -0.343 N 
HETATM    6  C11 UNL     1      27.175  -4.402 -24.671  1.00  0.00     0.170 C 
HETATM    7  C12 UNL     1      27.883  -3.210 -24.070  1.00  0.00     0.075 C 
HETATM    8  N4  UNL     1      29.190  -3.021 -24.562  1.00  0.00    -0.399 N 
ATOM      9  H4  UNL     1      29.543  -2.083 -24.754  1.00  0.00     0.158 HD
HETATM   10  C13 UNL     1      30.009  -4.162 -24.784  1.00  0.00     0.145 C 
HETATM   11  C14 UNL     1      29.354  -5.338 -25.463  1.00  0.00     0.131 C 
ENDROOT
BRANCH  11  12
HETATM   12  C15 UNL     1      28.978  -5.204 -26.866  1.00  0.00     0.264 C 
BRANCH  12  13
HETATM   13  N5  UNL     1      29.074  -6.230 -27.819  1.00  0.00    -0.056 N 
HETATM   14  C16 UNL     1      29.681  -5.991 -29.071  1.00  0.00     0.266 C 
HETATM   15  C17 UNL     1      29.407  -7.171 -30.022  1.00  0.00     0.265 C 
HETATM   16  N6  UNL     1      29.351  -8.374 -29.271  1.00  0.00    -0.062 N 
HETATM   17  C22 UNL     1      30.412  -8.265 -28.262  1.00  0.00     0.265 C 
HETATM   18  C24 UNL     1      28.123  -8.324 -28.435  1.00  0.00     0.270 C 
HETATM   19  C23 UNL     1      29.970  -7.294 -27.204  1.00  0.00     0.266 C 
HETATM   20  C25 UNL     1      27.822  -6.939 -27.938  1.00  0.00     0.212 C 
HETATM   21  C26 UNL     1      26.743  -6.269 -28.702  1.00  0.00     0.042 C 
BRANCH  16  22
HETATM   22  C18 UNL     1      29.277  -9.601 -29.942  1.00  0.00     0.239 C 
BRANCH  22  23
HETATM   23  C19 UNL     1      28.887  -9.723 -31.347  1.00  0.00     0.048 C 
BRANCH  23  24
HETATM   24  C20 UNL     1      29.467 -10.903 -32.066  1.00  0.00     0.124 C 
BRANCH  24  25
HETATM   25  N7  UNL     1      30.457 -10.471 -33.045  1.00  0.00    -0.365 N 
HETATM   26  C21 UNL     1      31.674 -11.119 -33.198  1.00  0.00     0.181 C 
HETATM   27  N8  UNL     1      31.841 -12.317 -32.779  1.00  0.00    -0.374 N 
HETATM   28  N9  UNL     1      32.758 -10.460 -33.823  1.00  0.00    -0.064 NA
ATOM     29  H82 UNL     1      31.060 -12.792 -32.328  1.00  0.00     0.158 HD
ATOM     30  H81 UNL     1      32.736 -12.794 -32.891  1.00  0.00     0.158 HD
ATOM     31  H7  UNL     1      30.247  -9.666 -33.637  1.00  0.00     0.162 HD
ENDBRANCH  24  25
ENDBRANCH  23  24
ENDBRANCH  22  23
ENDBRANCH  16  22
ENDBRANCH  12  13
ENDBRANCH  11  12
BRANCH   1  32
HETATM   32  C9  UNL     1      28.260  -8.176 -22.139  1.00  0.00     0.122 C 
BRANCH  32  33
HETATM   33  C8  UNL     1      29.526  -8.980 -22.117  1.00  0.00     0.020 C 
BRANCH  33  34
HETATM   34  C7  UNL     1      29.325 -10.449 -21.976  1.00  0.00     0.002 C 
BRANCH  34  35
HETATM   35  C6  UNL     1      28.707 -11.121 -23.144  1.00  0.00     0.000 C 
BRANCH  35  36
HETATM   36  C5  UNL     1      27.622 -12.105 -22.775  1.00  0.00     0.000 C 
BRANCH  36  37
HETATM   37  C4  UNL     1      26.822 -11.680 -21.589  1.00  0.00     0.000 C 
BRANCH  37  38
HETATM   38  C3  UNL     1      26.887 -12.789 -20.560  1.00  0.00    -0.000 C 
BRANCH  38  39
HETATM   39  C2  UNL     1      27.233 -14.119 -21.192  1.00  0.00    -0.005 C 
HETATM   40  C1  UNL     1      26.555 -15.279 -20.537  1.00  0.00     0.005 C 
ENDBRANCH  38  39
ENDBRANCH  37  38
ENDBRANCH  36  37
ENDBRANCH  35  36
ENDBRANCH  34  35
ENDBRANCH  33  34
ENDBRANCH  32  33
ENDBRANCH   1  32
TORSDOF 14
ENDMDL
MODEL 5
REMARK VINA RESULT: -8.376633482      3.049      9.201
REMARK  14 active torsions:
REMARK  status: ('A' for Active; 'I' for Inactive)
REMARK    1  A    between atoms: C2_2  and  C3_3 
REMARK    2  A    between atoms: C3_3  and  C4_4 
REMARK    3  A    between atoms: C4_4  and  C5_5 
REMARK    4  A    between atoms: C5_5  and  C6_6 
REMARK    5  A    between atoms: C6_6  and  C7_7 
REMARK    6  A    between atoms: C7_7  and  C8_8 
REMARK    7  A    between atoms: C8_8  and  C9_9 
REMARK    8  A    between atoms: C9_9  and  N1_10 
REMARK       I    between atoms: C10_12  and  N3_14 
REMARK    9  A    between atoms: C14_20  and  C15_21 
REMARK   10  A    between atoms: C15_21  and  N5_22 
REMARK   11  A    between atoms: N6_25  and  C18_26 
REMARK   12  A    between atoms: C18_26  and  C19_27 
REMARK   13  A    between atoms: C19_27  and  C20_28 
REMARK   14  A    between atoms: C20_28  and  N7_29 
REMARK       I    between atoms: N7_29  and  C21_31 
ROOT
HETATM    1  N1  UNL     1      29.581 -10.081 -28.066  1.00  0.00    -0.364 N 
ATOM      2  H1  UNL     1      30.374 -10.595 -27.681  1.00  0.00     0.162 HD
HETATM    3  C10 UNL     1      28.750  -9.564 -27.243  1.00  0.00     0.187 C 
HETATM    4  N2  UNL     1      27.643  -8.847 -27.745  1.00  0.00    -0.064 NA
HETATM    5  N3  UNL     1      28.911  -9.692 -25.852  1.00  0.00    -0.343 N 
HETATM    6  C11 UNL     1      28.049 -10.531 -25.079  1.00  0.00     0.170 C 
HETATM    7  C12 UNL     1      28.909 -11.592 -24.431  1.00  0.00     0.075 C 
HETATM    8  N4  UNL     1      30.097 -11.090 -23.864  1.00  0.00    -0.399 N 
ATOM      9  H4  UNL     1      30.440 -11.449 -22.972  1.00  0.00     0.158 HD
HETATM   10  C13 UNL     1      30.810 -10.074 -24.557  1.00  0.00     0.145 C 
HETATM   11  C14 UNL     1      29.989  -8.953 -25.140  1.00  0.00     0.131 C 
ENDROOT
BRANCH  11  12
HETATM   12  C15 UNL     1      29.344  -8.020 -24.223  1.00  0.00     0.264 C 
BRANCH  12  13
HETATM   13  N5  UNL     1      29.043  -6.683 -24.525  1.00  0.00    -0.056 N 
HETATM   14  C16 UNL     1      29.198  -6.193 -25.840  1.00  0.00     0.266 C 
HETATM   15  C17 UNL     1      29.079  -4.657 -25.846  1.00  0.00     0.265 C 
HETATM   16  N6  UNL     1      28.157  -4.255 -24.845  1.00  0.00    -0.062 N 
HETATM   17  C22 UNL     1      27.066  -5.237 -24.889  1.00  0.00     0.265 C 
HETATM   18  C24 UNL     1      28.776  -4.539 -23.524  1.00  0.00     0.270 C 
HETATM   19  C23 UNL     1      27.551  -6.520 -24.275  1.00  0.00     0.266 C 
HETATM   20  C25 UNL     1      29.602  -5.794 -23.534  1.00  0.00     0.212 C 
HETATM   21  C26 UNL     1      31.057  -5.532 -23.615  1.00  0.00     0.042 C 
BRANCH  16  22
HETATM   22  C18 UNL     1      27.761  -2.914 -24.772  1.00  0.00     0.239 C 
BRANCH  22  23
HETATM   23  C19 UNL     1      27.235  -2.300 -23.552  1.00  0.00     0.048 C 
BRANCH  23  24
HETATM   24  C20 UNL     1      26.637  -0.938 -23.734  1.00  0.00     0.124 C 
BRANCH  24  25
HETATM   25  N7  UNL     1      27.682   0.077 -23.796  1.00  0.00    -0.365 N 
HETATM   26  C21 UNL     1      27.841   0.903 -24.899  1.00  0.00     0.181 C 
HETATM   27  N8  UNL     1      26.884   1.085 -25.731  1.00  0.00    -0.374 N 
HETATM   28  N9  UNL     1      29.071   1.564 -25.123  1.00  0.00    -0.064 NA
ATOM     29  H82 UNL     1      25.997   0.608 -25.570  1.00  0.00     0.158 HD
ATOM     30  H81 UNL     1      27.001   1.692 -26.542  1.00  0.00     0.158 HD
ATOM     31  H7  UNL     1      28.317   0.181 -23.004  1.00  0.00     0.162 HD
ENDBRANCH  24  25
ENDBRANCH  23  24
ENDBRANCH  22  23
ENDBRANCH  16  22
ENDBRANCH  12  13
ENDBRANCH  11  12
BRANCH   1  32
HETATM   32  C9  UNL     1      29.476  -9.989 -29.495  1.00  0.00     0.122 C 
BRANCH  32  33
HETATM   33  C8  UNL     1      30.534  -9.054 -30.001  1.00  0.00     0.020 C 
BRANCH  33  34
HETATM   34  C7  UNL     1      30.064  -7.661 -30.244  1.00  0.00     0.002 C 
BRANCH  34  35
HETATM   35  C6  UNL     1      30.986  -6.591 -29.794  1.00  0.00     0.000 C 
BRANCH  35  36
HETATM   36  C5  UNL     1      30.728  -5.253 -30.444  1.00  0.00     0.000 C 
BRANCH  36  37
HETATM   37  C4  UNL     1      29.609  -5.285 -31.431  1.00  0.00     0.000 C 
BRANCH  37  38
HETATM   38  C3  UNL     1      29.989  -4.401 -32.599  1.00  0.00    -0.000 C 
BRANCH  38  39
HETATM   39  C2  UNL     1      28.772  -3.951 -33.378  1.00  0.00    -0.005 C 
HETATM   40  C1  UNL     1      27.481  -4.286 -32.702  1.00  0.00     0.005 C 
ENDBRANCH  38  39
ENDBRANCH  37  38
ENDBRANCH  36  37
ENDBRANCH  35  36
ENDBRANCH  34  35
ENDBRANCH  33  34
ENDBRANCH  32  33
ENDBRANCH   1  32
TORSDOF 14
ENDMDL
