MODEL 1
REMARK VINA RESULT: -7.939298812      0.000      0.000
REMARK  20 active torsions:
REMARK  status: ('A' for Active; 'I' for Inactive)
REMARK    1  A    between atoms: C2_2  and  C3_3 
REMARK    2  A    between atoms: C3_3  and  C4_4 
REMARK    3  A    between atoms: C4_4  and  C5_5 
REMARK    4  A    between atoms: C5_5  and  C6_6 
REMARK    5  A    between atoms: C6_6  and  C7_7 
REMARK    6  A    between atoms: C7_7  and  C8_8 
REMARK    7  A    between atoms: C8_8  and  C9_9 
REMARK    8  A    between atoms: C9_9  and  C10_10 
REMARK    9  A    between atoms: C10_10  and  N1_11 
REMARK       I    between atoms: N1_11  and  C11_13 
REMARK       I    between atoms: C11_13  and  N3_15 
REMARK   10  A    between atoms: N3_15  and  C12_16 
REMARK   11  A    between atoms: N3_15  and  C19_39 
REMARK   12  A    between atoms: C12_16  and  C13_17 
REMARK   13  A    between atoms: C13_17  and  N4_18 
REMARK   14  A    between atoms: N4_18  and  C14_20 
REMARK   15  A    between atoms: C14_20  and  N5_22 
REMARK       I    between atoms: N5_22  and  C15_24 
REMARK       I    between atoms: C15_24  and  N7_26 
REMARK   16  A    between atoms: N7_26  and  C16_28 
REMARK   17  A    between atoms: C16_28  and  C17_29 
REMARK   18  A    between atoms: C17_29  and  N8_30 
REMARK   19  A    between atoms: C17_29  and  N10_35 
REMARK   20  A    between atoms: C19_39  and  C20_40 
ROOT
HETATM    1  N10 UNL     1      24.746   1.446 -22.242  1.00  0.00    -0.280 N 
ATOM      2  H10 UNL     1      24.158   1.691 -23.038  1.00  0.00     0.179 HD
HETATM    3  C18 UNL     1      24.359   1.878 -20.973  1.00  0.00     0.183 C 
HETATM    4  N11 UNL     1      24.014   2.238 -19.914  1.00  0.00    -0.172 NA
ENDROOT
BRANCH   1   5
HETATM    5  C17 UNL     1      25.918   0.682 -22.481  1.00  0.00     0.122 C 
BRANCH   5   6
HETATM    6  C16 UNL     1      25.912  -0.203 -23.675  1.00  0.00     0.200 C 
BRANCH   6   7
HETATM    7  N7  UNL     1      26.431  -1.513 -23.366  1.00  0.00    -0.357 N 
HETATM    8  C15 UNL     1      27.240  -2.147 -24.340  1.00  0.00     0.190 C 
HETATM    9  N5  UNL     1      26.898  -3.250 -24.824  1.00  0.00    -0.307 N 
HETATM   10  N6  UNL     1      28.419  -1.484 -24.722  1.00  0.00    -0.063 NA
ATOM     11  H5  UNL     1      26.018  -3.595 -24.440  1.00  0.00     0.171 HD
ATOM     12  H7  UNL     1      26.224  -1.967 -22.476  1.00  0.00     0.162 HD
BRANCH   9  13
HETATM   13  C14 UNL     1      27.444  -4.103 -25.760  1.00  0.00     0.177 C 
HETATM   14  S1  UNL     1      26.646  -4.393 -27.161  1.00  0.00    -0.040 SA
BRANCH  13  15
HETATM   15  N4  UNL     1      28.696  -4.766 -25.560  1.00  0.00    -0.345 N 
ATOM     16  H4  UNL     1      29.431  -4.235 -25.093  1.00  0.00     0.167 HD
BRANCH  15  17
HETATM   17  C13 UNL     1      29.009  -6.083 -25.947  1.00  0.00     0.083 C 
BRANCH  17  18
HETATM   18  C12 UNL     1      30.023  -6.385 -26.972  1.00  0.00     0.170 C 
BRANCH  18  19
HETATM   19  N3  UNL     1      29.912  -7.602 -27.702  1.00  0.00    -0.343 N 
HETATM   20  C11 UNL     1      30.726  -8.765 -27.418  1.00  0.00     0.186 C 
HETATM   21  N1  UNL     1      30.881  -9.349 -26.349  1.00  0.00    -0.365 N 
HETATM   22  N2  UNL     1      31.440  -9.283 -28.571  1.00  0.00    -0.064 NA
ATOM     23  H1  UNL     1      31.517 -10.138 -26.469  1.00  0.00     0.162 HD
BRANCH  21  24
HETATM   24  C10 UNL     1      30.457  -9.271 -25.021  1.00  0.00     0.122 C 
BRANCH  24  25
HETATM   25  C9  UNL     1      31.658  -8.978 -24.099  1.00  0.00     0.020 C 
BRANCH  25  26
HETATM   26  C8  UNL     1      31.624  -7.500 -23.859  1.00  0.00     0.002 C 
BRANCH  26  27
HETATM   27  C7  UNL     1      31.357  -7.114 -22.434  1.00  0.00     0.000 C 
BRANCH  27  28
HETATM   28  C6  UNL     1      29.929  -6.704 -22.242  1.00  0.00     0.000 C 
BRANCH  28  29
HETATM   29  C5  UNL     1      29.169  -7.680 -21.390  1.00  0.00     0.000 C 
BRANCH  29  30
HETATM   30  C4  UNL     1      28.230  -8.553 -22.167  1.00  0.00     0.000 C 
BRANCH  30  31
HETATM   31  C3  UNL     1      28.593 -10.004 -21.829  1.00  0.00    -0.000 C 
BRANCH  31  32
HETATM   32  C2  UNL     1      27.371 -10.836 -22.217  1.00  0.00    -0.005 C 
HETATM   33  C1  UNL     1      27.007 -11.783 -21.096  1.00  0.00     0.005 C 
ENDBRANCH  31  32
ENDBRANCH  30  31
ENDBRANCH  29  30
ENDBRANCH  28  29
ENDBRANCH  27  28
ENDBRANCH  26  27
ENDBRANCH  25  26
ENDBRANCH  24  25
ENDBRANCH  21  24
BRANCH  19  34
HETATM   34  C19 UNL     1      29.023  -7.758 -28.827  1.00  0.00     0.225 C 
BRANCH  34  35
HETATM   35  C20 UNL     1      27.699  -8.326 -28.425  1.00  0.00     0.249 C 
HETATM   36  N12 UNL     1      27.665  -9.302 -27.395  1.00  0.00    -0.061 NA
HETATM   37  O1  UNL     1      26.613  -7.992 -28.944  1.00  0.00    -0.275 OA
ENDBRANCH  34  35
ENDBRANCH  19  34
ENDBRANCH  18  19
ENDBRANCH  17  18
ENDBRANCH  15  17
ENDBRANCH  13  15
ENDBRANCH   9  13
ENDBRANCH   6   7
ENDBRANCH   5   6
BRANCH   5  38
HETATM   38  N8  UNL     1      26.913   0.773 -21.696  1.00  0.00    -0.294 N 
HETATM   39  N9  UNL     1      28.098   1.110 -21.474  1.00  0.00    -0.344 N 
ATOM     40  H92 UNL     1      28.391   1.498 -22.371  1.00  0.00     0.176 HD
ATOM     41  H91 UNL     1      28.897   1.184 -20.844  1.00  0.00     0.176 HD
ATOM     42  H8  UNL     1      26.585   0.378 -20.815  1.00  0.00     0.187 HD
ENDBRANCH   5  38
ENDBRANCH   1   5
TORSDOF 20
ENDMDL
MODEL 2
REMARK VINA RESULT: -7.926910673      3.522      7.517
REMARK  20 active torsions:
REMARK  status: ('A' for Active; 'I' for Inactive)
REMARK    1  A    between atoms: C2_2  and  C3_3 
REMARK    2  A    between atoms: C3_3  and  C4_4 
REMARK    3  A    between atoms: C4_4  and  C5_5 
REMARK    4  A    between atoms: C5_5  and  C6_6 
REMARK    5  A    between atoms: C6_6  and  C7_7 
REMARK    6  A    between atoms: C7_7  and  C8_8 
REMARK    7  A    between atoms: C8_8  and  C9_9 
REMARK    8  A    between atoms: C9_9  and  C10_10 
REMARK    9  A    between atoms: C10_10  and  N1_11 
REMARK       I    between atoms: N1_11  and  C11_13 
REMARK       I    between atoms: C11_13  and  N3_15 
REMARK   10  A    between atoms: N3_15  and  C12_16 
REMARK   11  A    between atoms: N3_15  and  C19_39 
REMARK   12  A    between atoms: C12_16  and  C13_17 
REMARK   13  A    between atoms: C13_17  and  N4_18 
REMARK   14  A    between atoms: N4_18  and  C14_20 
REMARK   15  A    between atoms: C14_20  and  N5_22 
REMARK       I    between atoms: N5_22  and  C15_24 
REMARK       I    between atoms: C15_24  and  N7_26 
REMARK   16  A    between atoms: N7_26  and  C16_28 
REMARK   17  A    between atoms: C16_28  and  C17_29 
REMARK   18  A    between atoms: C17_29  and  N8_30 
REMARK   19  A    between atoms: C17_29  and  N10_35 
REMARK   20  A    between atoms: C19_39  and  C20_40 
ROOT
HETATM    1  N10 UNL     1      26.810  -5.813 -32.839  1.00  0.00    -0.280 N 
ATOM      2  H10 UNL     1      27.106  -6.434 -33.592  1.00  0.00     0.179 HD
HETATM    3  C18 UNL     1      27.676  -4.792 -32.442  1.00  0.00     0.183 C 
HETATM    4  N11 UNL     1      28.408  -3.934 -32.130  1.00  0.00    -0.172 NA
ENDROOT
BRANCH   1   5
HETATM    5  C17 UNL     1      25.539  -6.030 -32.247  1.00  0.00     0.122 C 
BRANCH   5   6
HETATM    6  C16 UNL     1      25.229  -5.257 -31.017  1.00  0.00     0.200 C 
BRANCH   6   7
HETATM    7  N7  UNL     1      25.622  -5.973 -29.828  1.00  0.00    -0.357 N 
HETATM    8  C15 UNL     1      26.825  -5.583 -29.192  1.00  0.00     0.190 C 
HETATM    9  N5  UNL     1      27.761  -6.403 -29.055  1.00  0.00    -0.307 N 
HETATM   10  N6  UNL     1      26.906  -4.258 -28.733  1.00  0.00    -0.063 NA
ATOM     11  H5  UNL     1      27.542  -7.322 -29.440  1.00  0.00     0.171 HD
ATOM     12  H7  UNL     1      25.052  -6.734 -29.458  1.00  0.00     0.162 HD
BRANCH   9  13
HETATM   13  C14 UNL     1      29.022  -6.344 -28.499  1.00  0.00     0.177 C 
HETATM   14  S1  UNL     1      30.294  -5.867 -29.416  1.00  0.00    -0.040 SA
BRANCH  13  15
HETATM   15  N4  UNL     1      29.280  -6.690 -27.136  1.00  0.00    -0.345 N 
ATOM     16  H4  UNL     1      28.844  -7.543 -26.785  1.00  0.00     0.167 HD
BRANCH  15  17
HETATM   17  C13 UNL     1      30.080  -5.964 -26.231  1.00  0.00     0.083 C 
BRANCH  17  18
HETATM   18  C12 UNL     1      29.639  -4.695 -25.629  1.00  0.00     0.170 C 
BRANCH  18  19
HETATM   19  N3  UNL     1      28.355  -4.642 -25.017  1.00  0.00    -0.343 N 
HETATM   20  C11 UNL     1      27.802  -5.744 -24.258  1.00  0.00     0.186 C 
HETATM   21  N1  UNL     1      28.297  -6.346 -23.309  1.00  0.00    -0.365 N 
HETATM   22  N2  UNL     1      26.487  -6.169 -24.703  1.00  0.00    -0.064 NA
ATOM     23  H1  UNL     1      27.662  -7.075 -22.985  1.00  0.00     0.162 HD
BRANCH  21  24
HETATM   24  C10 UNL     1      29.459  -6.342 -22.534  1.00  0.00     0.122 C 
BRANCH  24  25
HETATM   25  C9  UNL     1      29.344  -7.384 -21.403  1.00  0.00     0.020 C 
BRANCH  25  26
HETATM   26  C8  UNL     1      28.465  -8.468 -21.948  1.00  0.00     0.002 C 
BRANCH  26  27
HETATM   27  C7  UNL     1      28.875  -9.854 -21.543  1.00  0.00     0.000 C 
BRANCH  27  28
HETATM   28  C6  UNL     1      28.314 -10.880 -22.479  1.00  0.00     0.000 C 
BRANCH  28  29
HETATM   29  C5  UNL     1      28.306 -10.404 -23.903  1.00  0.00     0.000 C 
BRANCH  29  30
HETATM   30  C4  UNL     1      29.528 -10.801 -24.676  1.00  0.00     0.000 C 
BRANCH  30  31
HETATM   31  C3  UNL     1      30.161  -9.505 -25.198  1.00  0.00    -0.000 C 
BRANCH  31  32
HETATM   32  C2  UNL     1      31.653  -9.620 -24.887  1.00  0.00    -0.005 C 
HETATM   33  C1  UNL     1      31.922  -9.200 -23.459  1.00  0.00     0.005 C 
ENDBRANCH  31  32
ENDBRANCH  30  31
ENDBRANCH  29  30
ENDBRANCH  28  29
ENDBRANCH  27  28
ENDBRANCH  26  27
ENDBRANCH  25  26
ENDBRANCH  24  25
ENDBRANCH  21  24
BRANCH  19  34
HETATM   34  C19 UNL     1      27.470  -3.511 -25.155  1.00  0.00     0.225 C 
BRANCH  34  35
HETATM   35  C20 UNL     1      27.937  -2.330 -24.363  1.00  0.00     0.249 C 
HETATM   36  N12 UNL     1      27.586  -2.254 -22.990  1.00  0.00    -0.061 NA
HETATM   37  O1  UNL     1      28.623  -1.402 -24.840  1.00  0.00    -0.275 OA
ENDBRANCH  34  35
ENDBRANCH  19  34
ENDBRANCH  18  19
ENDBRANCH  17  18
ENDBRANCH  15  17
ENDBRANCH  13  15
ENDBRANCH   9  13
ENDBRANCH   6   7
ENDBRANCH   5   6
BRANCH   5  38
HETATM   38  N8  UNL     1      24.722  -6.852 -32.769  1.00  0.00    -0.294 N 
HETATM   39  N9  UNL     1      23.601  -7.107 -33.264  1.00  0.00    -0.344 N 
ATOM     40  H92 UNL     1      23.126  -6.205 -33.218  1.00  0.00     0.176 HD
ATOM     41  H91 UNL     1      22.945  -7.766 -33.683  1.00  0.00     0.176 HD
ATOM     42  H8  UNL     1      25.228  -7.737 -32.799  1.00  0.00     0.187 HD
ENDBRANCH   5  38
ENDBRANCH   1   5
TORSDOF 20
ENDMDL
MODEL 3
REMARK VINA RESULT: -7.857174004      3.703      9.656
REMARK  20 active torsions:
REMARK  status: ('A' for Active; 'I' for Inactive)
REMARK    1  A    between atoms: C2_2  and  C3_3 
REMARK    2  A    between atoms: C3_3  and  C4_4 
REMARK    3  A    between atoms: C4_4  and  C5_5 
REMARK    4  A    between atoms: C5_5  and  C6_6 
REMARK    5  A    between atoms: C6_6  and  C7_7 
REMARK    6  A    between atoms: C7_7  and  C8_8 
REMARK    7  A    between atoms: C8_8  and  C9_9 
REMARK    8  A    between atoms: C9_9  and  C10_10 
REMARK    9  A    between atoms: C10_10  and  N1_11 
REMARK       I    between atoms: N1_11  and  C11_13 
REMARK       I    between atoms: C11_13  and  N3_15 
REMARK   10  A    between atoms: N3_15  and  C12_16 
REMARK   11  A    between atoms: N3_15  and  C19_39 
REMARK   12  A    between atoms: C12_16  and  C13_17 
REMARK   13  A    between atoms: C13_17  and  N4_18 
REMARK   14  A    between atoms: N4_18  and  C14_20 
REMARK   15  A    between atoms: C14_20  and  N5_22 
REMARK       I    between atoms: N5_22  and  C15_24 
REMARK       I    between atoms: C15_24  and  N7_26 
REMARK   16  A    between atoms: N7_26  and  C16_28 
REMARK   17  A    between atoms: C16_28  and  C17_29 
REMARK   18  A    between atoms: C17_29  and  N8_30 
REMARK   19  A    between atoms: C17_29  and  N10_35 
REMARK   20  A    between atoms: C19_39  and  C20_40 
ROOT
HETATM    1  N10 UNL     1      31.809 -11.923 -33.157  1.00  0.00    -0.280 N 
ATOM      2  H10 UNL     1      32.350 -12.666 -32.715  1.00  0.00     0.179 HD
HETATM    3  C18 UNL     1      32.449 -11.101 -34.087  1.00  0.00     0.183 C 
HETATM    4  N11 UNL     1      32.997 -10.429 -34.872  1.00  0.00    -0.172 NA
ENDROOT
BRANCH   1   5
HETATM    5  C17 UNL     1      30.444 -11.778 -32.797  1.00  0.00     0.122 C 
BRANCH   5   6
HETATM    6  C16 UNL     1      30.159 -11.125 -31.494  1.00  0.00     0.200 C 
BRANCH   6   7
HETATM    7  N7  UNL     1      30.315  -9.693 -31.573  1.00  0.00    -0.357 N 
HETATM    8  C15 UNL     1      30.158  -8.947 -30.379  1.00  0.00     0.190 C 
HETATM    9  N5  UNL     1      29.272  -8.065 -30.298  1.00  0.00    -0.307 N 
HETATM   10  N6  UNL     1      31.031  -9.244 -29.319  1.00  0.00    -0.063 NA
ATOM     11  H5  UNL     1      28.725  -7.973 -31.154  1.00  0.00     0.171 HD
ATOM     12  H7  UNL     1      30.532  -9.233 -32.457  1.00  0.00     0.162 HD
BRANCH   9  13
HETATM   13  C14 UNL     1      28.871  -7.190 -29.310  1.00  0.00     0.177 C 
HETATM   14  S1  UNL     1      28.308  -5.706 -29.718  1.00  0.00    -0.040 SA
BRANCH  13  15
HETATM   15  N4  UNL     1      28.929  -7.519 -27.920  1.00  0.00    -0.345 N 
ATOM     16  H4  UNL     1      29.571  -8.263 -27.647  1.00  0.00     0.167 HD
BRANCH  15  17
HETATM   17  C13 UNL     1      28.182  -6.912 -26.891  1.00  0.00     0.083 C 
BRANCH  17  18
HETATM   18  C12 UNL     1      28.673  -6.824 -25.505  1.00  0.00     0.170 C 
BRANCH  18  19
HETATM   19  N3  UNL     1      29.088  -5.557 -25.009  1.00  0.00    -0.343 N 
HETATM   20  C11 UNL     1      28.819  -5.118 -23.656  1.00  0.00     0.186 C 
HETATM   21  N1  UNL     1      29.083  -5.686 -22.600  1.00  0.00    -0.365 N 
HETATM   22  N2  UNL     1      28.150  -3.832 -23.572  1.00  0.00    -0.064 NA
ATOM     23  H1  UNL     1      28.768  -5.122 -21.810  1.00  0.00     0.162 HD
BRANCH  21  24
HETATM   24  C10 UNL     1      29.680  -6.862 -22.143  1.00  0.00     0.122 C 
BRANCH  24  25
HETATM   25  C9  UNL     1      31.197  -6.830 -22.425  1.00  0.00     0.020 C 
BRANCH  25  26
HETATM   26  C8  UNL     1      31.443  -7.935 -23.405  1.00  0.00     0.002 C 
BRANCH  26  27
HETATM   27  C7  UNL     1      30.646  -9.179 -23.143  1.00  0.00     0.000 C 
BRANCH  27  28
HETATM   28  C6  UNL     1      30.638 -10.080 -24.339  1.00  0.00     0.000 C 
BRANCH  28  29
HETATM   29  C5  UNL     1      29.603 -11.163 -24.227  1.00  0.00     0.000 C 
BRANCH  29  30
HETATM   30  C4  UNL     1      28.809 -11.107 -22.956  1.00  0.00     0.000 C 
BRANCH  30  31
HETATM   31  C3  UNL     1      27.362 -11.454 -23.323  1.00  0.00    -0.000 C 
BRANCH  31  32
HETATM   32  C2  UNL     1      26.499 -10.379 -22.661  1.00  0.00    -0.005 C 
HETATM   33  C1  UNL     1      26.812  -9.023 -23.252  1.00  0.00     0.005 C 
ENDBRANCH  31  32
ENDBRANCH  30  31
ENDBRANCH  29  30
ENDBRANCH  28  29
ENDBRANCH  27  28
ENDBRANCH  26  27
ENDBRANCH  25  26
ENDBRANCH  24  25
ENDBRANCH  21  24
BRANCH  19  34
HETATM   34  C19 UNL     1      29.754  -4.577 -25.832  1.00  0.00     0.225 C 
BRANCH  34  35
HETATM   35  C20 UNL     1      31.157  -4.980 -26.163  1.00  0.00     0.249 C 
HETATM   36  N12 UNL     1      31.444  -5.410 -27.485  1.00  0.00    -0.061 NA
HETATM   37  O1  UNL     1      32.098  -4.959 -25.343  1.00  0.00    -0.275 OA
ENDBRANCH  34  35
ENDBRANCH  19  34
ENDBRANCH  18  19
ENDBRANCH  17  18
ENDBRANCH  15  17
ENDBRANCH  13  15
ENDBRANCH   9  13
ENDBRANCH   6   7
ENDBRANCH   5   6
BRANCH   5  38
HETATM   38  N8  UNL     1      29.529 -12.192 -33.576  1.00  0.00    -0.294 N 
HETATM   39  N9  UNL     1      28.964 -12.187 -34.693  1.00  0.00    -0.344 N 
ATOM     40  H92 UNL     1      29.525 -11.520 -35.223  1.00  0.00     0.176 HD
ATOM     41  H91 UNL     1      28.230 -12.520 -35.318  1.00  0.00     0.176 HD
ATOM     42  H8  UNL     1      28.992 -12.854 -33.015  1.00  0.00     0.187 HD
ENDBRANCH   5  38
ENDBRANCH   1   5
TORSDOF 20
ENDMDL
MODEL 4
REMARK VINA RESULT: -7.839025610      3.177      7.925
REMARK  20 active torsions:
REMARK  status: ('A' for Active; 'I' for Inactive)
REMARK    1  A    between atoms: C2_2  and  C3_3 
REMARK    2  A    between atoms: C3_3  and  C4_4 
REMARK    3  A    between atoms: C4_4  and  C5_5 
REMARK    4  A    between atoms: C5_5  and  C6_6 
REMARK    5  A    between atoms: C6_6  and  C7_7 
REMARK    6  A    between atoms: C7_7  and  C8_8 
REMARK    7  A    between atoms: C8_8  and  C9_9 
REMARK    8  A    between atoms: C9_9  and  C10_10 
REMARK    9  A    between atoms: C10_10  and  N1_11 
REMARK       I    between atoms: N1_11  and  C11_13 
REMARK       I    between atoms: C11_13  and  N3_15 
REMARK   10  A    between atoms: N3_15  and  C12_16 
REMARK   11  A    between atoms: N3_15  and  C19_39 
REMARK   12  A    between atoms: C12_16  and  C13_17 
REMARK   13  A    between atoms: C13_17  and  N4_18 
REMARK   14  A    between atoms: N4_18  and  C14_20 
REMARK   15  A    between atoms: C14_20  and  N5_22 
REMARK       I    between atoms: N5_22  and  C15_24 
REMARK       I    between atoms: C15_24  and  N7_26 
REMARK   16  A    between atoms: N7_26  and  C16_28 
REMARK   17  A    between atoms: C16_28  and  C17_29 
REMARK   18  A    between atoms: C17_29  and  N8_30 
REMARK   19  A    between atoms: C17_29  and  N10_35 
REMARK   20  A    between atoms: C19_39  and  C20_40 
ROOT
HETATM    1  N10 UNL     1      29.523 -10.055 -28.106  1.00  0.00    -0.280 N 
ATOM      2  H10 UNL     1      30.095 -10.471 -27.372  1.00  0.00     0.179 HD
HETATM    3  C18 UNL     1      28.455  -9.238 -27.731  1.00  0.00     0.183 C 
HETATM    4  N11 UNL     1      27.572  -8.545 -27.400  1.00  0.00    -0.172 NA
ENDROOT
BRANCH   1   5
HETATM    5  C17 UNL     1      29.851 -10.338 -29.457  1.00  0.00     0.122 C 
BRANCH   5   6
HETATM    6  C16 UNL     1      30.310  -9.196 -30.290  1.00  0.00     0.200 C 
BRANCH   6   7
HETATM    7  N7  UNL     1      29.260  -8.716 -31.156  1.00  0.00    -0.357 N 
HETATM    8  C15 UNL     1      28.618  -7.505 -30.802  1.00  0.00     0.190 C 
HETATM    9  N5  UNL     1      27.385  -7.483 -30.587  1.00  0.00    -0.307 N 
HETATM   10  N6  UNL     1      29.423  -6.356 -30.711  1.00  0.00    -0.063 NA
ATOM     11  H5  UNL     1      26.948  -8.399 -30.696  1.00  0.00     0.171 HD
ATOM     12  H7  UNL     1      28.990  -9.231 -31.994  1.00  0.00     0.162 HD
BRANCH   9  13
HETATM   13  C14 UNL     1      26.484  -6.500 -30.235  1.00  0.00     0.177 C 
HETATM   14  S1  UNL     1      25.535  -5.817 -31.383  1.00  0.00    -0.040 SA
BRANCH  13  15
HETATM   15  N4  UNL     1      26.340  -6.032 -28.892  1.00  0.00    -0.345 N 
ATOM     16  H4  UNL     1      25.797  -6.615 -28.255  1.00  0.00     0.167 HD
BRANCH  15  17
HETATM   17  C13 UNL     1      26.878  -4.842 -28.364  1.00  0.00     0.083 C 
BRANCH  17  18
HETATM   18  C12 UNL     1      27.995  -4.837 -27.404  1.00  0.00     0.170 C 
BRANCH  18  19
HETATM   19  N3  UNL     1      27.697  -4.780 -26.014  1.00  0.00    -0.343 N 
HETATM   20  C11 UNL     1      27.899  -5.902 -25.121  1.00  0.00     0.186 C 
HETATM   21  N1  UNL     1      28.919  -6.560 -24.937  1.00  0.00    -0.365 N 
HETATM   22  N2  UNL     1      26.721  -6.270 -24.357  1.00  0.00    -0.064 NA
ATOM     23  H1  UNL     1      28.747  -7.287 -24.243  1.00  0.00     0.162 HD
BRANCH  21  24
HETATM   24  C10 UNL     1      30.240  -6.624 -25.383  1.00  0.00     0.122 C 
BRANCH  24  25
HETATM   25  C9  UNL     1      30.754  -8.077 -25.309  1.00  0.00     0.020 C 
BRANCH  25  26
HETATM   26  C8  UNL     1      31.389  -8.206 -23.958  1.00  0.00     0.002 C 
BRANCH  26  27
HETATM   27  C7  UNL     1      31.486  -9.617 -23.457  1.00  0.00     0.000 C 
BRANCH  27  28
HETATM   28  C6  UNL     1      30.134 -10.164 -23.113  1.00  0.00     0.000 C 
BRANCH  28  29
HETATM   29  C5  UNL     1      29.634 -11.132 -24.147  1.00  0.00     0.000 C 
BRANCH  29  30
HETATM   30  C4  UNL     1      28.192 -10.934 -24.509  1.00  0.00     0.000 C 
BRANCH  30  31
HETATM   31  C3  UNL     1      27.704  -9.710 -23.725  1.00  0.00    -0.000 C 
BRANCH  31  32
HETATM   32  C2  UNL     1      26.303 -10.069 -23.231  1.00  0.00    -0.005 C 
HETATM   33  C1  UNL     1      26.382 -10.742 -21.879  1.00  0.00     0.005 C 
ENDBRANCH  31  32
ENDBRANCH  30  31
ENDBRANCH  29  30
ENDBRANCH  28  29
ENDBRANCH  27  28
ENDBRANCH  26  27
ENDBRANCH  25  26
ENDBRANCH  24  25
ENDBRANCH  21  24
BRANCH  19  34
HETATM   34  C19 UNL     1      27.107  -3.621 -25.389  1.00  0.00     0.225 C 
BRANCH  34  35
HETATM   35  C20 UNL     1      28.077  -2.903 -24.504  1.00  0.00     0.249 C 
HETATM   36  N12 UNL     1      27.689  -2.612 -23.170  1.00  0.00    -0.061 NA
HETATM   37  O1  UNL     1      29.216  -2.543 -24.869  1.00  0.00    -0.275 OA
ENDBRANCH  34  35
ENDBRANCH  19  34
ENDBRANCH  18  19
ENDBRANCH  17  18
ENDBRANCH  15  17
ENDBRANCH  13  15
ENDBRANCH   9  13
ENDBRANCH   6   7
ENDBRANCH   5   6
BRANCH   5  38
HETATM   38  N8  UNL     1      29.750 -11.522 -29.906  1.00  0.00    -0.294 N 
HETATM   39  N9  UNL     1      29.985 -12.748 -29.808  1.00  0.00    -0.344 N 
ATOM     40  H92 UNL     1      30.516 -12.804 -28.939  1.00  0.00     0.176 HD
ATOM     41  H91 UNL     1      29.905 -13.699 -30.168  1.00  0.00     0.176 HD
ATOM     42  H8  UNL     1      29.217 -11.428 -30.770  1.00  0.00     0.187 HD
ENDBRANCH   5  38
ENDBRANCH   1   5
TORSDOF 20
ENDMDL
MODEL 5
REMARK VINA RESULT: -7.833092500      5.096      9.630
REMARK  20 active torsions:
REMARK  status: ('A' for Active; 'I' for Inactive)
REMARK    1  A    between atoms: C2_2  and  C3_3 
REMARK    2  A    between atoms: C3_3  and  C4_4 
REMARK    3  A    between atoms: C4_4  and  C5_5 
REMARK    4  A    between atoms: C5_5  and  C6_6 
REMARK    5  A    between atoms: C6_6  and  C7_7 
REMARK    6  A    between atoms: C7_7  and  C8_8 
REMARK    7  A    between atoms: C8_8  and  C9_9 
REMARK    8  A    between atoms: C9_9  and  C10_10 
REMARK    9  A    between atoms: C10_10  and  N1_11 
REMARK       I    between atoms: N1_11  and  C11_13 
REMARK       I    between atoms: C11_13  and  N3_15 
REMARK   10  A    between atoms: N3_15  and  C12_16 
REMARK   11  A    between atoms: N3_15  and  C19_39 
REMARK   12  A    between atoms: C12_16  and  C13_17 
REMARK   13  A    between atoms: C13_17  and  N4_18 
REMARK   14  A    between atoms: N4_18  and  C14_20 
REMARK   15  A    between atoms: C14_20  and  N5_22 
REMARK       I    between atoms: N5_22  and  C15_24 
REMARK       I    between atoms: C15_24  and  N7_26 
REMARK   16  A    between atoms: N7_26  and  C16_28 
REMARK   17  A    between atoms: C16_28  and  C17_29 
REMARK   18  A    between atoms: C17_29  and  N8_30 
REMARK   19  A    between atoms: C17_29  and  N10_35 
REMARK   20  A    between atoms: C19_39  and  C20_40 
ROOT
HETATM    1  N10 UNL     1      30.700 -11.942 -33.554  1.00  0.00    -0.280 N 
ATOM      2  H10 UNL     1      30.388 -12.402 -34.409  1.00  0.00     0.179 HD
HETATM    3  C18 UNL     1      31.803 -11.089 -33.625  1.00  0.00     0.183 C 
HETATM    4  N11 UNL     1      32.721 -10.367 -33.703  1.00  0.00    -0.172 NA
ENDROOT
BRANCH   1   5
HETATM    5  C17 UNL     1      29.992 -12.202 -32.353  1.00  0.00     0.122 C 
BRANCH   5   6
HETATM    6  C16 UNL     1      30.350 -11.379 -31.169  1.00  0.00     0.200 C 
BRANCH   6   7
HETATM    7  N7  UNL     1      29.196 -10.710 -30.620  1.00  0.00    -0.357 N 
HETATM    8  C15 UNL     1      28.577  -9.710 -31.409  1.00  0.00     0.190 C 
HETATM    9  N5  UNL     1      28.492  -8.535 -30.984  1.00  0.00    -0.307 N 
HETATM   10  N6  UNL     1      28.077 -10.101 -32.662  1.00  0.00    -0.063 NA
ATOM     11  H5  UNL     1      28.902  -8.417 -30.058  1.00  0.00     0.171 HD
ATOM     12  H7  UNL     1      28.837 -10.950 -29.696  1.00  0.00     0.162 HD
BRANCH   9  13
HETATM   13  C14 UNL     1      27.966  -7.363 -31.489  1.00  0.00     0.177 C 
HETATM   14  S1  UNL     1      26.357  -7.252 -31.779  1.00  0.00    -0.040 SA
BRANCH  13  15
HETATM   15  N4  UNL     1      28.774  -6.221 -31.782  1.00  0.00    -0.345 N 
ATOM     16  H4  UNL     1      28.882  -5.972 -32.766  1.00  0.00     0.167 HD
BRANCH  15  17
HETATM   17  C13 UNL     1      29.434  -5.407 -30.842  1.00  0.00     0.083 C 
BRANCH  17  18
HETATM   18  C12 UNL     1      29.259  -5.575 -29.389  1.00  0.00     0.170 C 
BRANCH  18  19
HETATM   19  N3  UNL     1      30.364  -6.034 -28.619  1.00  0.00    -0.343 N 
HETATM   20  C11 UNL     1      30.354  -6.060 -27.172  1.00  0.00     0.186 C 
HETATM   21  N1  UNL     1      29.535  -6.584 -26.421  1.00  0.00    -0.365 N 
HETATM   22  N2  UNL     1      31.474  -5.369 -26.559  1.00  0.00    -0.064 NA
ATOM     23  H1  UNL     1      29.803  -6.432 -25.448  1.00  0.00     0.162 HD
BRANCH  21  24
HETATM   24  C10 UNL     1      28.352  -7.323 -26.484  1.00  0.00     0.122 C 
BRANCH  24  25
HETATM   25  C9  UNL     1      27.295  -6.711 -25.540  1.00  0.00     0.020 C 
BRANCH  25  26
HETATM   26  C8  UNL     1      27.326  -7.560 -24.306  1.00  0.00     0.002 C 
BRANCH  26  27
HETATM   27  C7  UNL     1      28.031  -6.927 -23.142  1.00  0.00     0.000 C 
BRANCH  27  28
HETATM   28  C6  UNL     1      28.425  -7.954 -22.125  1.00  0.00     0.000 C 
BRANCH  28  29
HETATM   29  C5  UNL     1      29.863  -8.364 -22.260  1.00  0.00     0.000 C 
BRANCH  29  30
HETATM   30  C4  UNL     1      30.800  -7.211 -22.468  1.00  0.00     0.000 C 
BRANCH  30  31
HETATM   31  C3  UNL     1      31.695  -7.578 -23.657  1.00  0.00    -0.000 C 
BRANCH  31  32
HETATM   32  C2  UNL     1      31.182  -8.928 -24.159  1.00  0.00    -0.005 C 
HETATM   33  C1  UNL     1      32.342  -9.811 -24.561  1.00  0.00     0.005 C 
ENDBRANCH  31  32
ENDBRANCH  30  31
ENDBRANCH  29  30
ENDBRANCH  28  29
ENDBRANCH  27  28
ENDBRANCH  26  27
ENDBRANCH  25  26
ENDBRANCH  24  25
ENDBRANCH  21  24
BRANCH  19  34
HETATM   34  C19 UNL     1      31.611  -6.449 -29.214  1.00  0.00     0.225 C 
BRANCH  34  35
HETATM   35  C20 UNL     1      31.607  -7.902 -29.573  1.00  0.00     0.249 C 
HETATM   36  N12 UNL     1      31.730  -8.858 -28.531  1.00  0.00    -0.061 NA
HETATM   37  O1  UNL     1      31.501  -8.327 -30.742  1.00  0.00    -0.275 OA
ENDBRANCH  34  35
ENDBRANCH  19  34
ENDBRANCH  18  19
ENDBRANCH  17  18
ENDBRANCH  15  17
ENDBRANCH  13  15
ENDBRANCH   9  13
ENDBRANCH   6   7
ENDBRANCH   5   6
BRANCH   5  38
HETATM   38  N8  UNL     1      29.095 -13.102 -32.321  1.00  0.00    -0.294 N 
HETATM   39  N9  UNL     1      27.889 -13.438 -32.301  1.00  0.00    -0.344 N 
ATOM     40  H92 UNL     1      27.407 -12.539 -32.322  1.00  0.00     0.176 HD
ATOM     41  H91 UNL     1      27.168 -14.159 -32.275  1.00  0.00     0.176 HD
ATOM     42  H8  UNL     1      29.610 -13.982 -32.301  1.00  0.00     0.187 HD
ENDBRANCH   5  38
ENDBRANCH   1   5
TORSDOF 20
ENDMDL
