MODEL 1
REMARK VINA RESULT: -9.862428334      0.000      0.000
REMARK  12 active torsions:
REMARK  status: ('A' for Active; 'I' for Inactive)
REMARK    1  A    between atoms: C3_3  and  C4_4 
REMARK    2  A    between atoms: C4_4  and  C5_5 
REMARK    3  A    between atoms: C4_4  and  C8_8 
REMARK    4  A    between atoms: C8_8  and  O1_9 
REMARK    5  A    between atoms: C9_11  and  C10_12 
REMARK    6  A    between atoms: C9_11  and  C13_17 
REMARK    7  A    between atoms: C10_12  and  C11_13 
REMARK    8  A    between atoms: C11_13  and  C12_14 
REMARK    9  A    between atoms: C22_26  and  O4_27 
REMARK   10  A    between atoms: O4_27  and  S1_28 
REMARK   11  A    between atoms: S1_28  and  N1_31 
REMARK       I    between atoms: N1_31  and  C23_33 
REMARK   12  A    between atoms: C24_38  and  O7_39 
ROOT
HETATM    1  C1  UNL     1      24.745  -4.407  28.440  1.00  0.00     0.012 C 
HETATM    2  C2  UNL     1      25.379  -5.379  28.158  1.00  0.00    -0.117 C 
HETATM    3  C3  UNL     1      26.142  -6.511  27.769  1.00  0.00     0.104 C 
ENDROOT
BRANCH   3   4
HETATM    4  C4  UNL     1      25.368  -7.860  27.721  1.00  0.00     0.057 C 
BRANCH   4   5
HETATM    5  C5  UNL     1      24.622  -8.148  28.953  1.00  0.00    -0.012 C 
HETATM    6  C6  UNL     1      25.219  -7.716  30.252  1.00  0.00     0.010 C 
HETATM    7  C7  UNL     1      24.131  -9.560  29.175  1.00  0.00     0.010 C 
ENDBRANCH   4   5
BRANCH   4   8
HETATM    8  C8  UNL     1      26.239  -8.825  27.071  1.00  0.00     0.051 C 
HETATM    9  C9  UNL     1      26.341  -9.495  25.820  1.00  0.00    -0.045 C 
BRANCH   8  10
HETATM   10  O1  UNL     1      27.526  -8.857  27.808  1.00  0.00    -0.364 OA
ATOM     11  H1  UNL     1      28.142  -9.381  27.309  1.00  0.00     0.217 HD
ENDBRANCH   8  10
BRANCH   9  12
HETATM   12  C10 UNL     1      25.128 -10.399  25.574  1.00  0.00     0.047 C 
BRANCH  12  13
HETATM   13  C11 UNL     1      25.255 -11.261  24.308  1.00  0.00     0.117 C 
BRANCH  13  14
HETATM   14  C12 UNL     1      24.105 -10.876  23.381  1.00  0.00     0.172 C 
HETATM   15  O2  UNL     1      22.951 -11.155  23.679  1.00  0.00    -0.648 OA
HETATM   16  O3  UNL     1      24.420 -10.218  22.229  1.00  0.00    -0.648 OA
ENDBRANCH  13  14
ENDBRANCH  12  13
ENDBRANCH   9  12
BRANCH   9  17
HETATM   17  C13 UNL     1      26.796  -8.907  24.537  1.00  0.00     0.025 C 
HETATM   18  C14 UNL     1      28.311  -8.649  24.470  1.00  0.00     0.010 C 
HETATM   19  C15 UNL     1      28.511  -7.289  25.060  1.00  0.00     0.006 C 
HETATM   20  C16 UNL     1      27.150  -6.563  25.017  1.00  0.00    -0.001 C 
HETATM   21  C17 UNL     1      27.445  -5.210  24.343  1.00  0.00    -0.005 C 
HETATM   22  C31 UNL     1      26.343  -7.495  24.188  1.00  0.00    -0.033 C 
HETATM   23  C18 UNL     1      27.848  -4.164  25.321  1.00  0.00     0.006 C 
HETATM   24  C28 UNL     1      26.382  -4.779  23.396  1.00  0.00    -0.001 C 
HETATM   25  C19 UNL     1      27.123  -2.894  25.334  1.00  0.00     0.006 C 
HETATM   26  C20 UNL     1      26.417  -2.449  24.080  1.00  0.00    -0.003 C 
HETATM   27  C21 UNL     1      26.596  -1.018  23.768  1.00  0.00     0.041 C 
HETATM   28  C26 UNL     1      26.570  -3.403  22.915  1.00  0.00    -0.034 C 
HETATM   29  C22 UNL     1      27.442  -0.671  22.626  1.00  0.00     0.173 C 
HETATM   30  C24 UNL     1      27.528  -1.672  21.551  1.00  0.00     0.149 C 
HETATM   31  C25 UNL     1      27.752  -3.069  22.089  1.00  0.00     0.044 C 
HETATM   32  C27 UNL     1      25.344  -3.119  22.012  1.00  0.00     0.016 C 
HETATM   33  C29 UNL     1      26.302  -5.819  22.309  1.00  0.00     0.006 C 
HETATM   34  C30 UNL     1      26.828  -7.178  22.739  1.00  0.00     0.010 C 
HETATM   35  C32 UNL     1      24.879  -7.304  24.100  1.00  0.00     0.016 C 
BRANCH  29  36
HETATM   36  O4  UNL     1      27.107   0.604  22.100  1.00  0.00    -0.251 OA
BRANCH  36  37
HETATM   37  S1  UNL     1      27.432   1.885  23.062  1.00  0.00     0.364 S 
HETATM   38  O5  UNL     1      28.527   1.533  24.025  1.00  0.00    -0.175 OA
HETATM   39  O6  UNL     1      27.906   3.104  22.306  1.00  0.00    -0.175 OA
BRANCH  37  40
HETATM   40  N1  UNL     1      26.063   2.363  24.018  1.00  0.00    -0.235 N 
HETATM   41  C23 UNL     1      26.218   3.484  24.881  1.00  0.00     0.197 C 
HETATM   42  N2  UNL     1      25.201   4.135  25.351  1.00  0.00    -0.373 N 
HETATM   43  N3  UNL     1      27.494   3.973  25.286  1.00  0.00    -0.063 NA
ATOM     44  H22 UNL     1      24.287   3.786  25.061  1.00  0.00     0.158 HD
ATOM     45  H21 UNL     1      25.311   4.939  25.969  1.00  0.00     0.158 HD
ATOM     46  H1  UNL     1      25.179   1.858  23.962  1.00  0.00     0.183 HD
ENDBRANCH  37  40
ENDBRANCH  36  37
ENDBRANCH  29  36
BRANCH  30  47
HETATM   47  O7  UNL     1      28.700  -1.381  20.810  1.00  0.00    -0.393 OA
ATOM     48  H7  UNL     1      28.492  -0.651  20.239  1.00  0.00     0.210 HD
ENDBRANCH  30  47
ENDBRANCH   9  17
ENDBRANCH   4   8
ENDBRANCH   3   4
TORSDOF 12
ENDMDL
MODEL 2
REMARK VINA RESULT: -9.679953373      3.401      5.102
REMARK  12 active torsions:
REMARK  status: ('A' for Active; 'I' for Inactive)
REMARK    1  A    between atoms: C3_3  and  C4_4 
REMARK    2  A    between atoms: C4_4  and  C5_5 
REMARK    3  A    between atoms: C4_4  and  C8_8 
REMARK    4  A    between atoms: C8_8  and  O1_9 
REMARK    5  A    between atoms: C9_11  and  C10_12 
REMARK    6  A    between atoms: C9_11  and  C13_17 
REMARK    7  A    between atoms: C10_12  and  C11_13 
REMARK    8  A    between atoms: C11_13  and  C12_14 
REMARK    9  A    between atoms: C22_26  and  O4_27 
REMARK   10  A    between atoms: O4_27  and  S1_28 
REMARK   11  A    between atoms: S1_28  and  N1_31 
REMARK       I    between atoms: N1_31  and  C23_33 
REMARK   12  A    between atoms: C24_38  and  O7_39 
ROOT
HETATM    1  C1  UNL     1      23.436  -6.491  23.196  1.00  0.00     0.012 C 
HETATM    2  C2  UNL     1      23.909  -7.536  22.868  1.00  0.00    -0.117 C 
HETATM    3  C3  UNL     1      24.526  -8.755  22.482  1.00  0.00     0.104 C 
ENDROOT
BRANCH   3   4
HETATM    4  C4  UNL     1      24.166  -9.270  21.058  1.00  0.00     0.057 C 
BRANCH   4   5
HETATM    5  C5  UNL     1      23.073 -10.251  21.052  1.00  0.00    -0.012 C 
HETATM    6  C6  UNL     1      21.774  -9.851  20.435  1.00  0.00     0.010 C 
HETATM    7  C7  UNL     1      22.718 -10.928  22.356  1.00  0.00     0.010 C 
ENDBRANCH   4   5
BRANCH   4   8
HETATM    8  C8  UNL     1      25.419  -9.467  20.350  1.00  0.00     0.051 C 
HETATM    9  C9  UNL     1      25.972  -9.199  19.066  1.00  0.00    -0.045 C 
BRANCH   8  10
HETATM   10  O1  UNL     1      26.483  -9.725  21.353  1.00  0.00    -0.364 OA
ATOM     11  H1  UNL     1      27.312  -9.796  20.895  1.00  0.00     0.217 HD
ENDBRANCH   8  10
BRANCH   9  12
HETATM   12  C10 UNL     1      25.213  -9.951  17.968  1.00  0.00     0.047 C 
BRANCH  12  13
HETATM   13  C11 UNL     1      25.986 -10.040  16.642  1.00  0.00     0.117 C 
BRANCH  13  14
HETATM   14  C12 UNL     1      25.078  -9.479  15.551  1.00  0.00     0.172 C 
HETATM   15  O2  UNL     1      24.333 -10.221  14.925  1.00  0.00    -0.648 OA
HETATM   16  O3  UNL     1      25.135  -8.138  15.313  1.00  0.00    -0.648 OA
ENDBRANCH  13  14
ENDBRANCH  12  13
ENDBRANCH   9  12
BRANCH   9  17
HETATM   17  C13 UNL     1      26.418  -7.881  18.554  1.00  0.00     0.025 C 
HETATM   18  C14 UNL     1      27.895  -7.564  18.848  1.00  0.00     0.010 C 
HETATM   19  C15 UNL     1      27.907  -6.938  20.206  1.00  0.00     0.006 C 
HETATM   20  C16 UNL     1      26.476  -6.444  20.499  1.00  0.00    -0.001 C 
HETATM   21  C17 UNL     1      26.645  -4.974  20.925  1.00  0.00    -0.005 C 
HETATM   22  C31 UNL     1      25.824  -6.624  19.176  1.00  0.00    -0.033 C 
HETATM   23  C18 UNL     1      26.875  -4.829  22.387  1.00  0.00     0.006 C 
HETATM   24  C28 UNL     1      25.587  -4.078  20.386  1.00  0.00    -0.001 C 
HETATM   25  C19 UNL     1      26.008  -3.934  23.153  1.00  0.00     0.006 C 
HETATM   26  C20 UNL     1      25.318  -2.804  22.435  1.00  0.00    -0.003 C 
HETATM   27  C21 UNL     1      25.346  -1.524  23.169  1.00  0.00     0.041 C 
HETATM   28  C26 UNL     1      25.638  -2.725  20.958  1.00  0.00    -0.034 C 
HETATM   29  C22 UNL     1      26.201  -0.458  22.647  1.00  0.00     0.173 C 
HETATM   30  C24 UNL     1      26.455  -0.478  21.198  1.00  0.00     0.149 C 
HETATM   31  C25 UNL     1      26.813  -1.862  20.701  1.00  0.00     0.044 C 
HETATM   32  C27 UNL     1      24.433  -1.976  20.336  1.00  0.00     0.016 C 
HETATM   33  C29 UNL     1      25.682  -4.128  18.883  1.00  0.00     0.006 C 
HETATM   34  C30 UNL     1      26.339  -5.394  18.365  1.00  0.00     0.010 C 
HETATM   35  C32 UNL     1      24.353  -6.501  19.070  1.00  0.00     0.016 C 
BRANCH  29  36
HETATM   36  O4  UNL     1      25.747   0.821  23.060  1.00  0.00    -0.251 OA
BRANCH  36  37
HETATM   37  S1  UNL     1      26.900   1.864  23.567  1.00  0.00     0.364 S 
HETATM   38  O5  UNL     1      28.079   1.100  24.094  1.00  0.00    -0.175 OA
HETATM   39  O6  UNL     1      27.428   2.761  22.474  1.00  0.00    -0.175 OA
BRANCH  37  40
HETATM   40  N1  UNL     1      26.351   2.884  24.861  1.00  0.00    -0.235 N 
HETATM   41  C23 UNL     1      27.188   3.967  25.251  1.00  0.00     0.197 C 
HETATM   42  N2  UNL     1      26.736   4.976  25.927  1.00  0.00    -0.373 N 
HETATM   43  N3  UNL     1      28.574   4.023  24.924  1.00  0.00    -0.063 NA
ATOM     44  H22 UNL     1      25.744   4.936  26.161  1.00  0.00     0.158 HD
ATOM     45  H21 UNL     1      27.336   5.752  26.207  1.00  0.00     0.158 HD
ATOM     46  H1  UNL     1      25.458   2.714  25.325  1.00  0.00     0.183 HD
ENDBRANCH  37  40
ENDBRANCH  36  37
ENDBRANCH  29  36
BRANCH  30  47
HETATM   47  O7  UNL     1      27.621   0.295  20.973  1.00  0.00    -0.393 OA
ATOM     48  H7  UNL     1      28.191  -0.219  20.413  1.00  0.00     0.210 HD
ENDBRANCH  30  47
ENDBRANCH   9  17
ENDBRANCH   4   8
ENDBRANCH   3   4
TORSDOF 12
ENDMDL
MODEL 3
REMARK VINA RESULT: -9.645573851      2.426      3.348
REMARK  12 active torsions:
REMARK  status: ('A' for Active; 'I' for Inactive)
REMARK    1  A    between atoms: C3_3  and  C4_4 
REMARK    2  A    between atoms: C4_4  and  C5_5 
REMARK    3  A    between atoms: C4_4  and  C8_8 
REMARK    4  A    between atoms: C8_8  and  O1_9 
REMARK    5  A    between atoms: C9_11  and  C10_12 
REMARK    6  A    between atoms: C9_11  and  C13_17 
REMARK    7  A    between atoms: C10_12  and  C11_13 
REMARK    8  A    between atoms: C11_13  and  C12_14 
REMARK    9  A    between atoms: C22_26  and  O4_27 
REMARK   10  A    between atoms: O4_27  and  S1_28 
REMARK   11  A    between atoms: S1_28  and  N1_31 
REMARK       I    between atoms: N1_31  and  C23_33 
REMARK   12  A    between atoms: C24_38  and  O7_39 
ROOT
HETATM    1  C1  UNL     1      24.200  -5.791  24.713  1.00  0.00     0.012 C 
HETATM    2  C2  UNL     1      24.774  -6.838  24.675  1.00  0.00    -0.117 C 
HETATM    3  C3  UNL     1      25.506  -8.053  24.615  1.00  0.00     0.104 C 
ENDROOT
BRANCH   3   4
HETATM    4  C4  UNL     1      25.023  -9.077  23.547  1.00  0.00     0.057 C 
BRANCH   4   5
HETATM    5  C5  UNL     1      24.183 -10.145  24.103  1.00  0.00    -0.012 C 
HETATM    6  C6  UNL     1      24.860 -11.359  24.647  1.00  0.00     0.010 C 
HETATM    7  C7  UNL     1      23.034 -10.656  23.264  1.00  0.00     0.010 C 
ENDBRANCH   4   5
BRANCH   4   8
HETATM    8  C8  UNL     1      26.147  -9.324  22.659  1.00  0.00     0.051 C 
HETATM    9  C9  UNL     1      26.427  -9.307  21.264  1.00  0.00    -0.045 C 
BRANCH   8  10
HETATM   10  O1  UNL     1      27.394  -9.261  23.462  1.00  0.00    -0.364 OA
ATOM     11  H1  UNL     1      27.880  -8.489  23.196  1.00  0.00     0.217 HD
ENDBRANCH   8  10
BRANCH   9  12
HETATM   12  C10 UNL     1      25.585 -10.347  20.517  1.00  0.00     0.047 C 
BRANCH  12  13
HETATM   13  C11 UNL     1      24.856  -9.775  19.291  1.00  0.00     0.117 C 
BRANCH  13  14
HETATM   14  C12 UNL     1      23.376 -10.120  19.443  1.00  0.00     0.172 C 
HETATM   15  O2  UNL     1      23.011 -11.289  19.450  1.00  0.00    -0.648 OA
HETATM   16  O3  UNL     1      22.499  -9.084  19.570  1.00  0.00    -0.648 OA
ENDBRANCH  13  14
ENDBRANCH  12  13
ENDBRANCH   9  12
BRANCH   9  17
HETATM   17  C13 UNL     1      26.609  -8.105  20.414  1.00  0.00     0.025 C 
HETATM   18  C14 UNL     1      28.078  -7.678  20.244  1.00  0.00     0.010 C 
HETATM   19  C15 UNL     1      28.371  -6.786  21.408  1.00  0.00     0.006 C 
HETATM   20  C16 UNL     1      27.020  -6.299  21.969  1.00  0.00    -0.001 C 
HETATM   21  C17 UNL     1      27.155  -4.767  22.051  1.00  0.00    -0.005 C 
HETATM   22  C31 UNL     1      26.077  -6.772  20.922  1.00  0.00    -0.033 C 
HETATM   23  C18 UNL     1      27.729  -4.316  23.347  1.00  0.00     0.006 C 
HETATM   24  C28 UNL     1      25.919  -4.043  21.650  1.00  0.00    -0.001 C 
HETATM   25  C19 UNL     1      27.004  -3.317  24.131  1.00  0.00     0.006 C 
HETATM   26  C20 UNL     1      26.056  -2.387  23.420  1.00  0.00    -0.003 C 
HETATM   27  C21 UNL     1      26.150  -0.983  23.867  1.00  0.00     0.041 C 
HETATM   28  C26 UNL     1      25.989  -2.601  21.924  1.00  0.00    -0.034 C 
HETATM   29  C22 UNL     1      26.747  -0.015  22.947  1.00  0.00     0.173 C 
HETATM   30  C24 UNL     1      26.632  -0.322  21.513  1.00  0.00     0.149 C 
HETATM   31  C25 UNL     1      26.978  -1.763  21.209  1.00  0.00     0.044 C 
HETATM   32  C27 UNL     1      24.604  -2.043  21.511  1.00  0.00     0.016 C 
HETATM   33  C29 UNL     1      25.640  -4.397  20.212  1.00  0.00     0.006 C 
HETATM   34  C30 UNL     1      26.260  -5.716  19.787  1.00  0.00     0.010 C 
HETATM   35  C32 UNL     1      24.622  -6.731  21.186  1.00  0.00     0.016 C 
BRANCH  29  36
HETATM   36  O4  UNL     1      26.297   1.303  23.217  1.00  0.00    -0.251 OA
BRANCH  36  37
HETATM   37  S1  UNL     1      27.460   2.416  23.501  1.00  0.00     0.364 S 
HETATM   38  O5  UNL     1      28.652   1.756  24.128  1.00  0.00    -0.175 OA
HETATM   39  O6  UNL     1      27.960   3.102  22.252  1.00  0.00    -0.175 OA
BRANCH  37  40
HETATM   40  N1  UNL     1      26.940   3.654  24.603  1.00  0.00    -0.235 N 
HETATM   41  C23 UNL     1      27.911   4.595  25.048  1.00  0.00     0.197 C 
HETATM   42  N2  UNL     1      27.577   5.737  25.561  1.00  0.00    -0.373 N 
HETATM   43  N3  UNL     1      29.313   4.353  24.959  1.00  0.00    -0.063 NA
ATOM     44  H22 UNL     1      26.574   5.910  25.625  1.00  0.00     0.158 HD
ATOM     45  H21 UNL     1      28.273   6.411  25.880  1.00  0.00     0.158 HD
ATOM     46  H1  UNL     1      25.972   3.706  24.919  1.00  0.00     0.183 HD
ENDBRANCH  37  40
ENDBRANCH  36  37
ENDBRANCH  29  36
BRANCH  30  47
HETATM   47  O7  UNL     1      27.630   0.434  20.848  1.00  0.00    -0.393 OA
ATOM     48  H7  UNL     1      27.617   0.167  19.936  1.00  0.00     0.210 HD
ENDBRANCH  30  47
ENDBRANCH   9  17
ENDBRANCH   4   8
ENDBRANCH   3   4
TORSDOF 12
ENDMDL
MODEL 4
REMARK VINA RESULT: -9.498755338      2.994      4.344
REMARK  12 active torsions:
REMARK  status: ('A' for Active; 'I' for Inactive)
REMARK    1  A    between atoms: C3_3  and  C4_4 
REMARK    2  A    between atoms: C4_4  and  C5_5 
REMARK    3  A    between atoms: C4_4  and  C8_8 
REMARK    4  A    between atoms: C8_8  and  O1_9 
REMARK    5  A    between atoms: C9_11  and  C10_12 
REMARK    6  A    between atoms: C9_11  and  C13_17 
REMARK    7  A    between atoms: C10_12  and  C11_13 
REMARK    8  A    between atoms: C11_13  and  C12_14 
REMARK    9  A    between atoms: C22_26  and  O4_27 
REMARK   10  A    between atoms: O4_27  and  S1_28 
REMARK   11  A    between atoms: S1_28  and  N1_31 
REMARK       I    between atoms: N1_31  and  C23_33 
REMARK   12  A    between atoms: C24_38  and  O7_39 
ROOT
HETATM    1  C1  UNL     1      23.432  -5.876  23.578  1.00  0.00     0.012 C 
HETATM    2  C2  UNL     1      23.740  -7.030  23.556  1.00  0.00    -0.117 C 
HETATM    3  C3  UNL     1      24.163  -8.385  23.539  1.00  0.00     0.104 C 
ENDROOT
BRANCH   3   4
HETATM    4  C4  UNL     1      23.939  -9.143  22.198  1.00  0.00     0.057 C 
BRANCH   4   5
HETATM    5  C5  UNL     1      22.858 -10.135  22.263  1.00  0.00    -0.012 C 
HETATM    6  C6  UNL     1      23.066 -11.344  23.114  1.00  0.00     0.010 C 
HETATM    7  C7  UNL     1      22.277 -10.641  20.963  1.00  0.00     0.010 C 
ENDBRANCH   4   5
BRANCH   4   8
HETATM    8  C8  UNL     1      25.253  -9.428  21.649  1.00  0.00     0.051 C 
HETATM    9  C9  UNL     1      25.916  -9.382  20.390  1.00  0.00    -0.045 C 
BRANCH   8  10
HETATM   10  O1  UNL     1      26.225  -9.468  22.770  1.00  0.00    -0.364 OA
ATOM     11  H1  UNL     1      26.849 -10.164  22.598  1.00  0.00     0.217 HD
ENDBRANCH   8  10
BRANCH   9  12
HETATM   12  C10 UNL     1      25.269 -10.345  19.388  1.00  0.00     0.047 C 
BRANCH  12  13
HETATM   13  C11 UNL     1      24.850  -9.666  18.074  1.00  0.00     0.117 C 
BRANCH  13  14
HETATM   14  C12 UNL     1      25.448 -10.483  16.932  1.00  0.00     0.172 C 
HETATM   15  O2  UNL     1      26.506 -11.080  17.087  1.00  0.00    -0.648 OA
HETATM   16  O3  UNL     1      24.760 -10.517  15.755  1.00  0.00    -0.648 OA
ENDBRANCH  13  14
ENDBRANCH  12  13
ENDBRANCH   9  12
BRANCH   9  17
HETATM   17  C13 UNL     1      26.389  -8.167  19.684  1.00  0.00     0.025 C 
HETATM   18  C14 UNL     1      27.875  -7.847  19.920  1.00  0.00     0.010 C 
HETATM   19  C15 UNL     1      27.914  -7.026  21.169  1.00  0.00     0.006 C 
HETATM   20  C16 UNL     1      26.498  -6.457  21.392  1.00  0.00    -0.001 C 
HETATM   21  C17 UNL     1      26.706  -4.945  21.593  1.00  0.00    -0.005 C 
HETATM   22  C31 UNL     1      25.830  -6.817  20.114  1.00  0.00    -0.033 C 
HETATM   23  C18 UNL     1      26.952  -4.589  23.016  1.00  0.00     0.006 C 
HETATM   24  C28 UNL     1      25.665  -4.114  20.931  1.00  0.00    -0.001 C 
HETATM   25  C19 UNL     1      26.114  -3.568  23.644  1.00  0.00     0.006 C 
HETATM   26  C20 UNL     1      25.445  -2.542  22.769  1.00  0.00    -0.003 C 
HETATM   27  C21 UNL     1      25.510  -1.167  23.303  1.00  0.00     0.041 C 
HETATM   28  C26 UNL     1      25.753  -2.693  21.295  1.00  0.00    -0.034 C 
HETATM   29  C22 UNL     1      26.385  -0.213  22.623  1.00  0.00     0.173 C 
HETATM   30  C24 UNL     1      26.626  -0.455  21.192  1.00  0.00     0.149 C 
HETATM   31  C25 UNL     1      26.946  -1.907  20.905  1.00  0.00     0.044 C 
HETATM   32  C27 UNL     1      24.561  -2.015  20.574  1.00  0.00     0.016 C 
HETATM   33  C29 UNL     1      25.745  -4.390  19.452  1.00  0.00     0.006 C 
HETATM   34  C30 UNL     1      26.367  -5.735  19.126  1.00  0.00     0.010 C 
HETATM   35  C32 UNL     1      24.362  -6.675  19.999  1.00  0.00     0.016 C 
BRANCH  29  36
HETATM   36  O4  UNL     1      25.966   1.124  22.842  1.00  0.00    -0.251 OA
BRANCH  36  37
HETATM   37  S1  UNL     1      27.102   2.147  23.423  1.00  0.00     0.364 S 
HETATM   38  O5  UNL     1      28.162   1.372  24.147  1.00  0.00    -0.175 OA
HETATM   39  O6  UNL     1      27.810   2.938  22.349  1.00  0.00    -0.175 OA
BRANCH  37  40
HETATM   40  N1  UNL     1      26.451   3.284  24.564  1.00  0.00    -0.235 N 
HETATM   41  C23 UNL     1      27.316   4.304  25.049  1.00  0.00     0.197 C 
HETATM   42  N2  UNL     1      26.863   5.386  25.600  1.00  0.00    -0.373 N 
HETATM   43  N3  UNL     1      28.736   4.213  24.962  1.00  0.00    -0.063 NA
ATOM     44  H22 UNL     1      25.847   5.451  25.662  1.00  0.00     0.158 HD
ATOM     45  H21 UNL     1      27.484   6.118  25.947  1.00  0.00     0.158 HD
ATOM     46  H1  UNL     1      25.481   3.223  24.875  1.00  0.00     0.183 HD
ENDBRANCH  37  40
ENDBRANCH  36  37
ENDBRANCH  29  36
BRANCH  30  47
HETATM   47  O7  UNL     1      27.808   0.246  20.848  1.00  0.00    -0.393 OA
ATOM     48  H7  UNL     1      27.611   1.173  20.921  1.00  0.00     0.210 HD
ENDBRANCH  30  47
ENDBRANCH   9  17
ENDBRANCH   4   8
ENDBRANCH   3   4
TORSDOF 12
ENDMDL
MODEL 5
REMARK VINA RESULT: -9.388638095      3.543      5.476
REMARK  12 active torsions:
REMARK  status: ('A' for Active; 'I' for Inactive)
REMARK    1  A    between atoms: C3_3  and  C4_4 
REMARK    2  A    between atoms: C4_4  and  C5_5 
REMARK    3  A    between atoms: C4_4  and  C8_8 
REMARK    4  A    between atoms: C8_8  and  O1_9 
REMARK    5  A    between atoms: C9_11  and  C10_12 
REMARK    6  A    between atoms: C9_11  and  C13_17 
REMARK    7  A    between atoms: C10_12  and  C11_13 
REMARK    8  A    between atoms: C11_13  and  C12_14 
REMARK    9  A    between atoms: C22_26  and  O4_27 
REMARK   10  A    between atoms: O4_27  and  S1_28 
REMARK   11  A    between atoms: S1_28  and  N1_31 
REMARK       I    between atoms: N1_31  and  C23_33 
REMARK   12  A    between atoms: C24_38  and  O7_39 
ROOT
HETATM    1  C1  UNL     1      23.876  -5.218  23.961  1.00  0.00     0.012 C 
HETATM    2  C2  UNL     1      24.157  -6.223  23.379  1.00  0.00    -0.117 C 
HETATM    3  C3  UNL     1      24.546  -7.398  22.684  1.00  0.00     0.104 C 
ENDROOT
BRANCH   3   4
HETATM    4  C4  UNL     1      23.858  -7.623  21.306  1.00  0.00     0.057 C 
BRANCH   4   5
HETATM    5  C5  UNL     1      22.778  -8.618  21.350  1.00  0.00    -0.012 C 
HETATM    6  C6  UNL     1      21.371  -8.131  21.250  1.00  0.00     0.010 C 
HETATM    7  C7  UNL     1      22.787  -9.627  22.475  1.00  0.00     0.010 C 
ENDBRANCH   4   5
BRANCH   4   8
HETATM    8  C8  UNL     1      24.910  -7.629  20.304  1.00  0.00     0.051 C 
HETATM    9  C9  UNL     1      25.120  -7.163  18.975  1.00  0.00    -0.045 C 
BRANCH   8  10
HETATM   10  O1  UNL     1      26.197  -7.919  20.985  1.00  0.00    -0.364 OA
ATOM     11  H1  UNL     1      26.757  -7.157  20.897  1.00  0.00     0.217 HD
ENDBRANCH   8  10
BRANCH   9  12
HETATM   12  C10 UNL     1      24.155  -7.837  17.993  1.00  0.00     0.047 C 
BRANCH  12  13
HETATM   13  C11 UNL     1      23.357  -6.838  17.140  1.00  0.00     0.117 C 
BRANCH  13  14
HETATM   14  C12 UNL     1      23.706  -7.112  15.679  1.00  0.00     0.172 C 
HETATM   15  O2  UNL     1      23.809  -8.262  15.273  1.00  0.00    -0.648 OA
HETATM   16  O3  UNL     1      23.891  -6.034  14.864  1.00  0.00    -0.648 OA
ENDBRANCH  13  14
ENDBRANCH  12  13
ENDBRANCH   9  12
BRANCH   9  17
HETATM   17  C13 UNL     1      25.361  -5.761  18.559  1.00  0.00     0.025 C 
HETATM   18  C14 UNL     1      26.840  -5.436  18.287  1.00  0.00     0.010 C 
HETATM   19  C15 UNL     1      27.413  -5.045  19.612  1.00  0.00     0.006 C 
HETATM   20  C16 UNL     1      26.234  -4.666  20.532  1.00  0.00    -0.001 C 
HETATM   21  C17 UNL     1      26.602  -3.282  21.096  1.00  0.00    -0.005 C 
HETATM   22  C31 UNL     1      25.101  -4.651  19.569  1.00  0.00    -0.033 C 
HETATM   23  C18 UNL     1      27.402  -3.373  22.347  1.00  0.00     0.006 C 
HETATM   24  C28 UNL     1      25.442  -2.354  21.185  1.00  0.00    -0.001 C 
HETATM   25  C19 UNL     1      26.941  -2.655  23.535  1.00  0.00     0.006 C 
HETATM   26  C20 UNL     1      26.054  -1.451  23.354  1.00  0.00    -0.003 C 
HETATM   27  C21 UNL     1      26.410  -0.311  24.221  1.00  0.00     0.041 C 
HETATM   28  C26 UNL     1      25.758  -1.115  21.909  1.00  0.00    -0.034 C 
HETATM   29  C22 UNL     1      27.014   0.862  23.589  1.00  0.00     0.173 C 
HETATM   30  C24 UNL     1      26.667   1.094  22.179  1.00  0.00     0.149 C 
HETATM   31  C25 UNL     1      26.755  -0.172  21.354  1.00  0.00     0.044 C 
HETATM   32  C27 UNL     1      24.426  -0.323  21.956  1.00  0.00     0.016 C 
HETATM   33  C29 UNL     1      24.926  -2.149  19.784  1.00  0.00     0.006 C 
HETATM   34  C30 UNL     1      25.284  -3.283  18.840  1.00  0.00     0.010 C 
HETATM   35  C32 UNL     1      23.716  -4.575  20.082  1.00  0.00     0.016 C 
BRANCH  29  36
HETATM   36  O4  UNL     1      26.801   2.034  24.359  1.00  0.00    -0.251 OA
BRANCH  36  37
HETATM   37  S1  UNL     1      28.006   3.139  24.336  1.00  0.00     0.364 S 
HETATM   38  O5  UNL     1      28.015   3.908  25.623  1.00  0.00    -0.175 OA
HETATM   39  O6  UNL     1      29.381   2.531  24.193  1.00  0.00    -0.175 OA
BRANCH  37  40
HETATM   40  N1  UNL     1      27.815   4.303  23.061  1.00  0.00    -0.235 N 
HETATM   41  C23 UNL     1      28.848   5.266  22.884  1.00  0.00     0.197 C 
HETATM   42  N2  UNL     1      28.989   5.928  21.779  1.00  0.00    -0.373 N 
HETATM   43  N3  UNL     1      29.801   5.568  23.901  1.00  0.00    -0.063 NA
ATOM     44  H22 UNL     1      28.307   5.712  21.051  1.00  0.00     0.158 HD
ATOM     45  H21 UNL     1      29.729   6.618  21.652  1.00  0.00     0.158 HD
ATOM     46  H1  UNL     1      26.992   4.296  22.459  1.00  0.00     0.183 HD
ENDBRANCH  37  40
ENDBRANCH  36  37
ENDBRANCH  29  36
BRANCH  30  47
HETATM   47  O7  UNL     1      27.666   1.942  21.642  1.00  0.00    -0.393 OA
ATOM     48  H7  UNL     1      27.302   2.819  21.619  1.00  0.00     0.210 HD
ENDBRANCH  30  47
ENDBRANCH   9  17
ENDBRANCH   4   8
ENDBRANCH   3   4
TORSDOF 12
ENDMDL
