MODEL 1
REMARK VINA RESULT: -10.918789420      0.000      0.000
REMARK  16 active torsions:
REMARK  status: ('A' for Active; 'I' for Inactive)
REMARK    1  A    between atoms: C2_2  and  C4_4 
REMARK       I    between atoms: C4_4  and  N1_6 
REMARK    2  A    between atoms: N1_6  and  C5_8 
REMARK    3  A    between atoms: C5_8  and  C6_9 
REMARK    4  A    between atoms: C6_9  and  C7_10 
REMARK    5  A    between atoms: C7_10  and  C8_11 
REMARK    6  A    between atoms: C8_11  and  C9_12 
REMARK    7  A    between atoms: C9_12  and  C10_13 
REMARK    8  A    between atoms: C9_12  and  C29_37 
REMARK       I    between atoms: C10_13  and  N2_15 
REMARK    9  A    between atoms: N2_15  and  C11_17 
REMARK   10  A    between atoms: C20_26  and  O3_27 
REMARK   11  A    between atoms: C29_37  and  O4_38 
REMARK   12  A    between atoms: C29_37  and  C30_40 
REMARK   13  A    between atoms: C30_40  and  O5_41 
REMARK   14  A    between atoms: C30_40  and  C31_43 
REMARK   15  A    between atoms: C31_43  and  O6_44 
REMARK   16  A    between atoms: C31_43  and  C32_46 
ROOT
HETATM    1  C9  UNL     1      27.102  -0.712  23.102  1.00  0.00     0.109 C 
ENDROOT
BRANCH   1   2
HETATM    2  C8  UNL     1      28.169  -1.736  22.974  1.00  0.00     0.017 C 
BRANCH   2   3
HETATM    3  C7  UNL     1      28.309  -2.743  24.047  1.00  0.00     0.002 C 
BRANCH   3   4
HETATM    4  C6  UNL     1      26.906  -3.132  24.539  1.00  0.00     0.020 C 
BRANCH   4   5
HETATM    5  C5  UNL     1      26.829  -3.256  26.022  1.00  0.00     0.122 C 
BRANCH   5   6
HETATM    6  N1  UNL     1      26.308  -4.568  26.413  1.00  0.00    -0.361 N 
HETATM    7  C4  UNL     1      25.509  -4.649  27.588  1.00  0.00     0.221 C 
HETATM    8  O1  UNL     1      25.233  -3.660  28.305  1.00  0.00    -0.273 OA
ATOM      9  H1  UNL     1      26.512  -5.400  25.859  1.00  0.00     0.162 HD
BRANCH   7  10
HETATM   10  C2  UNL     1      24.953  -5.960  28.014  1.00  0.00     0.070 C 
HETATM   11  C1  UNL     1      25.976  -7.035  27.736  1.00  0.00     0.019 C 
HETATM   12  C3  UNL     1      24.597  -5.958  29.489  1.00  0.00     0.019 C 
ENDBRANCH   7  10
ENDBRANCH   5   6
ENDBRANCH   4   5
ENDBRANCH   3   4
ENDBRANCH   2   3
ENDBRANCH   1   2
BRANCH   1  13
HETATM   13  C10 UNL     1      27.454   0.540  23.762  1.00  0.00     0.224 C 
HETATM   14  O2  UNL     1      28.647   0.678  24.236  1.00  0.00    -0.273 OA
HETATM   15  N2  UNL     1      26.625   1.669  23.958  1.00  0.00    -0.356 N 
ATOM     16  H2  UNL     1      25.667   1.632  23.608  1.00  0.00     0.162 HD
BRANCH  15  17
HETATM   17  C11 UNL     1      27.064   2.870  24.627  1.00  0.00     0.089 C 
HETATM   18  C12 UNL     1      25.942   3.372  25.502  1.00  0.00     0.026 C 
HETATM   19  C13 UNL     1      25.790   4.871  25.177  1.00  0.00     0.011 C 
HETATM   20  C14 UNL     1      27.094   5.183  24.595  1.00  0.00     0.021 C 
HETATM   21  C15 UNL     1      27.240   6.364  23.764  1.00  0.00    -0.074 C 
HETATM   22  C28 UNL     1      27.313   3.990  23.640  1.00  0.00     0.016 C 
HETATM   23  C16 UNL     1      26.258   7.197  23.550  1.00  0.00    -0.023 C 
HETATM   24  C25 UNL     1      28.571   6.568  23.173  1.00  0.00     0.023 C 
HETATM   25  C17 UNL     1      26.376   8.426  22.698  1.00  0.00     0.033 C 
HETATM   26  C18 UNL     1      27.819   8.889  22.841  1.00  0.00     0.000 C 
HETATM   27  C19 UNL     1      28.080  10.187  22.142  1.00  0.00     0.037 C 
HETATM   28  C23 UNL     1      28.777   7.819  22.416  1.00  0.00    -0.033 C 
HETATM   29  C20 UNL     1      29.405  10.726  22.637  1.00  0.00     0.118 C 
HETATM   30  C21 UNL     1      30.194   9.666  23.375  1.00  0.00     0.032 C 
HETATM   31  C22 UNL     1      30.187   8.347  22.642  1.00  0.00     0.012 C 
HETATM   32  C24 UNL     1      28.674   7.548  20.907  1.00  0.00     0.016 C 
HETATM   33  C26 UNL     1      28.911   5.322  22.373  1.00  0.00     0.010 C 
HETATM   34  C27 UNL     1      28.744   4.094  23.213  1.00  0.00     0.008 C 
BRANCH  29  35
HETATM   35  O3  UNL     1      29.133  11.750  23.541  1.00  0.00    -0.396 OA
ATOM     36  H3  UNL     1      29.221  11.393  24.416  1.00  0.00     0.210 HD
ENDBRANCH  29  35
ENDBRANCH  15  17
ENDBRANCH   1  13
BRANCH   1  37
HETATM   37  C29 UNL     1      26.345  -0.511  21.813  1.00  0.00     0.162 C 
BRANCH  37  38
HETATM   38  O4  UNL     1      27.059  -0.089  20.749  1.00  0.00    -0.392 OA
ATOM     39  H4  UNL     1      27.668   0.625  20.897  1.00  0.00     0.210 HD
ENDBRANCH  37  38
BRANCH  37  40
HETATM   40  C30 UNL     1      25.598  -1.805  21.501  1.00  0.00     0.176 C 
BRANCH  40  41
HETATM   41  O5  UNL     1      24.203  -1.491  21.506  1.00  0.00    -0.390 OA
ATOM     42  H5  UNL     1      23.889  -1.612  20.618  1.00  0.00     0.210 HD
ENDBRANCH  40  41
BRANCH  40  43
HETATM   43  C31 UNL     1      25.882  -2.298  20.092  1.00  0.00     0.154 C 
BRANCH  43  44
HETATM   44  O6  UNL     1      27.147  -2.858  20.002  1.00  0.00    -0.393 OA
ATOM     45  H6  UNL     1      27.690  -2.384  19.383  1.00  0.00     0.210 HD
ENDBRANCH  43  44
BRANCH  43  46
HETATM   46  C32 UNL     1      24.839  -3.144  19.477  1.00  0.00     0.025 A 
HETATM   47  C33 UNL     1      23.765  -2.577  18.613  1.00  0.00     0.017 A 
HETATM   48  C34 UNL     1      24.903  -3.305  17.951  1.00  0.00    -0.041 A 
HETATM   49  C35 UNL     1      24.654  -4.688  17.411  1.00  0.00     0.015 C 
HETATM   50  C36 UNL     1      25.964  -2.503  17.212  1.00  0.00     0.015 C 
ENDBRANCH  43  46
ENDBRANCH  40  43
ENDBRANCH  37  40
ENDBRANCH   1  37
TORSDOF 16
ENDMDL
MODEL 2
REMARK VINA RESULT: -10.695712613      1.607      2.009
REMARK  16 active torsions:
REMARK  status: ('A' for Active; 'I' for Inactive)
REMARK    1  A    between atoms: C2_2  and  C4_4 
REMARK       I    between atoms: C4_4  and  N1_6 
REMARK    2  A    between atoms: N1_6  and  C5_8 
REMARK    3  A    between atoms: C5_8  and  C6_9 
REMARK    4  A    between atoms: C6_9  and  C7_10 
REMARK    5  A    between atoms: C7_10  and  C8_11 
REMARK    6  A    between atoms: C8_11  and  C9_12 
REMARK    7  A    between atoms: C9_12  and  C10_13 
REMARK    8  A    between atoms: C9_12  and  C29_37 
REMARK       I    between atoms: C10_13  and  N2_15 
REMARK    9  A    between atoms: N2_15  and  C11_17 
REMARK   10  A    between atoms: C20_26  and  O3_27 
REMARK   11  A    between atoms: C29_37  and  O4_38 
REMARK   12  A    between atoms: C29_37  and  C30_40 
REMARK   13  A    between atoms: C30_40  and  O5_41 
REMARK   14  A    between atoms: C30_40  and  C31_43 
REMARK   15  A    between atoms: C31_43  and  O6_44 
REMARK   16  A    between atoms: C31_43  and  C32_46 
ROOT
HETATM    1  C9  UNL     1      27.202  -0.652  23.200  1.00  0.00     0.109 C 
ENDROOT
BRANCH   1   2
HETATM    2  C8  UNL     1      28.276  -1.665  23.040  1.00  0.00     0.017 C 
BRANCH   2   3
HETATM    3  C7  UNL     1      28.582  -2.551  24.182  1.00  0.00     0.002 C 
BRANCH   3   4
HETATM    4  C6  UNL     1      27.276  -2.845  24.936  1.00  0.00     0.020 C 
BRANCH   4   5
HETATM    5  C5  UNL     1      27.018  -4.305  25.092  1.00  0.00     0.122 C 
BRANCH   5   6
HETATM    6  N1  UNL     1      25.728  -4.675  24.506  1.00  0.00    -0.361 N 
HETATM    7  C4  UNL     1      25.703  -5.081  23.142  1.00  0.00     0.221 C 
HETATM    8  O1  UNL     1      26.724  -5.132  22.418  1.00  0.00    -0.273 OA
ATOM      9  H1  UNL     1      24.872  -4.644  25.060  1.00  0.00     0.162 HD
BRANCH   7  10
HETATM   10  C2  UNL     1      24.415  -5.472  22.511  1.00  0.00     0.070 C 
HETATM   11  C1  UNL     1      24.704  -6.373  21.335  1.00  0.00     0.019 C 
HETATM   12  C3  UNL     1      23.510  -6.187  23.496  1.00  0.00     0.019 C 
ENDBRANCH   7  10
ENDBRANCH   5   6
ENDBRANCH   4   5
ENDBRANCH   3   4
ENDBRANCH   2   3
ENDBRANCH   1   2
BRANCH   1  13
HETATM   13  C10 UNL     1      27.564   0.613  23.828  1.00  0.00     0.224 C 
HETATM   14  O2  UNL     1      28.779   0.779  24.233  1.00  0.00    -0.273 OA
HETATM   15  N2  UNL     1      26.725   1.726  24.061  1.00  0.00    -0.356 N 
ATOM     16  H2  UNL     1      25.750   1.667  23.766  1.00  0.00     0.162 HD
BRANCH  15  17
HETATM   17  C11 UNL     1      27.176   2.942  24.694  1.00  0.00     0.089 C 
HETATM   18  C12 UNL     1      26.077   3.455  25.592  1.00  0.00     0.026 C 
HETATM   19  C13 UNL     1      25.907   4.946  25.243  1.00  0.00     0.011 C 
HETATM   20  C14 UNL     1      27.192   5.254  24.617  1.00  0.00     0.021 C 
HETATM   21  C15 UNL     1      27.307   6.420  23.760  1.00  0.00    -0.074 C 
HETATM   22  C28 UNL     1      27.390   4.045  23.680  1.00  0.00     0.016 C 
HETATM   23  C16 UNL     1      26.314   7.244  23.559  1.00  0.00    -0.023 C 
HETATM   24  C25 UNL     1      28.619   6.620  23.128  1.00  0.00     0.023 C 
HETATM   25  C17 UNL     1      26.400   8.456  22.681  1.00  0.00     0.033 C 
HETATM   26  C18 UNL     1      27.844   8.930  22.773  1.00  0.00     0.000 C 
HETATM   27  C19 UNL     1      28.078  10.215  22.042  1.00  0.00     0.037 C 
HETATM   28  C23 UNL     1      28.796   7.856  22.341  1.00  0.00    -0.033 C 
HETATM   29  C20 UNL     1      29.413  10.770  22.488  1.00  0.00     0.118 C 
HETATM   30  C21 UNL     1      30.230   9.729  23.223  1.00  0.00     0.032 C 
HETATM   31  C22 UNL     1      30.209   8.396  22.516  1.00  0.00     0.012 C 
HETATM   32  C24 UNL     1      28.651   7.557  20.841  1.00  0.00     0.016 C 
HETATM   33  C26 UNL     1      28.943   5.360  22.342  1.00  0.00     0.010 C 
HETATM   34  C27 UNL     1      28.808   4.148  23.210  1.00  0.00     0.008 C 
BRANCH  29  35
HETATM   35  O3  UNL     1      29.162  11.810  23.380  1.00  0.00    -0.396 OA
ATOM     36  H3  UNL     1      29.217  11.456  24.259  1.00  0.00     0.210 HD
ENDBRANCH  29  35
ENDBRANCH  15  17
ENDBRANCH   1  13
BRANCH   1  37
HETATM   37  C29 UNL     1      26.389  -0.478  21.942  1.00  0.00     0.162 C 
BRANCH  37  38
HETATM   38  O4  UNL     1      27.056  -0.088  20.836  1.00  0.00    -0.392 OA
ATOM     39  H4  UNL     1      26.548   0.003  20.039  1.00  0.00     0.210 HD
ENDBRANCH  37  38
BRANCH  37  40
HETATM   40  C30 UNL     1      25.620  -1.775  21.697  1.00  0.00     0.176 C 
BRANCH  40  41
HETATM   41  O5  UNL     1      24.229  -1.445  21.722  1.00  0.00    -0.390 OA
ATOM     42  H5  UNL     1      23.966  -1.429  22.635  1.00  0.00     0.210 HD
ENDBRANCH  40  41
BRANCH  40  43
HETATM   43  C31 UNL     1      25.866  -2.323  20.301  1.00  0.00     0.154 C 
BRANCH  43  44
HETATM   44  O6  UNL     1      27.089  -2.970  20.224  1.00  0.00    -0.393 OA
ATOM     45  H6  UNL     1      27.678  -2.674  20.909  1.00  0.00     0.210 HD
ENDBRANCH  43  44
BRANCH  43  46
HETATM   46  C32 UNL     1      24.766  -3.114  19.711  1.00  0.00     0.025 A 
HETATM   47  C33 UNL     1      23.693  -2.488  18.885  1.00  0.00     0.017 A 
HETATM   48  C34 UNL     1      24.775  -3.262  18.182  1.00  0.00    -0.041 A 
HETATM   49  C35 UNL     1      24.445  -4.626  17.638  1.00  0.00     0.015 C 
HETATM   50  C36 UNL     1      25.849  -2.502  17.417  1.00  0.00     0.015 C 
ENDBRANCH  43  46
ENDBRANCH  40  43
ENDBRANCH  37  40
ENDBRANCH   1  37
TORSDOF 16
ENDMDL
MODEL 3
REMARK VINA RESULT: -10.671769500      1.393      1.751
REMARK  16 active torsions:
REMARK  status: ('A' for Active; 'I' for Inactive)
REMARK    1  A    between atoms: C2_2  and  C4_4 
REMARK       I    between atoms: C4_4  and  N1_6 
REMARK    2  A    between atoms: N1_6  and  C5_8 
REMARK    3  A    between atoms: C5_8  and  C6_9 
REMARK    4  A    between atoms: C6_9  and  C7_10 
REMARK    5  A    between atoms: C7_10  and  C8_11 
REMARK    6  A    between atoms: C8_11  and  C9_12 
REMARK    7  A    between atoms: C9_12  and  C10_13 
REMARK    8  A    between atoms: C9_12  and  C29_37 
REMARK       I    between atoms: C10_13  and  N2_15 
REMARK    9  A    between atoms: N2_15  and  C11_17 
REMARK   10  A    between atoms: C20_26  and  O3_27 
REMARK   11  A    between atoms: C29_37  and  O4_38 
REMARK   12  A    between atoms: C29_37  and  C30_40 
REMARK   13  A    between atoms: C30_40  and  O5_41 
REMARK   14  A    between atoms: C30_40  and  C31_43 
REMARK   15  A    between atoms: C31_43  and  O6_44 
REMARK   16  A    between atoms: C31_43  and  C32_46 
ROOT
HETATM    1  C9  UNL     1      27.220  -0.900  23.233  1.00  0.00     0.109 C 
ENDROOT
BRANCH   1   2
HETATM    2  C8  UNL     1      28.342  -1.802  22.868  1.00  0.00     0.017 C 
BRANCH   2   3
HETATM    3  C7  UNL     1      28.383  -3.151  23.472  1.00  0.00     0.002 C 
BRANCH   3   4
HETATM    4  C6  UNL     1      28.266  -3.008  24.997  1.00  0.00     0.020 C 
BRANCH   4   5
HETATM    5  C5  UNL     1      27.118  -3.775  25.561  1.00  0.00     0.122 C 
BRANCH   5   6
HETATM    6  N1  UNL     1      26.531  -4.659  24.552  1.00  0.00    -0.361 N 
HETATM    7  C4  UNL     1      25.452  -5.500  24.944  1.00  0.00     0.221 C 
HETATM    8  O1  UNL     1      24.984  -5.526  26.105  1.00  0.00    -0.273 OA
ATOM      9  H1  UNL     1      26.886  -4.672  23.595  1.00  0.00     0.162 HD
BRANCH   7  10
HETATM   10  C2  UNL     1      24.822  -6.406  23.948  1.00  0.00     0.070 C 
HETATM   11  C1  UNL     1      24.678  -7.778  24.561  1.00  0.00     0.019 C 
HETATM   12  C3  UNL     1      23.463  -5.893  23.512  1.00  0.00     0.019 C 
ENDBRANCH   7  10
ENDBRANCH   5   6
ENDBRANCH   4   5
ENDBRANCH   3   4
ENDBRANCH   2   3
ENDBRANCH   1   2
BRANCH   1  13
HETATM   13  C10 UNL     1      27.561   0.362  23.879  1.00  0.00     0.224 C 
HETATM   14  O2  UNL     1      28.701   0.465  24.477  1.00  0.00    -0.273 OA
HETATM   15  N2  UNL     1      26.773   1.534  23.940  1.00  0.00    -0.356 N 
ATOM     16  H2  UNL     1      25.858   1.526  23.489  1.00  0.00     0.162 HD
BRANCH  15  17
HETATM   17  C11 UNL     1      27.196   2.741  24.609  1.00  0.00     0.089 C 
HETATM   18  C12 UNL     1      26.069   3.229  25.484  1.00  0.00     0.026 C 
HETATM   19  C13 UNL     1      25.896   4.726  25.159  1.00  0.00     0.011 C 
HETATM   20  C14 UNL     1      27.196   5.055  24.575  1.00  0.00     0.021 C 
HETATM   21  C15 UNL     1      27.326   6.237  23.743  1.00  0.00    -0.074 C 
HETATM   22  C28 UNL     1      27.430   3.864  23.621  1.00  0.00     0.016 C 
HETATM   23  C16 UNL     1      26.332   7.057  23.530  1.00  0.00    -0.023 C 
HETATM   24  C25 UNL     1      28.653   6.458  23.151  1.00  0.00     0.023 C 
HETATM   25  C17 UNL     1      26.433   8.286  22.676  1.00  0.00     0.033 C 
HETATM   26  C18 UNL     1      27.870   8.769  22.818  1.00  0.00     0.000 C 
HETATM   27  C19 UNL     1      28.113  10.070  22.118  1.00  0.00     0.037 C 
HETATM   28  C23 UNL     1      28.842   7.711  22.393  1.00  0.00    -0.033 C 
HETATM   29  C20 UNL     1      29.432  10.626  22.612  1.00  0.00     0.118 C 
HETATM   30  C21 UNL     1      30.235   9.577  23.350  1.00  0.00     0.032 C 
HETATM   31  C22 UNL     1      30.245   8.258  22.618  1.00  0.00     0.012 C 
HETATM   32  C24 UNL     1      28.741   7.438  20.885  1.00  0.00     0.016 C 
HETATM   33  C26 UNL     1      29.009   5.216  22.352  1.00  0.00     0.010 C 
HETATM   34  C27 UNL     1      28.859   3.987  23.193  1.00  0.00     0.008 C 
BRANCH  29  35
HETATM   35  O3  UNL     1      29.147  11.648  23.515  1.00  0.00    -0.396 OA
ATOM     36  H3  UNL     1      29.956  11.874  23.958  1.00  0.00     0.210 HD
ENDBRANCH  29  35
ENDBRANCH  15  17
ENDBRANCH   1  13
BRANCH   1  37
HETATM   37  C29 UNL     1      26.227  -0.741  22.109  1.00  0.00     0.162 C 
BRANCH  37  38
HETATM   38  O4  UNL     1      26.654  -0.088  21.008  1.00  0.00    -0.392 OA
ATOM     39  H4  UNL     1      26.228  -0.307  20.188  1.00  0.00     0.210 HD
ENDBRANCH  37  38
BRANCH  37  40
HETATM   40  C30 UNL     1      25.689  -2.127  21.758  1.00  0.00     0.176 C 
BRANCH  40  41
HETATM   41  O5  UNL     1      25.066  -2.641  22.937  1.00  0.00    -0.390 OA
ATOM     42  H5  UNL     1      25.760  -2.816  23.562  1.00  0.00     0.210 HD
ENDBRANCH  40  41
BRANCH  40  43
HETATM   43  C31 UNL     1      24.576  -2.057  20.726  1.00  0.00     0.154 C 
BRANCH  43  44
HETATM   44  O6  UNL     1      23.790  -0.930  20.911  1.00  0.00    -0.393 OA
ATOM     45  H6  UNL     1      23.873  -0.595  21.797  1.00  0.00     0.210 HD
ENDBRANCH  43  44
BRANCH  43  46
HETATM   46  C32 UNL     1      24.982  -2.243  19.318  1.00  0.00     0.025 A 
HETATM   47  C33 UNL     1      26.167  -3.063  18.937  1.00  0.00     0.017 A 
HETATM   48  C34 UNL     1      24.798  -3.652  18.735  1.00  0.00    -0.041 A 
HETATM   49  C35 UNL     1      24.249  -3.732  17.335  1.00  0.00     0.015 C 
HETATM   50  C36 UNL     1      24.313  -4.738  19.683  1.00  0.00     0.015 C 
ENDBRANCH  43  46
ENDBRANCH  40  43
ENDBRANCH  37  40
ENDBRANCH   1  37
TORSDOF 16
ENDMDL
MODEL 4
REMARK VINA RESULT: -10.444417972      1.348      1.643
REMARK  16 active torsions:
REMARK  status: ('A' for Active; 'I' for Inactive)
REMARK    1  A    between atoms: C2_2  and  C4_4 
REMARK       I    between atoms: C4_4  and  N1_6 
REMARK    2  A    between atoms: N1_6  and  C5_8 
REMARK    3  A    between atoms: C5_8  and  C6_9 
REMARK    4  A    between atoms: C6_9  and  C7_10 
REMARK    5  A    between atoms: C7_10  and  C8_11 
REMARK    6  A    between atoms: C8_11  and  C9_12 
REMARK    7  A    between atoms: C9_12  and  C10_13 
REMARK    8  A    between atoms: C9_12  and  C29_37 
REMARK       I    between atoms: C10_13  and  N2_15 
REMARK    9  A    between atoms: N2_15  and  C11_17 
REMARK   10  A    between atoms: C20_26  and  O3_27 
REMARK   11  A    between atoms: C29_37  and  O4_38 
REMARK   12  A    between atoms: C29_37  and  C30_40 
REMARK   13  A    between atoms: C30_40  and  O5_41 
REMARK   14  A    between atoms: C30_40  and  C31_43 
REMARK   15  A    between atoms: C31_43  and  O6_44 
REMARK   16  A    between atoms: C31_43  and  C32_46 
ROOT
HETATM    1  C9  UNL     1      27.182  -0.760  23.067  1.00  0.00     0.109 C 
ENDROOT
BRANCH   1   2
HETATM    2  C8  UNL     1      28.287  -1.728  22.852  1.00  0.00     0.017 C 
BRANCH   2   3
HETATM    3  C7  UNL     1      28.244  -3.015  23.577  1.00  0.00     0.002 C 
BRANCH   3   4
HETATM    4  C6  UNL     1      27.898  -2.738  25.048  1.00  0.00     0.020 C 
BRANCH   4   5
HETATM    5  C5  UNL     1      26.934  -3.727  25.609  1.00  0.00     0.122 C 
BRANCH   5   6
HETATM    6  N1  UNL     1      27.096  -5.036  24.975  1.00  0.00    -0.361 N 
HETATM    7  C4  UNL     1      27.935  -5.991  25.615  1.00  0.00     0.221 C 
HETATM    8  O1  UNL     1      28.544  -5.768  26.686  1.00  0.00    -0.273 OA
ATOM      9  H1  UNL     1      26.622  -5.257  24.099  1.00  0.00     0.162 HD
BRANCH   7  10
HETATM   10  C2  UNL     1      28.121  -7.336  25.007  1.00  0.00     0.070 C 
HETATM   11  C1  UNL     1      28.662  -7.168  23.608  1.00  0.00     0.019 C 
HETATM   12  C3  UNL     1      29.071  -8.188  25.827  1.00  0.00     0.019 C 
ENDBRANCH   7  10
ENDBRANCH   5   6
ENDBRANCH   4   5
ENDBRANCH   3   4
ENDBRANCH   2   3
ENDBRANCH   1   2
BRANCH   1  13
HETATM   13  C10 UNL     1      27.512   0.491  23.739  1.00  0.00     0.224 C 
HETATM   14  O2  UNL     1      28.682   0.622  24.268  1.00  0.00    -0.273 OA
HETATM   15  N2  UNL     1      26.683   1.626  23.894  1.00  0.00    -0.356 N 
ATOM     16  H2  UNL     1      25.742   1.595  23.500  1.00  0.00     0.162 HD
BRANCH  15  17
HETATM   17  C11 UNL     1      27.098   2.825  24.580  1.00  0.00     0.089 C 
HETATM   18  C12 UNL     1      25.956   3.311  25.438  1.00  0.00     0.026 C 
HETATM   19  C13 UNL     1      25.797   4.811  25.121  1.00  0.00     0.011 C 
HETATM   20  C14 UNL     1      27.109   5.139  24.566  1.00  0.00     0.021 C 
HETATM   21  C15 UNL     1      27.261   6.327  23.747  1.00  0.00    -0.074 C 
HETATM   22  C28 UNL     1      27.356   3.955  23.607  1.00  0.00     0.016 C 
HETATM   23  C16 UNL     1      26.276   7.154  23.521  1.00  0.00    -0.023 C 
HETATM   24  C25 UNL     1      28.601   6.547  23.183  1.00  0.00     0.023 C 
HETATM   25  C17 UNL     1      26.399   8.390  22.680  1.00  0.00     0.033 C 
HETATM   26  C18 UNL     1      27.835   8.864  22.854  1.00  0.00     0.000 C 
HETATM   27  C19 UNL     1      28.098  10.170  22.169  1.00  0.00     0.037 C 
HETATM   28  C23 UNL     1      28.810   7.805  22.439  1.00  0.00    -0.033 C 
HETATM   29  C20 UNL     1      29.409  10.715  22.694  1.00  0.00     0.118 C 
HETATM   30  C21 UNL     1      30.193   9.657  23.438  1.00  0.00     0.032 C 
HETATM   31  C22 UNL     1      30.211   8.344  22.696  1.00  0.00     0.012 C 
HETATM   32  C24 UNL     1      28.738   7.545  20.927  1.00  0.00     0.016 C 
HETATM   33  C26 UNL     1      28.966   5.310  22.380  1.00  0.00     0.010 C 
HETATM   34  C27 UNL     1      28.795   4.074  23.208  1.00  0.00     0.008 C 
BRANCH  29  35
HETATM   35  O3  UNL     1      29.111  11.731  23.600  1.00  0.00    -0.396 OA
ATOM     36  H3  UNL     1      29.423  12.547  23.230  1.00  0.00     0.210 HD
ENDBRANCH  29  35
ENDBRANCH  15  17
ENDBRANCH   1  13
BRANCH   1  37
HETATM   37  C29 UNL     1      26.345  -0.565  21.828  1.00  0.00     0.162 C 
BRANCH  37  38
HETATM   38  O4  UNL     1      26.990  -0.153  20.717  1.00  0.00    -0.392 OA
ATOM     39  H4  UNL     1      26.580   0.542  20.216  1.00  0.00     0.210 HD
ENDBRANCH  37  38
BRANCH  37  40
HETATM   40  C30 UNL     1      25.573  -1.858  21.574  1.00  0.00     0.176 C 
BRANCH  40  41
HETATM   41  O5  UNL     1      24.183  -1.529  21.623  1.00  0.00    -0.390 OA
ATOM     42  H5  UNL     1      23.923  -1.560  22.536  1.00  0.00     0.210 HD
ENDBRANCH  40  41
BRANCH  40  43
HETATM   43  C31 UNL     1      25.801  -2.386  20.167  1.00  0.00     0.154 C 
BRANCH  43  44
HETATM   44  O6  UNL     1      27.015  -3.048  20.070  1.00  0.00    -0.393 OA
ATOM     45  H6  UNL     1      27.195  -3.305  19.173  1.00  0.00     0.210 HD
ENDBRANCH  43  44
BRANCH  43  46
HETATM   46  C32 UNL     1      24.685  -3.152  19.572  1.00  0.00     0.025 A 
HETATM   47  C33 UNL     1      23.641  -2.504  18.728  1.00  0.00     0.017 A 
HETATM   48  C34 UNL     1      24.709  -3.316  18.046  1.00  0.00    -0.041 A 
HETATM   49  C35 UNL     1      24.346  -4.676  17.512  1.00  0.00     0.015 C 
HETATM   50  C36 UNL     1      25.813  -2.596  17.286  1.00  0.00     0.015 C 
ENDBRANCH  43  46
ENDBRANCH  40  43
ENDBRANCH  37  40
ENDBRANCH   1  37
TORSDOF 16
ENDMDL
MODEL 5
REMARK VINA RESULT: -10.096700897      2.097      4.225
REMARK  16 active torsions:
REMARK  status: ('A' for Active; 'I' for Inactive)
REMARK    1  A    between atoms: C2_2  and  C4_4 
REMARK       I    between atoms: C4_4  and  N1_6 
REMARK    2  A    between atoms: N1_6  and  C5_8 
REMARK    3  A    between atoms: C5_8  and  C6_9 
REMARK    4  A    between atoms: C6_9  and  C7_10 
REMARK    5  A    between atoms: C7_10  and  C8_11 
REMARK    6  A    between atoms: C8_11  and  C9_12 
REMARK    7  A    between atoms: C9_12  and  C10_13 
REMARK    8  A    between atoms: C9_12  and  C29_37 
REMARK       I    between atoms: C10_13  and  N2_15 
REMARK    9  A    between atoms: N2_15  and  C11_17 
REMARK   10  A    between atoms: C20_26  and  O3_27 
REMARK   11  A    between atoms: C29_37  and  O4_38 
REMARK   12  A    between atoms: C29_37  and  C30_40 
REMARK   13  A    between atoms: C30_40  and  O5_41 
REMARK   14  A    between atoms: C30_40  and  C31_43 
REMARK   15  A    between atoms: C31_43  and  O6_44 
REMARK   16  A    between atoms: C31_43  and  C32_46 
ROOT
HETATM    1  C9  UNL     1      27.243  -0.828  23.057  1.00  0.00     0.109 C 
ENDROOT
BRANCH   1   2
HETATM    2  C8  UNL     1      26.395  -0.745  21.841  1.00  0.00     0.017 C 
BRANCH   2   3
HETATM    3  C7  UNL     1      26.693  -1.653  20.714  1.00  0.00     0.002 C 
BRANCH   3   4
HETATM    4  C6  UNL     1      25.398  -2.378  20.313  1.00  0.00     0.020 C 
BRANCH   4   5
HETATM    5  C5  UNL     1      25.501  -3.859  20.448  1.00  0.00     0.122 C 
BRANCH   5   6
HETATM    6  N1  UNL     1      24.581  -4.357  21.473  1.00  0.00    -0.361 N 
HETATM    7  C4  UNL     1      24.521  -5.762  21.692  1.00  0.00     0.221 C 
HETATM    8  O1  UNL     1      25.208  -6.591  21.053  1.00  0.00    -0.273 OA
ATOM      9  H1  UNL     1      24.000  -3.716  22.013  1.00  0.00     0.162 HD
BRANCH   7  10
HETATM   10  C2  UNL     1      23.606  -6.309  22.728  1.00  0.00     0.070 C 
HETATM   11  C1  UNL     1      24.067  -7.697  23.101  1.00  0.00     0.019 C 
HETATM   12  C3  UNL     1      23.576  -5.428  23.963  1.00  0.00     0.019 C 
ENDBRANCH   7  10
ENDBRANCH   5   6
ENDBRANCH   4   5
ENDBRANCH   3   4
ENDBRANCH   2   3
ENDBRANCH   1   2
BRANCH   1  13
HETATM   13  C10 UNL     1      27.556   0.422  23.739  1.00  0.00     0.224 C 
HETATM   14  O2  UNL     1      28.717   0.555  24.289  1.00  0.00    -0.273 OA
HETATM   15  N2  UNL     1      26.721   1.554  23.883  1.00  0.00    -0.356 N 
ATOM     16  H2  UNL     1      25.787   1.521  23.472  1.00  0.00     0.162 HD
BRANCH  15  17
HETATM   17  C11 UNL     1      27.120   2.752  24.580  1.00  0.00     0.089 C 
HETATM   18  C12 UNL     1      25.962   3.230  25.422  1.00  0.00     0.026 C 
HETATM   19  C13 UNL     1      25.801   4.730  25.109  1.00  0.00     0.011 C 
HETATM   20  C14 UNL     1      27.120   5.066  24.575  1.00  0.00     0.021 C 
HETATM   21  C15 UNL     1      27.279   6.258  23.763  1.00  0.00    -0.074 C 
HETATM   22  C28 UNL     1      27.387   3.888  23.615  1.00  0.00     0.016 C 
HETATM   23  C16 UNL     1      26.293   7.081  23.525  1.00  0.00    -0.023 C 
HETATM   24  C25 UNL     1      28.626   6.487  23.221  1.00  0.00     0.023 C 
HETATM   25  C17 UNL     1      26.424   8.321  22.691  1.00  0.00     0.033 C 
HETATM   26  C18 UNL     1      27.855   8.802  22.889  1.00  0.00     0.000 C 
HETATM   27  C19 UNL     1      28.122  10.111  22.213  1.00  0.00     0.037 C 
HETATM   28  C23 UNL     1      28.841   7.749  22.485  1.00  0.00    -0.033 C 
HETATM   29  C20 UNL     1      29.422  10.661  22.760  1.00  0.00     0.118 C 
HETATM   30  C21 UNL     1      30.200   9.603  23.513  1.00  0.00     0.032 C 
HETATM   31  C22 UNL     1      30.235   8.293  22.766  1.00  0.00     0.012 C 
HETATM   32  C24 UNL     1      28.793   7.495  20.971  1.00  0.00     0.016 C 
HETATM   33  C26 UNL     1      29.010   5.255  22.419  1.00  0.00     0.010 C 
HETATM   34  C27 UNL     1      28.831   4.015  23.239  1.00  0.00     0.008 C 
BRANCH  29  35
HETATM   35  O3  UNL     1      29.105  11.671  23.665  1.00  0.00    -0.396 OA
ATOM     36  H3  UNL     1      28.161  11.691  23.756  1.00  0.00     0.210 HD
ENDBRANCH  29  35
ENDBRANCH  15  17
ENDBRANCH   1  13
BRANCH   1  37
HETATM   37  C29 UNL     1      26.789  -1.918  23.996  1.00  0.00     0.162 C 
BRANCH  37  38
HETATM   38  O4  UNL     1      25.588  -2.478  23.742  1.00  0.00    -0.392 OA
ATOM     39  H4  UNL     1      24.824  -1.927  23.864  1.00  0.00     0.210 HD
ENDBRANCH  37  38
BRANCH  37  40
HETATM   40  C30 UNL     1      27.891  -2.973  24.057  1.00  0.00     0.176 C 
BRANCH  40  41
HETATM   41  O5  UNL     1      29.090  -2.300  24.450  1.00  0.00    -0.390 OA
ATOM     42  H5  UNL     1      29.307  -2.608  25.321  1.00  0.00     0.210 HD
ENDBRANCH  40  41
BRANCH  40  43
HETATM   43  C31 UNL     1      27.638  -3.993  25.155  1.00  0.00     0.154 C 
BRANCH  43  44
HETATM   44  O6  UNL     1      26.961  -3.423  26.222  1.00  0.00    -0.393 OA
ATOM     45  H6  UNL     1      27.538  -2.875  26.742  1.00  0.00     0.210 HD
ENDBRANCH  43  44
BRANCH  43  46
HETATM   46  C32 UNL     1      27.047  -5.277  24.725  1.00  0.00     0.025 A 
HETATM   47  C33 UNL     1      27.812  -6.272  23.921  1.00  0.00     0.017 A 
HETATM   48  C34 UNL     1      27.611  -6.543  25.387  1.00  0.00    -0.041 A 
HETATM   49  C35 UNL     1      26.609  -7.591  25.794  1.00  0.00     0.015 C 
HETATM   50  C36 UNL     1      28.784  -6.365  26.339  1.00  0.00     0.015 C 
ENDBRANCH  43  46
ENDBRANCH  40  43
ENDBRANCH  37  40
ENDBRANCH   1  37
TORSDOF 16
ENDMDL
