MODEL 1
REMARK VINA RESULT: -6.797005624      0.000      0.000
REMARK  4 active torsions:
REMARK  status: ('A' for Active; 'I' for Inactive)
REMARK    1  A    between atoms: N2_5  and  C3_6 
REMARK    2  A    between atoms: C7_10  and  C8_11 
REMARK    3  A    between atoms: C12_15  and  C13_16 
REMARK    4  A    between atoms: C15_19  and  N3_20 
ROOT
HETATM    1  C1  UNL     1      -2.405  34.651  -3.090  1.00  0.00     0.070 C 
HETATM    2  C2  UNL     1      -1.562  35.661  -2.365  1.00  0.00     0.036 A 
HETATM    3  N1  UNL     1      -1.139  36.795  -2.903  1.00  0.00    -0.301 N 
ATOM      4  H1  UNL     1      -1.331  37.077  -3.864  1.00  0.00     0.187 HD
HETATM    5  N2  UNL     1      -0.415  37.544  -2.017  1.00  0.00    -0.286 N 
HETATM    6  C7  UNL     1      -0.387  36.844  -0.891  1.00  0.00     0.048 A 
HETATM    7  C12 UNL     1      -1.119  35.632  -1.087  1.00  0.00     0.039 A 
ENDROOT
BRANCH   7   8
HETATM    8  C13 UNL     1      -1.217  34.470  -0.155  1.00  0.00     0.055 A 
HETATM    9  C14 UNL     1      -0.062  33.721   0.058  1.00  0.00     0.083 A 
HETATM   10  S1  UNL     1      -0.537  32.623   1.247  1.00  0.00    -0.064 SA
HETATM   11  C15 UNL     1      -2.187  33.152   1.433  1.00  0.00     0.142 A 
HETATM   12  N4  UNL     1      -2.261  34.137   0.568  1.00  0.00    -0.336 N 
ATOM     13  H4  UNL     1      -3.137  34.648   0.458  1.00  0.00     0.168 HD
BRANCH  11  14
HETATM   14  N3  UNL     1      -3.056  32.613   2.234  1.00  0.00    -0.380 N 
ATOM     15  H32 UNL     1      -2.985  31.885   2.944  1.00  0.00     0.158 HD
ATOM     16  H31 UNL     1      -4.037  32.884   2.299  1.00  0.00     0.158 HD
ENDBRANCH  11  14
ENDBRANCH   7   8
BRANCH   6  17
HETATM   17  C8  UNL     1       0.168  37.090   0.430  1.00  0.00     0.038 C 
HETATM   18  C9  UNL     1       1.738  37.054   0.314  1.00  0.00     0.011 C 
HETATM   19  C10 UNL     1       1.690  37.842   1.635  1.00  0.00     0.001 C 
HETATM   20  C11 UNL     1       0.436  38.493   0.937  1.00  0.00     0.011 C 
ENDBRANCH   6  17
BRANCH   5  21
HETATM   21  C3  UNL     1       0.065  38.861  -2.428  1.00  0.00     0.043 C 
HETATM   22  C4  UNL     1      -0.671  40.030  -1.851  1.00  0.00     0.039 C 
HETATM   23  C5  UNL     1      -0.406  38.958  -3.949  1.00  0.00     0.039 C 
HETATM   24  C6  UNL     1       1.544  39.001  -2.571  1.00  0.00     0.039 C 
ENDBRANCH   5  21
TORSDOF 4
ENDMDL
MODEL 2
REMARK VINA RESULT: -6.644367990      1.258      1.436
REMARK  4 active torsions:
REMARK  status: ('A' for Active; 'I' for Inactive)
REMARK    1  A    between atoms: N2_5  and  C3_6 
REMARK    2  A    between atoms: C7_10  and  C8_11 
REMARK    3  A    between atoms: C12_15  and  C13_16 
REMARK    4  A    between atoms: C15_19  and  N3_20 
ROOT
HETATM    1  C1  UNL     1      -2.271  34.543  -2.933  1.00  0.00     0.070 C 
HETATM    2  C2  UNL     1      -1.472  35.602  -2.229  1.00  0.00     0.036 A 
HETATM    3  N1  UNL     1      -1.249  36.811  -2.720  1.00  0.00    -0.301 N 
ATOM      4  H1  UNL     1      -1.583  37.128  -3.630  1.00  0.00     0.187 HD
HETATM    5  N2  UNL     1      -0.517  37.586  -1.863  1.00  0.00    -0.286 N 
HETATM    6  C7  UNL     1      -0.276  36.825  -0.805  1.00  0.00     0.048 A 
HETATM    7  C12 UNL     1      -0.880  35.547  -1.013  1.00  0.00     0.039 A 
ENDROOT
BRANCH   7   8
HETATM    8  C13 UNL     1      -0.733  34.325  -0.168  1.00  0.00     0.055 A 
HETATM    9  C14 UNL     1      -1.789  34.003   0.681  1.00  0.00     0.083 A 
HETATM   10  S1  UNL     1      -1.311  32.523   1.335  1.00  0.00    -0.064 SA
HETATM   11  C15 UNL     1       0.215  32.365   0.508  1.00  0.00     0.142 A 
HETATM   12  N4  UNL     1       0.254  33.459  -0.215  1.00  0.00    -0.336 N 
ATOM     13  H4  UNL     1       1.056  33.639  -0.818  1.00  0.00     0.168 HD
BRANCH  11  14
HETATM   14  N3  UNL     1       1.048  31.381   0.666  1.00  0.00    -0.380 N 
ATOM     15  H32 UNL     1       0.937  30.426   1.006  1.00  0.00     0.158 HD
ATOM     16  H31 UNL     1       2.039  31.409   0.423  1.00  0.00     0.158 HD
ENDBRANCH  11  14
ENDBRANCH   7   8
BRANCH   6  17
HETATM   17  C8  UNL     1       0.399  37.053   0.463  1.00  0.00     0.038 C 
HETATM   18  C9  UNL     1       1.947  37.129   0.184  1.00  0.00     0.011 C 
HETATM   19  C10 UNL     1       1.989  37.857   1.540  1.00  0.00     0.001 C 
HETATM   20  C11 UNL     1       0.629  38.449   1.006  1.00  0.00     0.011 C 
ENDBRANCH   6  17
BRANCH   5  21
HETATM   21  C3  UNL     1      -0.244  38.976  -2.221  1.00  0.00     0.043 C 
HETATM   22  C4  UNL     1      -1.068  40.004  -1.511  1.00  0.00     0.039 C 
HETATM   23  C5  UNL     1      -0.855  39.096  -3.690  1.00  0.00     0.039 C 
HETATM   24  C6  UNL     1       1.187  39.316  -2.472  1.00  0.00     0.039 C 
ENDBRANCH   5  21
TORSDOF 4
ENDMDL
MODEL 3
REMARK VINA RESULT: -6.360071257      2.447      5.269
REMARK  4 active torsions:
REMARK  status: ('A' for Active; 'I' for Inactive)
REMARK    1  A    between atoms: N2_5  and  C3_6 
REMARK    2  A    between atoms: C7_10  and  C8_11 
REMARK    3  A    between atoms: C12_15  and  C13_16 
REMARK    4  A    between atoms: C15_19  and  N3_20 
ROOT
HETATM    1  C1  UNL     1      -2.387  34.618  -2.854  1.00  0.00     0.070 C 
HETATM    2  C2  UNL     1      -1.264  34.600  -1.858  1.00  0.00     0.036 A 
HETATM    3  N1  UNL     1      -0.982  33.568  -1.077  1.00  0.00    -0.301 N 
ATOM      4  H1  UNL     1      -1.515  32.698  -1.068  1.00  0.00     0.187 HD
HETATM    5  N2  UNL     1       0.107  33.806  -0.285  1.00  0.00    -0.286 N 
HETATM    6  C7  UNL     1       0.510  35.032  -0.585  1.00  0.00     0.048 A 
HETATM    7  C12 UNL     1      -0.352  35.564  -1.595  1.00  0.00     0.039 A 
ENDROOT
BRANCH   7   8
HETATM    8  C13 UNL     1      -0.381  36.961  -2.119  1.00  0.00     0.055 A 
HETATM    9  C14 UNL     1       0.314  37.216  -3.299  1.00  0.00     0.083 A 
HETATM   10  S1  UNL     1      -0.075  38.825  -3.626  1.00  0.00    -0.064 SA
HETATM   11  C15 UNL     1      -1.105  39.119  -2.252  1.00  0.00     0.142 A 
HETATM   12  N4  UNL     1      -1.082  37.961  -1.635  1.00  0.00    -0.336 N 
ATOM     13  H4  UNL     1      -1.612  37.836  -0.773  1.00  0.00     0.168 HD
BRANCH  11  14
HETATM   14  N3  UNL     1      -1.679  40.252  -1.981  1.00  0.00    -0.380 N 
ATOM     15  H32 UNL     1      -1.315  41.180  -1.765  1.00  0.00     0.158 HD
ATOM     16  H31 UNL     1      -2.687  40.408  -1.967  1.00  0.00     0.158 HD
ENDBRANCH  11  14
ENDBRANCH   7   8
BRANCH   6  17
HETATM   17  C8  UNL     1       1.622  35.860  -0.145  1.00  0.00     0.038 C 
HETATM   18  C9  UNL     1       1.063  36.924   0.873  1.00  0.00     0.011 C 
HETATM   19  C10 UNL     1       2.532  37.024   1.322  1.00  0.00     0.001 C 
HETATM   20  C11 UNL     1       2.486  35.474   1.039  1.00  0.00     0.011 C 
ENDBRANCH   6  17
BRANCH   5  21
HETATM   21  C3  UNL     1       0.597  32.740   0.585  1.00  0.00     0.043 C 
HETATM   22  C4  UNL     1       2.046  32.395   0.436  1.00  0.00     0.039 C 
HETATM   23  C5  UNL     1      -0.067  31.431  -0.039  1.00  0.00     0.039 C 
HETATM   24  C6  UNL     1       0.039  32.718   1.969  1.00  0.00     0.039 C 
ENDBRANCH   5  21
TORSDOF 4
ENDMDL
MODEL 4
REMARK VINA RESULT: -6.252507093      2.552      5.978
REMARK  4 active torsions:
REMARK  status: ('A' for Active; 'I' for Inactive)
REMARK    1  A    between atoms: N2_5  and  C3_6 
REMARK    2  A    between atoms: C7_10  and  C8_11 
REMARK    3  A    between atoms: C12_15  and  C13_16 
REMARK    4  A    between atoms: C15_19  and  N3_20 
ROOT
HETATM    1  C1  UNL     1       3.010  37.100  -0.192  1.00  0.00     0.070 C 
HETATM    2  C2  UNL     1       1.899  36.098  -0.057  1.00  0.00     0.036 A 
HETATM    3  N1  UNL     1       2.081  34.829   0.275  1.00  0.00    -0.301 N 
ATOM      4  H1  UNL     1       2.995  34.412   0.450  1.00  0.00     0.187 HD
HETATM    5  N2  UNL     1       0.900  34.145   0.355  1.00  0.00    -0.286 N 
HETATM    6  C7  UNL     1      -0.047  35.024   0.057  1.00  0.00     0.048 A 
HETATM    7  C12 UNL     1       0.567  36.287  -0.209  1.00  0.00     0.039 A 
ENDROOT
BRANCH   7   8
HETATM    8  C13 UNL     1      -0.086  37.519  -0.741  1.00  0.00     0.055 A 
HETATM    9  C14 UNL     1      -0.093  38.645   0.080  1.00  0.00     0.083 A 
HETATM   10  S1  UNL     1      -0.771  39.830  -0.910  1.00  0.00    -0.064 SA
HETATM   11  C15 UNL     1      -1.024  38.856  -2.332  1.00  0.00     0.142 A 
HETATM   12  N4  UNL     1      -0.570  37.685  -1.950  1.00  0.00    -0.336 N 
ATOM     13  H4  UNL     1      -0.593  36.898  -2.598  1.00  0.00     0.168 HD
BRANCH  11  14
HETATM   14  N3  UNL     1      -1.568  39.275  -3.435  1.00  0.00    -0.380 N 
ATOM     15  H32 UNL     1      -2.165  38.824  -4.128  1.00  0.00     0.158 HD
ATOM     16  H31 UNL     1      -1.493  40.225  -3.799  1.00  0.00     0.158 HD
ENDBRANCH  11  14
ENDBRANCH   7   8
BRANCH   6  17
HETATM   17  C8  UNL     1      -1.499  34.957   0.007  1.00  0.00     0.038 C 
HETATM   18  C9  UNL     1      -1.905  34.199  -1.313  1.00  0.00     0.011 C 
HETATM   19  C10 UNL     1      -3.239  33.973  -0.578  1.00  0.00     0.001 C 
HETATM   20  C11 UNL     1      -2.270  33.826   0.657  1.00  0.00     0.011 C 
ENDBRANCH   6  17
BRANCH   5  21
HETATM   21  C3  UNL     1       0.917  32.748   0.782  1.00  0.00     0.043 C 
HETATM   22  C4  UNL     1       0.505  32.497   2.199  1.00  0.00     0.039 C 
HETATM   23  C5  UNL     1       2.476  32.422   0.884  1.00  0.00     0.039 C 
HETATM   24  C6  UNL     1       0.476  31.749  -0.235  1.00  0.00     0.039 C 
ENDBRANCH   5  21
TORSDOF 4
ENDMDL
MODEL 5
REMARK VINA RESULT: -6.169392029      2.289      4.188
REMARK  4 active torsions:
REMARK  status: ('A' for Active; 'I' for Inactive)
REMARK    1  A    between atoms: N2_5  and  C3_6 
REMARK    2  A    between atoms: C7_10  and  C8_11 
REMARK    3  A    between atoms: C12_15  and  C13_16 
REMARK    4  A    between atoms: C15_19  and  N3_20 
ROOT
HETATM    1  C1  UNL     1       2.342  33.982   0.833  1.00  0.00     0.070 C 
HETATM    2  C2  UNL     1       1.995  35.439   0.929  1.00  0.00     0.036 A 
HETATM    3  N1  UNL     1       2.746  36.341   1.542  1.00  0.00    -0.301 N 
ATOM      4  H1  UNL     1       3.620  36.125   2.020  1.00  0.00     0.187 HD
HETATM    5  N2  UNL     1       2.212  37.598   1.456  1.00  0.00    -0.286 N 
HETATM    6  C7  UNL     1       1.087  37.465   0.768  1.00  0.00     0.048 A 
HETATM    7  C12 UNL     1       0.924  36.089   0.415  1.00  0.00     0.039 A 
ENDROOT
BRANCH   7   8
HETATM    8  C13 UNL     1      -0.267  35.448  -0.214  1.00  0.00     0.055 A 
HETATM    9  C14 UNL     1      -0.183  35.131  -1.568  1.00  0.00     0.083 A 
HETATM   10  S1  UNL     1      -1.632  34.316  -1.856  1.00  0.00    -0.064 SA
HETATM   11  C15 UNL     1      -2.295  34.406  -0.248  1.00  0.00     0.142 A 
HETATM   12  N4  UNL     1      -1.359  35.057   0.402  1.00  0.00    -0.336 N 
ATOM     13  H4  UNL     1      -1.479  35.260   1.395  1.00  0.00     0.168 HD
BRANCH  11  14
HETATM   14  N3  UNL     1      -3.455  33.941   0.107  1.00  0.00    -0.380 N 
ATOM     15  H32 UNL     1      -3.971  33.098  -0.145  1.00  0.00     0.158 HD
ATOM     16  H31 UNL     1      -4.081  34.383   0.781  1.00  0.00     0.158 HD
ENDBRANCH  11  14
ENDBRANCH   7   8
BRANCH   6  17
HETATM   17  C8  UNL     1       0.083  38.404   0.294  1.00  0.00     0.038 C 
HETATM   18  C9  UNL     1       0.819  39.533  -0.522  1.00  0.00     0.011 C 
HETATM   19  C10 UNL     1      -0.574  39.774  -1.130  1.00  0.00     0.001 C 
HETATM   20  C11 UNL     1      -0.642  38.203  -1.022  1.00  0.00     0.011 C 
ENDBRANCH   6  17
BRANCH   5  21
HETATM   21  C3  UNL     1       2.954  38.724   2.017  1.00  0.00     0.043 C 
HETATM   22  C4  UNL     1       4.045  39.278   1.154  1.00  0.00     0.039 C 
HETATM   23  C5  UNL     1       3.827  38.043   3.166  1.00  0.00     0.039 C 
HETATM   24  C6  UNL     1       2.153  39.707   2.803  1.00  0.00     0.039 C 
ENDBRANCH   5  21
TORSDOF 4
ENDMDL
