MODEL 1
REMARK VINA RESULT: -8.077482328      0.000      0.000
REMARK  2 active torsions:
REMARK  status: ('A' for Active; 'I' for Inactive)
REMARK    1  A    between atoms: C5_6  and  C6_7 
REMARK    2  A    between atoms: N4_14  and  N5_15 
ROOT
HETATM    1  C1  UNL     1      -2.371  31.766   3.728  1.00  0.00     0.231 C 
HETATM    2  N1  UNL     1      -1.914  32.121   2.730  1.00  0.00    -0.411 NA
HETATM    3  C2  UNL     1      -1.344  32.552   1.526  1.00  0.00     0.177 A 
HETATM    4  C3  UNL     1      -0.133  32.159   1.015  1.00  0.00     0.066 A 
HETATM    5  C4  UNL     1       0.027  32.828  -0.175  1.00  0.00     0.038 A 
HETATM    6  C5  UNL     1      -1.074  33.627  -0.398  1.00  0.00     0.082 A 
HETATM    7  N6  UNL     1      -1.869  33.427   0.652  1.00  0.00    -0.328 N 
ATOM      8  H6  UNL     1      -2.771  33.885   0.778  1.00  0.00     0.168 HD
ENDROOT
BRANCH   6   9
HETATM    9  C6  UNL     1      -1.232  34.480  -1.571  1.00  0.00     0.171 A 
HETATM   10  N2  UNL     1      -2.338  34.513  -2.378  1.00  0.00    -0.280 N 
HETATM   11  N3  UNL     1      -2.160  35.388  -3.339  1.00  0.00    -0.273 N 
ATOM     12  H2  UNL     1      -3.174  33.943  -2.250  1.00  0.00     0.188 HD
HETATM   13  C7  UNL     1      -0.954  35.962  -3.217  1.00  0.00     0.214 A 
ATOM     14  H3  UNL     1      -2.838  35.601  -4.071  1.00  0.00     0.189 HD
HETATM   15  S1  UNL     1      -0.296  37.116  -4.179  1.00  0.00    -0.037 SA
HETATM   16  N4  UNL     1      -0.395  35.382  -2.111  1.00  0.00    -0.209 N 
BRANCH  16  17
HETATM   17  N5  UNL     1       0.869  35.709  -1.648  1.00  0.00    -0.298 N 
HETATM   18  C8  UNL     1       1.000  36.556  -0.690  1.00  0.00     0.004 C 
HETATM   19  C9  UNL     1      -0.244  37.132  -0.140  1.00  0.00     0.054 C 
HETATM   20  C14 UNL     1       2.413  36.852  -0.249  1.00  0.00     0.054 C 
HETATM   21  C10 UNL     1      -0.004  38.608   0.231  1.00  0.00     0.006 C 
HETATM   22  C11 UNL     1       0.598  38.691   1.617  1.00  0.00     0.000 C 
HETATM   23  C12 UNL     1       2.094  38.521   1.593  1.00  0.00     0.000 C 
HETATM   24  C13 UNL     1       2.453  37.097   1.241  1.00  0.00     0.006 C 
ATOM     25  H5  UNL     1       1.694  35.279  -2.066  1.00  0.00     0.187 HD
ENDBRANCH  16  17
ENDBRANCH   6   9
TORSDOF 2
ENDMDL
MODEL 2
REMARK VINA RESULT: -7.958420270      1.034      1.681
REMARK  2 active torsions:
REMARK  status: ('A' for Active; 'I' for Inactive)
REMARK    1  A    between atoms: C5_6  and  C6_7 
REMARK    2  A    between atoms: N4_14  and  N5_15 
ROOT
HETATM    1  C1  UNL     1      -3.536  31.521   3.513  1.00  0.00     0.231 C 
HETATM    2  N1  UNL     1      -2.907  32.015   2.681  1.00  0.00    -0.411 NA
HETATM    3  C2  UNL     1      -2.131  32.617   1.684  1.00  0.00     0.177 A 
HETATM    4  C3  UNL     1      -0.777  32.473   1.511  1.00  0.00     0.066 A 
HETATM    5  C4  UNL     1      -0.437  33.238   0.421  1.00  0.00     0.038 A 
HETATM    6  C5  UNL     1      -1.569  33.848  -0.075  1.00  0.00     0.082 A 
HETATM    7  N6  UNL     1      -2.561  33.445   0.717  1.00  0.00    -0.328 N 
ATOM      8  H6  UNL     1      -3.532  33.732   0.604  1.00  0.00     0.168 HD
ENDROOT
BRANCH   6   9
HETATM    9  C6  UNL     1      -1.568  34.738  -1.232  1.00  0.00     0.171 A 
HETATM   10  N2  UNL     1      -1.763  34.344  -2.529  1.00  0.00    -0.280 N 
HETATM   11  N3  UNL     1      -1.705  35.388  -3.323  1.00  0.00    -0.273 N 
ATOM     12  H2  UNL     1      -1.927  33.384  -2.832  1.00  0.00     0.188 HD
HETATM   13  C7  UNL     1      -1.475  36.497  -2.605  1.00  0.00     0.214 A 
ATOM     14  H3  UNL     1      -1.820  35.360  -4.337  1.00  0.00     0.189 HD
HETATM   15  S1  UNL     1      -1.331  38.033  -3.159  1.00  0.00    -0.037 SA
HETATM   16  N4  UNL     1      -1.393  36.069  -1.308  1.00  0.00    -0.209 N 
BRANCH  16  17
HETATM   17  N5  UNL     1      -1.156  36.927  -0.246  1.00  0.00    -0.298 N 
HETATM   18  C8  UNL     1       0.051  37.175   0.119  1.00  0.00     0.004 C 
HETATM   19  C9  UNL     1       1.125  36.506  -0.644  1.00  0.00     0.054 C 
HETATM   20  C14 UNL     1       0.215  38.121   1.283  1.00  0.00     0.054 C 
HETATM   21  C10 UNL     1       2.270  36.123   0.313  1.00  0.00     0.006 C 
HETATM   22  C11 UNL     1       3.194  37.307   0.496  1.00  0.00     0.000 C 
HETATM   23  C12 UNL     1       2.702  38.246   1.565  1.00  0.00     0.000 C 
HETATM   24  C13 UNL     1       1.457  38.962   1.100  1.00  0.00     0.006 C 
ATOM     25  H5  UNL     1      -1.937  37.360   0.244  1.00  0.00     0.187 HD
ENDBRANCH  16  17
ENDBRANCH   6   9
TORSDOF 2
ENDMDL
MODEL 3
REMARK VINA RESULT: -7.721889239      2.419      5.431
REMARK  2 active torsions:
REMARK  status: ('A' for Active; 'I' for Inactive)
REMARK    1  A    between atoms: C5_6  and  C6_7 
REMARK    2  A    between atoms: N4_14  and  N5_15 
ROOT
HETATM    1  C1  UNL     1      -0.105  39.093  -7.526  1.00  0.00     0.231 C 
HETATM    2  N1  UNL     1      -0.326  38.707  -6.461  1.00  0.00    -0.411 NA
HETATM    3  C2  UNL     1      -0.586  38.252  -5.163  1.00  0.00     0.177 A 
HETATM    4  C3  UNL     1      -0.860  39.033  -4.068  1.00  0.00     0.066 A 
HETATM    5  C4  UNL     1      -1.047  38.175  -3.011  1.00  0.00     0.038 A 
HETATM    6  C5  UNL     1      -0.888  36.877  -3.446  1.00  0.00     0.082 A 
HETATM    7  N6  UNL     1      -0.612  36.975  -4.746  1.00  0.00    -0.328 N 
ATOM      8  H6  UNL     1      -0.440  36.175  -5.353  1.00  0.00     0.168 HD
ENDROOT
BRANCH   6   9
HETATM    9  C6  UNL     1      -1.013  35.710  -2.578  1.00  0.00     0.171 A 
HETATM   10  N2  UNL     1      -2.099  34.878  -2.530  1.00  0.00    -0.280 N 
HETATM   11  N3  UNL     1      -1.890  33.926  -1.650  1.00  0.00    -0.273 N 
ATOM     12  H2  UNL     1      -2.944  34.982  -3.093  1.00  0.00     0.188 HD
HETATM   13  C7  UNL     1      -0.683  34.082  -1.087  1.00  0.00     0.214 A 
ATOM     14  H3  UNL     1      -2.548  33.179  -1.428  1.00  0.00     0.189 HD
HETATM   15  S1  UNL     1       0.014  33.137   0.057  1.00  0.00    -0.037 SA
HETATM   16  N4  UNL     1      -0.156  35.197  -1.679  1.00  0.00    -0.209 N 
BRANCH  16  17
HETATM   17  N5  UNL     1       1.096  35.697  -1.362  1.00  0.00    -0.298 N 
HETATM   18  C8  UNL     1       1.215  36.590  -0.445  1.00  0.00     0.004 C 
HETATM   19  C9  UNL     1      -0.030  37.028   0.219  1.00  0.00     0.054 C 
HETATM   20  C14 UNL     1       2.616  37.077  -0.165  1.00  0.00     0.054 C 
HETATM   21  C10 UNL     1       0.056  38.536   0.524  1.00  0.00     0.006 C 
HETATM   22  C11 UNL     1       0.781  38.747   1.835  1.00  0.00     0.000 C 
HETATM   23  C12 UNL     1       2.276  38.764   1.657  1.00  0.00     0.000 C 
HETATM   24  C13 UNL     1       2.776  37.383   1.306  1.00  0.00     0.006 C 
ATOM     25  H5  UNL     1       1.922  35.357  -1.854  1.00  0.00     0.187 HD
ENDBRANCH  16  17
ENDBRANCH   6   9
TORSDOF 2
ENDMDL
MODEL 4
REMARK VINA RESULT: -7.710364742      1.394      2.095
REMARK  2 active torsions:
REMARK  status: ('A' for Active; 'I' for Inactive)
REMARK    1  A    between atoms: C5_6  and  C6_7 
REMARK    2  A    between atoms: N4_14  and  N5_15 
ROOT
HETATM    1  C1  UNL     1       0.213  31.645   2.860  1.00  0.00     0.231 C 
HETATM    2  N1  UNL     1      -0.367  32.312   2.117  1.00  0.00    -0.411 NA
HETATM    3  C2  UNL     1      -1.083  33.107   1.215  1.00  0.00     0.177 A 
HETATM    4  C3  UNL     1      -2.448  33.196   1.117  1.00  0.00     0.066 A 
HETATM    5  C4  UNL     1      -2.713  34.087   0.104  1.00  0.00     0.038 A 
HETATM    6  C5  UNL     1      -1.522  34.545  -0.419  1.00  0.00     0.082 A 
HETATM    7  N6  UNL     1      -0.572  33.927   0.281  1.00  0.00    -0.328 N 
ATOM      8  H6  UNL     1       0.427  34.061   0.127  1.00  0.00     0.168 HD
ENDROOT
BRANCH   6   9
HETATM    9  C6  UNL     1      -1.435  35.503  -1.516  1.00  0.00     0.171 A 
HETATM   10  N2  UNL     1      -1.562  35.194  -2.844  1.00  0.00    -0.280 N 
HETATM   11  N3  UNL     1      -1.436  36.282  -3.567  1.00  0.00    -0.273 N 
ATOM     12  H2  UNL     1      -1.730  34.258  -3.215  1.00  0.00     0.188 HD
HETATM   13  C7  UNL     1      -1.223  37.338  -2.770  1.00  0.00     0.214 A 
ATOM     14  H3  UNL     1      -1.492  36.318  -4.585  1.00  0.00     0.189 HD
HETATM   15  S1  UNL     1      -1.013  38.901  -3.218  1.00  0.00    -0.037 SA
HETATM   16  N4  UNL     1      -1.226  36.831  -1.498  1.00  0.00    -0.209 N 
BRANCH  16  17
HETATM   17  N5  UNL     1      -1.033  37.616  -0.374  1.00  0.00    -0.298 N 
HETATM   18  C8  UNL     1       0.144  37.735   0.128  1.00  0.00     0.004 C 
HETATM   19  C9  UNL     1       1.232  37.003  -0.552  1.00  0.00     0.054 C 
HETATM   20  C14 UNL     1       0.263  38.610   1.352  1.00  0.00     0.054 C 
HETATM   21  C10 UNL     1       2.227  36.473   0.498  1.00  0.00     0.006 C 
HETATM   22  C11 UNL     1       3.226  37.557   0.841  1.00  0.00     0.000 C 
HETATM   23  C12 UNL     1       2.705  38.491   1.900  1.00  0.00     0.000 C 
HETATM   24  C13 UNL     1       1.586  39.339   1.345  1.00  0.00     0.006 C 
ATOM     25  H5  UNL     1      -1.822  38.099   0.054  1.00  0.00     0.187 HD
ENDBRANCH  16  17
ENDBRANCH   6   9
TORSDOF 2
ENDMDL
MODEL 5
REMARK VINA RESULT: -7.695032730      1.248      1.504
REMARK  2 active torsions:
REMARK  status: ('A' for Active; 'I' for Inactive)
REMARK    1  A    between atoms: C5_6  and  C6_7 
REMARK    2  A    between atoms: N4_14  and  N5_15 
ROOT
HETATM    1  C1  UNL     1       0.203  31.680   2.394  1.00  0.00     0.231 C 
HETATM    2  N1  UNL     1      -0.290  32.363   1.605  1.00  0.00    -0.411 NA
HETATM    3  C2  UNL     1      -0.901  33.179   0.646  1.00  0.00     0.177 A 
HETATM    4  C3  UNL     1      -2.246  33.425   0.527  1.00  0.00     0.066 A 
HETATM    5  C4  UNL     1      -2.397  34.274  -0.543  1.00  0.00     0.038 A 
HETATM    6  C5  UNL     1      -1.158  34.550  -1.081  1.00  0.00     0.082 A 
HETATM    7  N6  UNL     1      -0.291  33.869  -0.332  1.00  0.00    -0.328 N 
ATOM      8  H6  UNL     1       0.717  33.871  -0.485  1.00  0.00     0.168 HD
ENDROOT
BRANCH   6   9
HETATM    9  C6  UNL     1      -0.952  35.418  -2.236  1.00  0.00     0.171 A 
HETATM   10  N2  UNL     1      -1.874  35.652  -3.221  1.00  0.00    -0.280 N 
HETATM   11  N3  UNL     1      -1.376  36.480  -4.108  1.00  0.00    -0.273 N 
ATOM     12  H2  UNL     1      -2.808  35.243  -3.258  1.00  0.00     0.188 HD
HETATM   13  C7  UNL     1      -0.128  36.826  -3.761  1.00  0.00     0.214 A 
ATOM     14  H3  UNL     1      -1.866  36.812  -4.939  1.00  0.00     0.189 HD
HETATM   15  S1  UNL     1       0.885  37.840  -4.556  1.00  0.00    -0.037 SA
HETATM   16  N4  UNL     1       0.115  36.153  -2.593  1.00  0.00    -0.209 N 
BRANCH  16  17
HETATM   17  N5  UNL     1       1.315  36.245  -1.908  1.00  0.00    -0.298 N 
HETATM   18  C8  UNL     1       1.418  37.038  -0.901  1.00  0.00     0.004 C 
HETATM   19  C9  UNL     1       0.213  37.813  -0.542  1.00  0.00     0.054 C 
HETATM   20  C14 UNL     1       2.761  37.074  -0.214  1.00  0.00     0.054 C 
HETATM   21  C10 UNL     1       0.631  39.217  -0.065  1.00  0.00     0.006 C 
HETATM   22  C11 UNL     1       0.986  39.167   1.405  1.00  0.00     0.000 C 
HETATM   23  C12 UNL     1       2.413  38.738   1.626  1.00  0.00     0.000 C 
HETATM   24  C13 UNL     1       2.581  37.280   1.271  1.00  0.00     0.006 C 
ATOM     25  H5  UNL     1       2.115  35.686  -2.201  1.00  0.00     0.187 HD
ENDBRANCH  16  17
ENDBRANCH   6   9
TORSDOF 2
ENDMDL
