MODEL 1
REMARK VINA RESULT: -7.555341410      0.000      0.000
REMARK  3 active torsions:
REMARK  status: ('A' for Active; 'I' for Inactive)
REMARK    1  A    between atoms: C2_2  and  C3_3 
REMARK    2  A    between atoms: C5_5  and  O1_6 
REMARK    3  A    between atoms: C10_13  and  O2_14 
ROOT
HETATM    1  C3  UNL     1      -0.344  32.533   0.956  1.00  0.00     0.026 C 
HETATM    2  C4  UNL     1      -1.275  32.672   2.213  1.00  0.00     0.052 C 
HETATM    3  C5  UNL     1      -2.673  33.001   1.757  1.00  0.00     0.185 C 
HETATM    4  S1  UNL     1      -2.612  33.678   0.024  1.00  0.00    -0.098 SA
HETATM    5  C6  UNL     1      -1.080  34.619   0.109  1.00  0.00     0.013 A 
HETATM    6  C7  UNL     1      -1.046  35.915  -0.235  1.00  0.00     0.028 A 
HETATM    7  C8  UNL     1       0.124  36.615  -0.021  1.00  0.00    -0.027 A 
HETATM    8  C9  UNL     1       1.201  35.957   0.532  1.00  0.00     0.068 A 
HETATM    9  C10 UNL     1       1.142  34.581   0.887  1.00  0.00     0.103 A 
HETATM   10  C12 UNL     1       0.017  33.895   0.681  1.00  0.00    -0.001 A 
HETATM   11  N1  UNL     1       2.379  36.713   0.744  1.00  0.00    -0.387 N 
ATOM     12  H1  UNL     1       3.287  36.252   0.788  1.00  0.00     0.159 HD
HETATM   13  C13 UNL     1       2.278  38.151   0.899  1.00  0.00     0.124 C 
HETATM   14  C14 UNL     1       1.390  38.772  -0.134  1.00  0.00     0.003 C 
HETATM   15  C15 UNL     1       0.992  40.153   0.409  1.00  0.00     0.012 C 
HETATM   16  C16 UNL     1       0.137  38.029  -0.407  1.00  0.00     0.046 C 
ENDROOT
BRANCH   1  17
HETATM   17  C2  UNL     1       0.513  31.402   1.184  1.00  0.00     0.005 C 
HETATM   18  C1  UNL     1       1.239  30.814  -0.005  1.00  0.00     0.006 C 
ENDBRANCH   1  17
BRANCH   3  19
HETATM   19  O1  UNL     1      -3.579  31.980   1.865  1.00  0.00    -0.385 OA
ATOM     20  H1  UNL     1      -3.426  31.376   2.581  1.00  0.00     0.211 HD
ENDBRANCH   3  19
BRANCH   9  21
HETATM   21  O2  UNL     1       2.272  34.091   1.432  1.00  0.00    -0.353 OA
HETATM   22  C11 UNL     1       3.436  33.528   0.991  1.00  0.00     0.210 C 
ENDBRANCH   9  21
TORSDOF 3
ENDMDL
MODEL 2
REMARK VINA RESULT: -7.011049233      2.774      5.904
REMARK  3 active torsions:
REMARK  status: ('A' for Active; 'I' for Inactive)
REMARK    1  A    between atoms: C2_2  and  C3_3 
REMARK    2  A    between atoms: C5_5  and  O1_6 
REMARK    3  A    between atoms: C10_13  and  O2_14 
ROOT
HETATM    1  C3  UNL     1       0.617  38.014  -2.056  1.00  0.00     0.026 C 
HETATM    2  C4  UNL     1       1.181  37.642  -3.473  1.00  0.00     0.052 C 
HETATM    3  C5  UNL     1       0.050  37.150  -4.339  1.00  0.00     0.185 C 
HETATM    4  S1  UNL     1      -1.373  36.629  -3.258  1.00  0.00    -0.098 SA
HETATM    5  C6  UNL     1      -0.469  35.917  -1.873  1.00  0.00     0.013 A 
HETATM    6  C7  UNL     1      -0.727  34.671  -1.448  1.00  0.00     0.028 A 
HETATM    7  C8  UNL     1       0.088  34.134  -0.473  1.00  0.00    -0.027 A 
HETATM    8  C9  UNL     1       1.126  34.896   0.021  1.00  0.00     0.068 A 
HETATM    9  C10 UNL     1       1.378  36.217  -0.444  1.00  0.00     0.103 A 
HETATM   10  C12 UNL     1       0.594  36.745  -1.384  1.00  0.00    -0.001 A 
HETATM   11  N1  UNL     1       1.944  34.305   1.013  1.00  0.00    -0.387 N 
ATOM     12  H1  UNL     1       2.463  34.889   1.669  1.00  0.00     0.159 HD
HETATM   13  C13 UNL     1       2.037  32.860   1.086  1.00  0.00     0.124 C 
HETATM   14  C14 UNL     1       0.696  32.200   0.997  1.00  0.00     0.003 C 
HETATM   15  C15 UNL     1       0.957  30.738   0.607  1.00  0.00     0.012 C 
HETATM   16  C16 UNL     1      -0.214  32.773  -0.023  1.00  0.00     0.046 C 
ENDROOT
BRANCH   1  17
HETATM   17  C2  UNL     1       1.256  39.236  -1.651  1.00  0.00     0.005 C 
HETATM   18  C1  UNL     1       0.562  40.087  -0.610  1.00  0.00     0.006 C 
ENDBRANCH   1  17
BRANCH   3  19
HETATM   19  O1  UNL     1      -0.356  38.016  -5.319  1.00  0.00    -0.385 OA
ATOM     20  H1  UNL     1      -0.662  37.607  -6.120  1.00  0.00     0.211 HD
ENDBRANCH   3  19
BRANCH   9  21
HETATM   21  O2  UNL     1       2.439  36.821   0.126  1.00  0.00    -0.353 OA
HETATM   22  C11 UNL     1       2.684  37.580   1.235  1.00  0.00     0.210 C 
ENDBRANCH   9  21
TORSDOF 3
ENDMDL
MODEL 3
REMARK VINA RESULT: -6.901012373      3.002      6.258
REMARK  3 active torsions:
REMARK  status: ('A' for Active; 'I' for Inactive)
REMARK    1  A    between atoms: C2_2  and  C3_3 
REMARK    2  A    between atoms: C5_5  and  O1_6 
REMARK    3  A    between atoms: C10_13  and  O2_14 
ROOT
HETATM    1  C3  UNL     1       0.473  37.652  -1.857  1.00  0.00     0.026 C 
HETATM    2  C4  UNL     1       0.152  38.710  -0.743  1.00  0.00     0.052 C 
HETATM    3  C5  UNL     1       1.423  39.058  -0.012  1.00  0.00     0.185 C 
HETATM    4  S1  UNL     1       2.682  37.716  -0.295  1.00  0.00    -0.098 SA
HETATM    5  C6  UNL     1       1.607  36.273  -0.301  1.00  0.00     0.013 A 
HETATM    6  C7  UNL     1       1.848  35.229   0.508  1.00  0.00     0.028 A 
HETATM    7  C8  UNL     1       0.916  34.213   0.555  1.00  0.00    -0.027 A 
HETATM    8  C9  UNL     1      -0.217  34.313  -0.224  1.00  0.00     0.068 A 
HETATM    9  C10 UNL     1      -0.451  35.429  -1.074  1.00  0.00     0.103 A 
HETATM   10  C12 UNL     1       0.446  36.414  -1.130  1.00  0.00    -0.001 A 
HETATM   11  N1  UNL     1      -1.153  33.255  -0.138  1.00  0.00    -0.387 N 
ATOM     12  H1  UNL     1      -1.792  33.066  -0.910  1.00  0.00     0.159 HD
HETATM   13  C13 UNL     1      -1.194  32.441   1.061  1.00  0.00     0.124 C 
HETATM   14  C14 UNL     1       0.172  32.021   1.509  1.00  0.00     0.003 C 
HETATM   15  C15 UNL     1       0.037  31.606   2.982  1.00  0.00     0.012 C 
HETATM   16  C16 UNL     1       1.203  33.083   1.442  1.00  0.00     0.046 C 
ENDROOT
BRANCH   1  17
HETATM   17  C2  UNL     1      -0.273  38.025  -3.027  1.00  0.00     0.005 C 
HETATM   18  C1  UNL     1      -1.458  38.947  -2.847  1.00  0.00     0.006 C 
ENDBRANCH   1  17
BRANCH   3  19
HETATM   19  O1  UNL     1       1.938  40.295  -0.288  1.00  0.00    -0.385 OA
ATOM     20  H1  UNL     1       2.868  40.396  -0.119  1.00  0.00     0.211 HD
ENDBRANCH   3  19
BRANCH   9  21
HETATM   21  O2  UNL     1      -1.612  35.384  -1.756  1.00  0.00    -0.353 OA
HETATM   22  C11 UNL     1      -2.046  34.926  -2.968  1.00  0.00     0.210 C 
ENDBRANCH   9  21
TORSDOF 3
ENDMDL
MODEL 4
REMARK VINA RESULT: -6.808638094      2.944      6.345
REMARK  3 active torsions:
REMARK  status: ('A' for Active; 'I' for Inactive)
REMARK    1  A    between atoms: C2_2  and  C3_3 
REMARK    2  A    between atoms: C5_5  and  O1_6 
REMARK    3  A    between atoms: C10_13  and  O2_14 
ROOT
HETATM    1  C3  UNL     1       1.085  38.685  -0.564  1.00  0.00     0.026 C 
HETATM    2  C4  UNL     1       0.509  39.246   0.784  1.00  0.00     0.052 C 
HETATM    3  C5  UNL     1       1.627  39.355   1.789  1.00  0.00     0.185 C 
HETATM    4  S1  UNL     1       3.040  38.267   1.259  1.00  0.00    -0.098 SA
HETATM    5  C6  UNL     1       2.126  36.881   0.564  1.00  0.00     0.013 A 
HETATM    6  C7  UNL     1       2.357  35.625   0.976  1.00  0.00     0.028 A 
HETATM    7  C8  UNL     1       1.533  34.624   0.505  1.00  0.00    -0.027 A 
HETATM    8  C9  UNL     1       0.514  34.953  -0.362  1.00  0.00     0.068 A 
HETATM    9  C10 UNL     1       0.289  36.292  -0.787  1.00  0.00     0.103 A 
HETATM   10  C12 UNL     1       1.082  37.267  -0.340  1.00  0.00    -0.001 A 
HETATM   11  N1  UNL     1      -0.314  33.898  -0.814  1.00  0.00    -0.387 N 
ATOM     12  H1  UNL     1      -0.818  33.979  -1.696  1.00  0.00     0.159 HD
HETATM   13  C13 UNL     1      -0.438  32.700  -0.007  1.00  0.00     0.124 C 
HETATM   14  C14 UNL     1       0.888  32.205   0.481  1.00  0.00     0.003 C 
HETATM   15  C15 UNL     1       0.595  31.273   1.666  1.00  0.00     0.012 C 
HETATM   16  C16 UNL     1       1.808  33.261   0.967  1.00  0.00     0.046 C 
ENDROOT
BRANCH   1  17
HETATM   17  C2  UNL     1       0.473  39.429  -1.631  1.00  0.00     0.005 C 
HETATM   18  C1  UNL     1      -0.933  39.944  -1.420  1.00  0.00     0.006 C 
ENDBRANCH   1  17
BRANCH   3  19
HETATM   19  O1  UNL     1       2.048  40.629   2.060  1.00  0.00    -0.385 OA
ATOM     20  H1  UNL     1       2.601  41.024   1.396  1.00  0.00     0.211 HD
ENDBRANCH   3  19
BRANCH   9  21
HETATM   21  O2  UNL     1      -0.757  36.450  -1.621  1.00  0.00    -0.353 OA
HETATM   22  C11 UNL     1      -0.970  36.459  -2.970  1.00  0.00     0.210 C 
ENDBRANCH   9  21
TORSDOF 3
ENDMDL
MODEL 5
REMARK VINA RESULT: -6.728187849      1.005      1.029
REMARK  3 active torsions:
REMARK  status: ('A' for Active; 'I' for Inactive)
REMARK    1  A    between atoms: C2_2  and  C3_3 
REMARK    2  A    between atoms: C5_5  and  O1_6 
REMARK    3  A    between atoms: C10_13  and  O2_14 
ROOT
HETATM    1  C3  UNL     1      -0.346  32.550   0.655  1.00  0.00     0.026 C 
HETATM    2  C4  UNL     1      -1.034  32.942   2.010  1.00  0.00     0.052 C 
HETATM    3  C5  UNL     1      -2.489  33.245   1.755  1.00  0.00     0.185 C 
HETATM    4  S1  UNL     1      -2.733  33.610  -0.054  1.00  0.00    -0.098 SA
HETATM    5  C6  UNL     1      -1.201  34.487  -0.407  1.00  0.00     0.013 A 
HETATM    6  C7  UNL     1      -1.217  35.703  -0.975  1.00  0.00     0.028 A 
HETATM    7  C8  UNL     1      -0.021  36.380  -1.096  1.00  0.00    -0.027 A 
HETATM    8  C9  UNL     1       1.132  35.784  -0.632  1.00  0.00     0.068 A 
HETATM    9  C10 UNL     1       1.124  34.493  -0.034  1.00  0.00     0.103 A 
HETATM   10  C12 UNL     1      -0.026  33.829   0.085  1.00  0.00    -0.001 A 
HETATM   11  N1  UNL     1       2.336  36.516  -0.766  1.00  0.00    -0.387 N 
ATOM     12  H1  UNL     1       3.233  36.033  -0.801  1.00  0.00     0.159 HD
HETATM   13  C13 UNL     1       2.279  37.962  -0.854  1.00  0.00     0.124 C 
HETATM   14  C14 UNL     1       1.225  38.432  -1.809  1.00  0.00     0.003 C 
HETATM   15  C15 UNL     1       0.945  39.901  -1.458  1.00  0.00     0.012 C 
HETATM   16  C16 UNL     1      -0.063  37.704  -1.722  1.00  0.00     0.046 C 
ENDROOT
BRANCH   1  17
HETATM   17  C2  UNL     1       0.527  31.442   0.926  1.00  0.00     0.005 C 
HETATM   18  C1  UNL     1       1.259  30.816  -0.240  1.00  0.00     0.006 C 
ENDBRANCH   1  17
BRANCH   3  19
HETATM   19  O1  UNL     1      -3.371  32.297   2.198  1.00  0.00    -0.385 OA
ATOM     20  H1  UNL     1      -3.012  31.661   2.807  1.00  0.00     0.211 HD
ENDBRANCH   3  19
BRANCH   9  21
HETATM   21  O2  UNL     1       2.329  34.058   0.383  1.00  0.00    -0.353 OA
HETATM   22  C11 UNL     1       3.051  34.067   1.544  1.00  0.00     0.210 C 
ENDBRANCH   9  21
TORSDOF 3
ENDMDL
