MODEL 1
REMARK VINA RESULT: -8.861576988      0.000      0.000
REMARK  11 active torsions:
REMARK  status: ('A' for Active; 'I' for Inactive)
REMARK    1  A    between atoms: C2_2  and  C3_3 
REMARK    2  A    between atoms: C2_2  and  C4_6 
REMARK    3  A    between atoms: C15_20  and  N1_21 
REMARK       I    between atoms: N1_21  and  C16_23 
REMARK    4  A    between atoms: C16_23  and  C17_25 
REMARK    5  A    between atoms: C17_25  and  C18_26 
REMARK    6  A    between atoms: C18_26  and  C19_27 
REMARK    7  A    between atoms: C20_29  and  C21_30 
REMARK    8  A    between atoms: C21_30  and  O7_31 
REMARK    9  A    between atoms: O7_31  and  C22_32 
REMARK   10  A    between atoms: C22_32  and  O8_33 
REMARK   11  A    between atoms: C24_36  and  O9_37 
ROOT
HETATM    1  C4  UNL     1       9.746  22.585   6.012  1.00  0.00     0.187 C 
HETATM    2  C5  UNL     1       9.022  21.780   4.987  1.00  0.00     0.045 C 
HETATM    3  C6  UNL     1       8.757  20.574   5.421  1.00  0.00     0.079 C 
HETATM    4  O3  UNL     1       8.107  19.514   4.820  1.00  0.00    -0.339 OA
HETATM    5  C7  UNL     1       7.907  18.135   5.119  1.00  0.00     0.207 C 
HETATM    6  C8  UNL     1       6.509  17.821   5.548  1.00  0.00     0.170 C 
HETATM    7  O4  UNL     1       5.489  17.695   4.950  1.00  0.00    -0.294 OA
HETATM    8  C9  UNL     1       6.714  17.686   7.089  1.00  0.00     0.059 C 
HETATM    9  C10 UNL     1       7.565  18.854   7.203  1.00  0.00    -0.056 C 
HETATM   10  C11 UNL     1       8.109  20.008   7.562  1.00  0.00     0.016 C 
HETATM   11  C12 UNL     1       9.353  20.552   6.850  1.00  0.00     0.202 C 
HETATM   12  O5  UNL     1       9.622  21.837   7.151  1.00  0.00    -0.361 OA
HETATM   13  C13 UNL     1       8.564  17.866   6.452  1.00  0.00     0.060 C 
HETATM   14  C14 UNL     1       7.852  16.779   7.105  1.00  0.00     0.040 C 
HETATM   15  C15 UNL     1       8.272  16.316   8.475  1.00  0.00     0.093 C 
HETATM   16  C23 UNL     1       7.186  16.632   9.520  1.00  0.00     0.064 C 
HETATM   17  C24 UNL     1       5.882  16.303   8.888  1.00  0.00     0.068 C 
HETATM   18  C25 UNL     1       4.666  16.415   9.733  1.00  0.00     0.016 C 
HETATM   19  C26 UNL     1       4.414  15.221  10.617  1.00  0.00     0.013 C 
HETATM   20  C27 UNL     1       3.569  16.527   8.664  1.00  0.00     0.008 C 
HETATM   21  C28 UNL     1       4.266  17.062   7.404  1.00  0.00     0.010 C 
HETATM   22  C29 UNL     1       5.582  17.466   7.916  1.00  0.00     0.041 C 
ENDROOT
BRANCH  15  23
HETATM   23  N1  UNL     1       9.571  16.765   8.887  1.00  0.00    -0.356 N 
HETATM   24  C16 UNL     1      10.790  16.063   8.548  1.00  0.00     0.218 C 
HETATM   25  O6  UNL     1      10.647  15.040   7.873  1.00  0.00    -0.274 OA
ATOM     26  H1  UNL     1       9.638  17.617   9.444  1.00  0.00     0.162 HD
BRANCH  24  27
HETATM   27  C17 UNL     1      12.104  16.528   8.970  1.00  0.00     0.108 C 
BRANCH  27  28
HETATM   28  C18 UNL     1      12.376  17.930   8.506  1.00  0.00     0.055 C 
BRANCH  28  29
HETATM   29  C19 UNL     1      13.796  18.226   8.228  1.00  0.00    -0.013 C 
HETATM   30 BR1  UNL     1      14.196  19.795   7.223  1.00  0.00    -0.056 Br
HETATM   31  C20 UNL     1      14.763  17.454   8.648  1.00  0.00     0.014 C 
BRANCH  31  32
HETATM   32  C21 UNL     1      16.196  17.672   8.419  1.00  0.00     0.198 C 
BRANCH  32  33
HETATM   33  O7  UNL     1      17.031  17.181   9.382  1.00  0.00    -0.363 OA
BRANCH  33  34
HETATM   34  C22 UNL     1      16.639  15.982   9.924  1.00  0.00     0.334 C 
BRANCH  34  35
HETATM   35  O8  UNL     1      16.240  16.069  11.261  1.00  0.00    -0.377 OA
ATOM     36  H8  UNL     1      16.169  15.228  11.697  1.00  0.00     0.212 HD
ENDBRANCH  34  35
ENDBRANCH  33  34
ENDBRANCH  32  33
ENDBRANCH  31  32
ENDBRANCH  28  29
ENDBRANCH  27  28
ENDBRANCH  24  27
ENDBRANCH  15  23
BRANCH  17  37
HETATM   37  O9  UNL     1       5.912  15.082   8.227  1.00  0.00    -0.389 OA
ATOM     38  H9  UNL     1       5.453  14.402   8.705  1.00  0.00     0.210 HD
ENDBRANCH  17  37
BRANCH   1  39
HETATM   39  C2  UNL     1      11.056  23.059   5.623  1.00  0.00     0.041 C 
HETATM   40  C1  UNL     1      11.416  22.947   4.353  1.00  0.00     0.029 C 
BRANCH  39  41
HETATM   41  C3  UNL     1      11.974  23.665   6.556  1.00  0.00     0.207 C 
HETATM   42  O1  UNL     1      13.197  23.270   6.512  1.00  0.00    -0.644 OA
HETATM   43  O2  UNL     1      11.613  24.640   7.492  1.00  0.00    -0.644 OA
ENDBRANCH  39  41
ENDBRANCH   1  39
TORSDOF 11
ENDMDL
MODEL 2
REMARK VINA RESULT: -8.692108808      1.130      1.357
REMARK  11 active torsions:
REMARK  status: ('A' for Active; 'I' for Inactive)
REMARK    1  A    between atoms: C2_2  and  C3_3 
REMARK    2  A    between atoms: C2_2  and  C4_6 
REMARK    3  A    between atoms: C15_20  and  N1_21 
REMARK       I    between atoms: N1_21  and  C16_23 
REMARK    4  A    between atoms: C16_23  and  C17_25 
REMARK    5  A    between atoms: C17_25  and  C18_26 
REMARK    6  A    between atoms: C18_26  and  C19_27 
REMARK    7  A    between atoms: C20_29  and  C21_30 
REMARK    8  A    between atoms: C21_30  and  O7_31 
REMARK    9  A    between atoms: O7_31  and  C22_32 
REMARK   10  A    between atoms: C22_32  and  O8_33 
REMARK   11  A    between atoms: C24_36  and  O9_37 
ROOT
HETATM    1  C4  UNL     1       9.718  22.038   6.728  1.00  0.00     0.187 C 
HETATM    2  C5  UNL     1       8.770  21.474   5.725  1.00  0.00     0.045 C 
HETATM    3  C6  UNL     1       8.399  20.260   6.042  1.00  0.00     0.079 C 
HETATM    4  O3  UNL     1       7.542  19.378   5.415  1.00  0.00    -0.339 OA
HETATM    5  C7  UNL     1       7.196  18.003   5.569  1.00  0.00     0.207 C 
HETATM    6  C8  UNL     1       5.833  17.800   6.150  1.00  0.00     0.170 C 
HETATM    7  O4  UNL     1       4.739  17.880   5.692  1.00  0.00    -0.294 OA
HETATM    8  C9  UNL     1       6.209  17.429   7.619  1.00  0.00     0.059 C 
HETATM    9  C10 UNL     1       7.218  18.462   7.752  1.00  0.00    -0.056 C 
HETATM   10  C11 UNL     1       7.954  19.483   8.168  1.00  0.00     0.016 C 
HETATM   11  C12 UNL     1       9.161  19.970   7.359  1.00  0.00     0.202 C 
HETATM   12  O5  UNL     1       9.637  21.160   7.773  1.00  0.00    -0.361 OA
HETATM   13  C13 UNL     1       7.971  17.477   6.753  1.00  0.00     0.060 C 
HETATM   14  C14 UNL     1       7.206  16.401   7.364  1.00  0.00     0.040 C 
HETATM   15  C15 UNL     1       7.728  15.707   8.594  1.00  0.00     0.093 C 
HETATM   16  C23 UNL     1       6.833  16.000   9.812  1.00  0.00     0.064 C 
HETATM   17  C24 UNL     1       5.428  15.919   9.336  1.00  0.00     0.068 C 
HETATM   18  C25 UNL     1       4.354  16.055  10.351  1.00  0.00     0.016 C 
HETATM   19  C26 UNL     1       4.055  14.788  11.110  1.00  0.00     0.013 C 
HETATM   20  C27 UNL     1       3.157  16.442   9.470  1.00  0.00     0.008 C 
HETATM   21  C28 UNL     1       3.757  17.061   8.199  1.00  0.00     0.010 C 
HETATM   22  C29 UNL     1       5.170  17.232   8.565  1.00  0.00     0.041 C 
ENDROOT
BRANCH  15  23
HETATM   23  N1  UNL     1       9.117  15.938   8.869  1.00  0.00    -0.356 N 
HETATM   24  C16 UNL     1      10.180  15.418   8.038  1.00  0.00     0.218 C 
HETATM   25  O6  UNL     1       9.820  14.754   7.062  1.00  0.00    -0.274 OA
ATOM     26  H1  UNL     1       9.365  16.494   9.688  1.00  0.00     0.162 HD
BRANCH  24  27
HETATM   27  C17 UNL     1      11.587  15.659   8.326  1.00  0.00     0.108 C 
BRANCH  27  28
HETATM   28  C18 UNL     1      11.804  16.997   8.972  1.00  0.00     0.055 C 
BRANCH  28  29
HETATM   29  C19 UNL     1      13.084  17.651   8.631  1.00  0.00    -0.013 C 
HETATM   30 BR1  UNL     1      13.029  19.464   8.048  1.00  0.00    -0.056 Br
HETATM   31  C20 UNL     1      14.229  17.027   8.721  1.00  0.00     0.014 C 
BRANCH  31  32
HETATM   32  C21 UNL     1      15.543  17.597   8.405  1.00  0.00     0.198 C 
BRANCH  32  33
HETATM   33  O7  UNL     1      16.504  17.437   9.364  1.00  0.00    -0.363 OA
BRANCH  33  34
HETATM   34  C22 UNL     1      16.576  16.175   9.897  1.00  0.00     0.334 C 
BRANCH  34  35
HETATM   35  O8  UNL     1      16.303  16.123  11.268  1.00  0.00    -0.377 OA
ATOM     36  H8  UNL     1      17.045  15.859  11.799  1.00  0.00     0.212 HD
ENDBRANCH  34  35
ENDBRANCH  33  34
ENDBRANCH  32  33
ENDBRANCH  31  32
ENDBRANCH  28  29
ENDBRANCH  27  28
ENDBRANCH  24  27
ENDBRANCH  15  23
BRANCH  17  37
HETATM   37  O9  UNL     1       5.210  14.806   8.533  1.00  0.00    -0.389 OA
ATOM     38  H9  UNL     1       5.373  14.987   7.615  1.00  0.00     0.210 HD
ENDBRANCH  17  37
BRANCH   1  39
HETATM   39  C2  UNL     1      11.021  22.405   6.217  1.00  0.00     0.041 C 
HETATM   40  C1  UNL     1      11.814  23.143   6.981  1.00  0.00     0.029 C 
BRANCH  39  41
HETATM   41  C3  UNL     1      11.497  21.983   4.923  1.00  0.00     0.207 C 
HETATM   42  O1  UNL     1      11.516  22.868   3.991  1.00  0.00    -0.644 OA
HETATM   43  O2  UNL     1      11.929  20.685   4.630  1.00  0.00    -0.644 OA
ENDBRANCH  39  41
ENDBRANCH   1  39
TORSDOF 11
ENDMDL
MODEL 3
REMARK VINA RESULT: -8.687125952      1.809      2.320
REMARK  11 active torsions:
REMARK  status: ('A' for Active; 'I' for Inactive)
REMARK    1  A    between atoms: C2_2  and  C3_3 
REMARK    2  A    between atoms: C2_2  and  C4_6 
REMARK    3  A    between atoms: C15_20  and  N1_21 
REMARK       I    between atoms: N1_21  and  C16_23 
REMARK    4  A    between atoms: C16_23  and  C17_25 
REMARK    5  A    between atoms: C17_25  and  C18_26 
REMARK    6  A    between atoms: C18_26  and  C19_27 
REMARK    7  A    between atoms: C20_29  and  C21_30 
REMARK    8  A    between atoms: C21_30  and  O7_31 
REMARK    9  A    between atoms: O7_31  and  C22_32 
REMARK   10  A    between atoms: C22_32  and  O8_33 
REMARK   11  A    between atoms: C24_36  and  O9_37 
ROOT
HETATM    1  C4  UNL     1       9.901  22.555   6.359  1.00  0.00     0.187 C 
HETATM    2  C5  UNL     1       9.083  21.839   5.339  1.00  0.00     0.045 C 
HETATM    3  C6  UNL     1       8.889  20.587   5.670  1.00  0.00     0.079 C 
HETATM    4  O3  UNL     1       8.195  19.576   5.035  1.00  0.00    -0.339 OA
HETATM    5  C7  UNL     1       8.055  18.168   5.207  1.00  0.00     0.207 C 
HETATM    6  C8  UNL     1       6.718  17.771   5.748  1.00  0.00     0.170 C 
HETATM    7  O4  UNL     1       5.641  17.678   5.255  1.00  0.00    -0.294 OA
HETATM    8  C9  UNL     1       7.094  17.485   7.236  1.00  0.00     0.059 C 
HETATM    9  C10 UNL     1       7.932  18.660   7.379  1.00  0.00    -0.056 C 
HETATM   10  C11 UNL     1       8.492  19.787   7.797  1.00  0.00     0.016 C 
HETATM   11  C12 UNL     1       9.639  20.437   7.016  1.00  0.00     0.202 C 
HETATM   12  O5  UNL     1       9.917  21.691   7.420  1.00  0.00    -0.361 OA
HETATM   13  C13 UNL     1       8.859  17.783   6.425  1.00  0.00     0.060 C 
HETATM   14  C14 UNL     1       8.243  16.615   7.034  1.00  0.00     0.040 C 
HETATM   15  C15 UNL     1       8.820  16.026   8.294  1.00  0.00     0.093 C 
HETATM   16  C23 UNL     1       7.850  16.202   9.478  1.00  0.00     0.064 C 
HETATM   17  C24 UNL     1       6.491  15.901   8.959  1.00  0.00     0.068 C 
HETATM   18  C25 UNL     1       5.374  15.891   9.937  1.00  0.00     0.016 C 
HETATM   19  C26 UNL     1       5.242  14.605  10.712  1.00  0.00     0.013 C 
HETATM   20  C27 UNL     1       4.164  16.079   9.011  1.00  0.00     0.008 C 
HETATM   21  C28 UNL     1       4.707  16.761   7.746  1.00  0.00     0.010 C 
HETATM   22  C29 UNL     1       6.065  17.149   8.152  1.00  0.00     0.041 C 
ENDROOT
BRANCH  15  23
HETATM   23  N1  UNL     1      10.148  16.469   8.608  1.00  0.00    -0.356 N 
HETATM   24  C16 UNL     1      11.333  15.724   8.240  1.00  0.00     0.218 C 
HETATM   25  O6  UNL     1      11.133  14.669   7.631  1.00  0.00    -0.274 OA
ATOM     26  H1  UNL     1      10.262  17.347   9.114  1.00  0.00     0.162 HD
BRANCH  24  27
HETATM   27  C17 UNL     1      12.677  16.182   8.563  1.00  0.00     0.108 C 
BRANCH  27  28
HETATM   28  C18 UNL     1      12.761  17.680   8.606  1.00  0.00     0.055 C 
BRANCH  28  29
HETATM   29  C19 UNL     1      13.243  18.311   7.360  1.00  0.00    -0.013 C 
HETATM   30 BR1  UNL     1      13.404  20.209   7.328  1.00  0.00    -0.056 Br
HETATM   31  C20 UNL     1      13.556  17.610   6.302  1.00  0.00     0.014 C 
BRANCH  31  32
HETATM   32  C21 UNL     1      14.041  18.151   5.028  1.00  0.00     0.198 C 
BRANCH  32  33
HETATM   33  O7  UNL     1      14.672  17.258   4.207  1.00  0.00    -0.363 OA
BRANCH  33  34
HETATM   34  C22 UNL     1      14.748  17.645   2.892  1.00  0.00     0.334 C 
BRANCH  34  35
HETATM   35  O8  UNL     1      13.612  17.328   2.141  1.00  0.00    -0.377 OA
ATOM     36  H8  UNL     1      13.364  16.413   2.187  1.00  0.00     0.212 HD
ENDBRANCH  34  35
ENDBRANCH  33  34
ENDBRANCH  32  33
ENDBRANCH  31  32
ENDBRANCH  28  29
ENDBRANCH  27  28
ENDBRANCH  24  27
ENDBRANCH  15  23
BRANCH  17  37
HETATM   37  O9  UNL     1       6.469  14.756   8.173  1.00  0.00    -0.389 OA
ATOM     38  H9  UNL     1       5.598  14.556   7.854  1.00  0.00     0.210 HD
ENDBRANCH  17  37
BRANCH   1  39
HETATM   39  C2  UNL     1      11.152  23.105   5.883  1.00  0.00     0.041 C 
HETATM   40  C1  UNL     1      11.462  22.952   4.604  1.00  0.00     0.029 C 
BRANCH  39  41
HETATM   41  C3  UNL     1      12.060  23.828   6.738  1.00  0.00     0.207 C 
HETATM   42  O1  UNL     1      13.303  23.821   6.409  1.00  0.00    -0.644 OA
HETATM   43  O2  UNL     1      11.672  24.523   7.888  1.00  0.00    -0.644 OA
ENDBRANCH  39  41
ENDBRANCH   1  39
TORSDOF 11
ENDMDL
MODEL 4
REMARK VINA RESULT: -8.589799629      1.993      2.563
REMARK  11 active torsions:
REMARK  status: ('A' for Active; 'I' for Inactive)
REMARK    1  A    between atoms: C2_2  and  C3_3 
REMARK    2  A    between atoms: C2_2  and  C4_6 
REMARK    3  A    between atoms: C15_20  and  N1_21 
REMARK       I    between atoms: N1_21  and  C16_23 
REMARK    4  A    between atoms: C16_23  and  C17_25 
REMARK    5  A    between atoms: C17_25  and  C18_26 
REMARK    6  A    between atoms: C18_26  and  C19_27 
REMARK    7  A    between atoms: C20_29  and  C21_30 
REMARK    8  A    between atoms: C21_30  and  O7_31 
REMARK    9  A    between atoms: O7_31  and  C22_32 
REMARK   10  A    between atoms: C22_32  and  O8_33 
REMARK   11  A    between atoms: C24_36  and  O9_37 
ROOT
HETATM    1  C4  UNL     1       9.904  22.517   6.359  1.00  0.00     0.187 C 
HETATM    2  C5  UNL     1       9.085  21.795   5.343  1.00  0.00     0.045 C 
HETATM    3  C6  UNL     1       8.881  20.549   5.686  1.00  0.00     0.079 C 
HETATM    4  O3  UNL     1       8.183  19.536   5.058  1.00  0.00    -0.339 OA
HETATM    5  C7  UNL     1       8.033  18.131   5.244  1.00  0.00     0.207 C 
HETATM    6  C8  UNL     1       6.692  17.748   5.784  1.00  0.00     0.170 C 
HETATM    7  O4  UNL     1       5.616  17.657   5.288  1.00  0.00    -0.294 OA
HETATM    8  C9  UNL     1       7.061  17.474   7.276  1.00  0.00     0.059 C 
HETATM    9  C10 UNL     1       7.906  18.645   7.411  1.00  0.00    -0.056 C 
HETATM   10  C11 UNL     1       8.471  19.772   7.819  1.00  0.00     0.016 C 
HETATM   11  C12 UNL     1       9.626  20.407   7.036  1.00  0.00     0.202 C 
HETATM   12  O5  UNL     1       9.910  21.663   7.428  1.00  0.00    -0.361 OA
HETATM   13  C13 UNL     1       8.830  17.753   6.469  1.00  0.00     0.060 C 
HETATM   14  C14 UNL     1       8.205  16.594   7.087  1.00  0.00     0.040 C 
HETATM   15  C15 UNL     1       8.773  16.015   8.355  1.00  0.00     0.093 C 
HETATM   16  C23 UNL     1       7.800  16.208   9.533  1.00  0.00     0.064 C 
HETATM   17  C24 UNL     1       6.441  15.912   9.012  1.00  0.00     0.068 C 
HETATM   18  C25 UNL     1       5.320  15.918   9.986  1.00  0.00     0.016 C 
HETATM   19  C26 UNL     1       5.177  14.642  10.774  1.00  0.00     0.013 C 
HETATM   20  C27 UNL     1       4.114  16.105   9.053  1.00  0.00     0.008 C 
HETATM   21  C28 UNL     1       4.667  16.770   7.784  1.00  0.00     0.010 C 
HETATM   22  C29 UNL     1       6.026  17.154   8.192  1.00  0.00     0.041 C 
ENDROOT
BRANCH  15  23
HETATM   23  N1  UNL     1      10.103  16.452   8.670  1.00  0.00    -0.356 N 
HETATM   24  C16 UNL     1      11.285  15.712   8.285  1.00  0.00     0.218 C 
HETATM   25  O6  UNL     1      11.082  14.667   7.661  1.00  0.00    -0.274 OA
ATOM     26  H1  UNL     1      10.220  17.323   9.188  1.00  0.00     0.162 HD
BRANCH  24  27
HETATM   27  C17 UNL     1      12.631  16.164   8.609  1.00  0.00     0.108 C 
BRANCH  27  28
HETATM   28  C18 UNL     1      13.675  15.406   7.842  1.00  0.00     0.055 C 
BRANCH  28  29
HETATM   29  C19 UNL     1      14.358  16.183   6.788  1.00  0.00    -0.013 C 
HETATM   30 BR1  UNL     1      16.186  15.782   6.430  1.00  0.00    -0.056 Br
HETATM   31  C20 UNL     1      13.749  17.120   6.109  1.00  0.00     0.014 C 
BRANCH  31  32
HETATM   32  C21 UNL     1      14.349  17.938   5.049  1.00  0.00     0.198 C 
BRANCH  32  33
HETATM   33  O7  UNL     1      14.260  19.291   5.223  1.00  0.00    -0.363 OA
BRANCH  33  34
HETATM   34  C22 UNL     1      13.014  19.742   5.579  1.00  0.00     0.334 C 
BRANCH  34  35
HETATM   35  O8  UNL     1      12.141  19.907   4.498  1.00  0.00    -0.377 OA
ATOM     36  H8  UNL     1      11.979  19.108   4.010  1.00  0.00     0.212 HD
ENDBRANCH  34  35
ENDBRANCH  33  34
ENDBRANCH  32  33
ENDBRANCH  31  32
ENDBRANCH  28  29
ENDBRANCH  27  28
ENDBRANCH  24  27
ENDBRANCH  15  23
BRANCH  17  37
HETATM   37  O9  UNL     1       6.415  14.759   8.238  1.00  0.00    -0.389 OA
ATOM     38  H9  UNL     1       5.589  14.651   7.780  1.00  0.00     0.210 HD
ENDBRANCH  17  37
BRANCH   1  39
HETATM   39  C2  UNL     1      11.160  23.054   5.882  1.00  0.00     0.041 C 
HETATM   40  C1  UNL     1      12.159  23.181   6.741  1.00  0.00     0.029 C 
BRANCH  39  41
HETATM   41  C3  UNL     1      11.370  23.437   4.507  1.00  0.00     0.207 C 
HETATM   42  O1  UNL     1      10.906  24.578   4.141  1.00  0.00    -0.644 OA
HETATM   43  O2  UNL     1      12.039  22.647   3.566  1.00  0.00    -0.644 OA
ENDBRANCH  39  41
ENDBRANCH   1  39
TORSDOF 11
ENDMDL
MODEL 5
REMARK VINA RESULT: -8.570248796      1.861      2.168
REMARK  11 active torsions:
REMARK  status: ('A' for Active; 'I' for Inactive)
REMARK    1  A    between atoms: C2_2  and  C3_3 
REMARK    2  A    between atoms: C2_2  and  C4_6 
REMARK    3  A    between atoms: C15_20  and  N1_21 
REMARK       I    between atoms: N1_21  and  C16_23 
REMARK    4  A    between atoms: C16_23  and  C17_25 
REMARK    5  A    between atoms: C17_25  and  C18_26 
REMARK    6  A    between atoms: C18_26  and  C19_27 
REMARK    7  A    between atoms: C20_29  and  C21_30 
REMARK    8  A    between atoms: C21_30  and  O7_31 
REMARK    9  A    between atoms: O7_31  and  C22_32 
REMARK   10  A    between atoms: C22_32  and  O8_33 
REMARK   11  A    between atoms: C24_36  and  O9_37 
ROOT
HETATM    1  C4  UNL     1       9.907  22.543   6.363  1.00  0.00     0.187 C 
HETATM    2  C5  UNL     1       9.080  21.832   5.346  1.00  0.00     0.045 C 
HETATM    3  C6  UNL     1       8.879  20.582   5.678  1.00  0.00     0.079 C 
HETATM    4  O3  UNL     1       8.176  19.575   5.046  1.00  0.00    -0.339 OA
HETATM    5  C7  UNL     1       8.027  18.168   5.219  1.00  0.00     0.207 C 
HETATM    6  C8  UNL     1       6.691  17.779   5.767  1.00  0.00     0.170 C 
HETATM    7  O4  UNL     1       5.611  17.693   5.278  1.00  0.00    -0.294 OA
HETATM    8  C9  UNL     1       7.072  17.491   7.252  1.00  0.00     0.059 C 
HETATM    9  C10 UNL     1       7.918  18.660   7.392  1.00  0.00    -0.056 C 
HETATM   10  C11 UNL     1       8.486  19.783   7.807  1.00  0.00     0.016 C 
HETATM   11  C12 UNL     1       9.634  20.427   7.021  1.00  0.00     0.202 C 
HETATM   12  O5  UNL     1       9.922  21.679   7.423  1.00  0.00    -0.361 OA
HETATM   13  C13 UNL     1       8.835  17.778   6.433  1.00  0.00     0.060 C 
HETATM   14  C14 UNL     1       8.215  16.613   7.045  1.00  0.00     0.040 C 
HETATM   15  C15 UNL     1       8.794  16.021   8.302  1.00  0.00     0.093 C 
HETATM   16  C23 UNL     1       7.831  16.202   9.490  1.00  0.00     0.064 C 
HETATM   17  C24 UNL     1       6.467  15.911   8.978  1.00  0.00     0.068 C 
HETATM   18  C25 UNL     1       5.354  15.907   9.961  1.00  0.00     0.016 C 
HETATM   19  C26 UNL     1       5.218  14.622  10.737  1.00  0.00     0.013 C 
HETATM   20  C27 UNL     1       4.141  16.103   9.040  1.00  0.00     0.008 C 
HETATM   21  C28 UNL     1       4.683  16.781   7.773  1.00  0.00     0.010 C 
HETATM   22  C29 UNL     1       6.045  17.161   8.173  1.00  0.00     0.041 C 
ENDROOT
BRANCH  15  23
HETATM   23  N1  UNL     1      10.126  16.455   8.611  1.00  0.00    -0.356 N 
HETATM   24  C16 UNL     1      11.304  15.700   8.242  1.00  0.00     0.218 C 
HETATM   25  O6  UNL     1      11.095  14.644   7.638  1.00  0.00    -0.274 OA
ATOM     26  H1  UNL     1      10.248  17.335   9.112  1.00  0.00     0.162 HD
BRANCH  24  27
HETATM   27  C17 UNL     1      12.652  16.150   8.559  1.00  0.00     0.108 C 
BRANCH  27  28
HETATM   28  C18 UNL     1      13.660  15.628   7.576  1.00  0.00     0.055 C 
BRANCH  28  29
HETATM   29  C19 UNL     1      14.084  16.601   6.547  1.00  0.00    -0.013 C 
HETATM   30 BR1  UNL     1      15.712  16.258   5.617  1.00  0.00    -0.056 Br
HETATM   31  C20 UNL     1      13.382  17.667   6.267  1.00  0.00     0.014 C 
BRANCH  31  32
HETATM   32  C21 UNL     1      13.727  18.681   5.264  1.00  0.00     0.198 C 
BRANCH  32  33
HETATM   33  O7  UNL     1      13.591  19.980   5.665  1.00  0.00    -0.363 OA
BRANCH  33  34
HETATM   34  C22 UNL     1      13.945  20.218   6.970  1.00  0.00     0.334 C 
BRANCH  34  35
HETATM   35  O8  UNL     1      12.916  20.758   7.747  1.00  0.00    -0.377 OA
ATOM     36  H8  UNL     1      12.620  21.611   7.454  1.00  0.00     0.212 HD
ENDBRANCH  34  35
ENDBRANCH  33  34
ENDBRANCH  32  33
ENDBRANCH  31  32
ENDBRANCH  28  29
ENDBRANCH  27  28
ENDBRANCH  24  27
ENDBRANCH  15  23
BRANCH  17  37
HETATM   37  O9  UNL     1       6.435  14.766   8.192  1.00  0.00    -0.389 OA
ATOM     38  H9  UNL     1       6.183  13.996   8.689  1.00  0.00     0.210 HD
ENDBRANCH  17  37
BRANCH   1  39
HETATM   39  C2  UNL     1      11.158  23.085   5.881  1.00  0.00     0.041 C 
HETATM   40  C1  UNL     1      11.555  22.766   4.658  1.00  0.00     0.029 C 
BRANCH  39  41
HETATM   41  C3  UNL     1      11.978  23.972   6.669  1.00  0.00     0.207 C 
HETATM   42  O1  UNL     1      11.463  25.102   7.003  1.00  0.00    -0.644 OA
HETATM   43  O2  UNL     1      13.282  23.677   7.081  1.00  0.00    -0.644 OA
ENDBRANCH  39  41
ENDBRANCH   1  39
TORSDOF 11
ENDMDL
