MODEL 1
REMARK VINA RESULT: -7.822397413      0.000      0.000
REMARK  13 active torsions:
REMARK  status: ('A' for Active; 'I' for Inactive)
REMARK    1  A    between atoms: C2_2  and  O1_3 
REMARK    2  A    between atoms: O1_3  and  C3_4 
REMARK       I    between atoms: C3_4  and  N1_6 
REMARK    3  A    between atoms: N2_9  and  C6_10 
REMARK    4  A    between atoms: C6_10  and  O3_11 
REMARK    5  A    between atoms: C6_10  and  C7_13 
REMARK    6  A    between atoms: C7_13  and  C8_15 
REMARK    7  A    between atoms: C8_15  and  N3_16 
REMARK       I    between atoms: N3_16  and  C9_18 
REMARK    8  A    between atoms: C9_18  and  C10_20 
REMARK    9  A    between atoms: C10_20  and  N4_21 
REMARK       I    between atoms: N4_21  and  C11_23 
REMARK   10  A    between atoms: C11_23  and  C12_25 
REMARK   11  A    between atoms: C12_25  and  N5_28 
REMARK   12  A    between atoms: N6_34  and  C17_35 
REMARK   13  A    between atoms: C17_35  and  C18_36 
ROOT
HETATM    1  C10 UNL     1       6.882  17.425   7.811  1.00  0.00     0.119 C 
HETATM    2  C15 UNL     1       7.824  17.115   6.648  1.00  0.00     0.085 C 
HETATM    3  C16 UNL     1       8.748  18.292   6.443  1.00  0.00     0.062 C 
HETATM    4  N6  UNL     1       9.585  18.497   7.537  1.00  0.00    -0.384 N 
HETATM    5  C28 UNL     1       9.068  18.132   8.805  1.00  0.00     0.126 C 
HETATM    6  C29 UNL     1       7.552  18.369   8.735  1.00  0.00     0.061 C 
ENDROOT
BRANCH   1   7
HETATM    7  C9  UNL     1       5.633  17.932   7.189  1.00  0.00     0.246 C 
HETATM    8  N3  UNL     1       4.904  19.045   7.621  1.00  0.00    -0.352 N 
ATOM      9  H3  UNL     1       5.246  19.545   8.442  1.00  0.00     0.162 HD
HETATM   10  O5  UNL     1       5.207  17.280   6.173  1.00  0.00    -0.271 OA
BRANCH   8  11
HETATM   11  C8  UNL     1       3.712  19.532   6.995  1.00  0.00     0.206 C 
BRANCH  11  12
HETATM   12  C7  UNL     1       2.582  19.835   7.906  1.00  0.00     0.203 C 
HETATM   13  O4  UNL     1       2.518  19.373   9.032  1.00  0.00    -0.291 OA
BRANCH  12  14
HETATM   14  C6  UNL     1       1.526  20.739   7.364  1.00  0.00     0.429 C 
BRANCH  14  15
HETATM   15  N2  UNL     1       2.045  21.843   6.635  1.00  0.00     0.127 N 
HETATM   16  C5  UNL     1       1.506  23.106   7.093  1.00  0.00     0.296 C 
HETATM   17  C4  UNL     1       2.438  24.227   6.591  1.00  0.00     0.158 C 
HETATM   18  N1  UNL     1       3.317  23.693   5.575  1.00  0.00    -0.325 N 
HETATM   19  C3  UNL     1       4.667  24.105   5.553  1.00  0.00     0.362 C 
HETATM   20  C31 UNL     1       2.869  22.750   4.581  1.00  0.00     0.158 C 
HETATM   21  O2  UNL     1       5.104  24.921   6.398  1.00  0.00    -0.238 OA
HETATM   22  C30 UNL     1       1.875  21.810   5.218  1.00  0.00     0.296 C 
BRANCH  19  23
HETATM   23  O1  UNL     1       5.575  23.634   4.605  1.00  0.00    -0.304 OA
BRANCH  23  24
HETATM   24  C2  UNL     1       6.854  23.115   4.945  1.00  0.00     0.176 C 
HETATM   25  C1  UNL     1       6.607  21.795   5.661  1.00  0.00     0.034 C 
ENDBRANCH  23  24
ENDBRANCH  19  23
ENDBRANCH  14  15
BRANCH  14  26
HETATM   26  O3  UNL     1       0.674  21.191   8.380  1.00  0.00    -0.362 OA
ATOM     27  H3  UNL     1      -0.168  20.755   8.318  1.00  0.00     0.212 HD
ENDBRANCH  14  26
ENDBRANCH  12  14
ENDBRANCH  11  12
ENDBRANCH   8  11
ENDBRANCH   1   7
BRANCH   1  28
HETATM   28  N4  UNL     1       6.577  16.142   8.432  1.00  0.00    -0.341 N 
HETATM   29  C11 UNL     1       5.532  15.962   9.357  1.00  0.00     0.254 C 
HETATM   30  O6  UNL     1       4.834  16.975   9.652  1.00  0.00    -0.271 OA
ATOM     31  H4  UNL     1       7.149  15.335   8.184  1.00  0.00     0.163 HD
BRANCH  29  32
HETATM   32  C12 UNL     1       5.240  14.667   9.973  1.00  0.00     0.196 C 
HETATM   33  C13 UNL     1       3.993  14.646  10.816  1.00  0.00     0.056 C 
HETATM   34  C14 UNL     1       5.143  13.585   8.892  1.00  0.00     0.056 C 
BRANCH  32  35
HETATM   35  N5  UNL     1       6.353  14.274  10.831  1.00  0.00    -0.062 N 
ATOM     36  H53 UNL     1       7.257  14.511  10.422  1.00  0.00     0.275 HD
ATOM     37  H52 UNL     1       6.417  14.853  11.669  1.00  0.00     0.275 HD
ATOM     38  H51 UNL     1       6.277  13.282  11.052  1.00  0.00     0.275 HD
ENDBRANCH  32  35
ENDBRANCH  29  32
ENDBRANCH   1  28
BRANCH   4  39
HETATM   39  C17 UNL     1      10.939  18.795   7.428  1.00  0.00     0.034 C 
HETATM   40  C21 UNL     1      11.647  17.880   6.431  1.00  0.00     0.032 C 
HETATM   41  C22 UNL     1      13.134  18.052   6.477  1.00  0.00     0.011 C 
HETATM   42  C23 UNL     1      13.717  17.873   7.836  1.00  0.00    -0.048 C 
HETATM   43  C24 UNL     1      15.209  18.141   7.723  1.00  0.00     0.015 C 
HETATM   44  C25 UNL     1      13.566  16.473   8.382  1.00  0.00     0.015 C 
HETATM   45  C26 UNL     1      13.071  18.829   8.776  1.00  0.00     0.011 C 
HETATM   46  C27 UNL     1      11.578  18.635   8.806  1.00  0.00     0.032 C 
BRANCH  39  47
HETATM   47  C18 UNL     1      11.184  20.223   7.042  1.00  0.00     0.005 C 
HETATM   48  C19 UNL     1      10.913  20.614   5.639  1.00  0.00     0.012 C 
HETATM   49  C20 UNL     1      10.298  21.128   7.914  1.00  0.00     0.012 C 
ENDBRANCH  39  47
ENDBRANCH   4  39
TORSDOF 13
ENDMDL
MODEL 2
REMARK VINA RESULT: -7.773658002      3.224      7.305
REMARK  13 active torsions:
REMARK  status: ('A' for Active; 'I' for Inactive)
REMARK    1  A    between atoms: C2_2  and  O1_3 
REMARK    2  A    between atoms: O1_3  and  C3_4 
REMARK       I    between atoms: C3_4  and  N1_6 
REMARK    3  A    between atoms: N2_9  and  C6_10 
REMARK    4  A    between atoms: C6_10  and  O3_11 
REMARK    5  A    between atoms: C6_10  and  C7_13 
REMARK    6  A    between atoms: C7_13  and  C8_15 
REMARK    7  A    between atoms: C8_15  and  N3_16 
REMARK       I    between atoms: N3_16  and  C9_18 
REMARK    8  A    between atoms: C9_18  and  C10_20 
REMARK    9  A    between atoms: C10_20  and  N4_21 
REMARK       I    between atoms: N4_21  and  C11_23 
REMARK   10  A    between atoms: C11_23  and  C12_25 
REMARK   11  A    between atoms: C12_25  and  N5_28 
REMARK   12  A    between atoms: N6_34  and  C17_35 
REMARK   13  A    between atoms: C17_35  and  C18_36 
ROOT
HETATM    1  C10 UNL     1       9.585  20.490   7.118  1.00  0.00     0.119 C 
HETATM    2  C15 UNL     1      10.373  21.441   8.018  1.00  0.00     0.085 C 
HETATM    3  C16 UNL     1      11.704  21.737   7.369  1.00  0.00     0.062 C 
HETATM    4  N6  UNL     1      11.559  22.421   6.165  1.00  0.00    -0.384 N 
HETATM    5  C28 UNL     1      10.380  22.154   5.425  1.00  0.00     0.126 C 
HETATM    6  C29 UNL     1      10.014  20.690   5.714  1.00  0.00     0.061 C 
ENDROOT
BRANCH   1   7
HETATM    7  C9  UNL     1       9.830  19.131   7.663  1.00  0.00     0.246 C 
HETATM    8  N3  UNL     1       9.918  18.804   9.020  1.00  0.00    -0.352 N 
ATOM      9  H3  UNL     1       9.821  19.561   9.697  1.00  0.00     0.162 HD
HETATM   10  O5  UNL     1       9.970  18.196   6.799  1.00  0.00    -0.271 OA
BRANCH   8  11
HETATM   11  C8  UNL     1      10.134  17.482   9.528  1.00  0.00     0.206 C 
BRANCH  11  12
HETATM   12  C7  UNL     1       8.957  16.829  10.149  1.00  0.00     0.203 C 
HETATM   13  O4  UNL     1       8.402  17.294  11.129  1.00  0.00    -0.291 OA
BRANCH  12  14
HETATM   14  C6  UNL     1       8.491  15.567   9.505  1.00  0.00     0.429 C 
BRANCH  14  15
HETATM   15  N2  UNL     1       7.097  15.553   9.228  1.00  0.00     0.127 N 
HETATM   16  C5  UNL     1       6.487  14.278   9.544  1.00  0.00     0.296 C 
HETATM   17  C4  UNL     1       4.965  14.498   9.656  1.00  0.00     0.158 C 
HETATM   18  N1  UNL     1       4.629  15.785   9.090  1.00  0.00    -0.325 N 
HETATM   19  C3  UNL     1       3.654  16.581   9.730  1.00  0.00     0.362 C 
HETATM   20  C31 UNL     1       5.255  16.293   7.894  1.00  0.00     0.158 C 
HETATM   21  O2  UNL     1       3.084  16.184  10.772  1.00  0.00    -0.238 OA
HETATM   22  C30 UNL     1       6.707  15.880   7.895  1.00  0.00     0.296 C 
BRANCH  19  23
HETATM   23  O1  UNL     1       3.276  17.832   9.243  1.00  0.00    -0.304 OA
BRANCH  23  24
HETATM   24  C2  UNL     1       1.927  18.184   8.971  1.00  0.00     0.176 C 
HETATM   25  C1  UNL     1       1.966  19.519   8.242  1.00  0.00     0.034 C 
ENDBRANCH  23  24
ENDBRANCH  19  23
ENDBRANCH  14  15
BRANCH  14  26
HETATM   26  O3  UNL     1       8.840  14.447  10.272  1.00  0.00    -0.362 OA
ATOM     27  H3  UNL     1       9.665  14.601  10.718  1.00  0.00     0.212 HD
ENDBRANCH  14  26
ENDBRANCH  12  14
ENDBRANCH  11  12
ENDBRANCH   8  11
ENDBRANCH   1   7
BRANCH   1  28
HETATM   28  N4  UNL     1       8.179  20.807   7.333  1.00  0.00    -0.341 N 
HETATM   29  C11 UNL     1       7.160  20.445   6.433  1.00  0.00     0.254 C 
HETATM   30  O6  UNL     1       7.501  19.813   5.391  1.00  0.00    -0.271 OA
ATOM     31  H4  UNL     1       7.921  21.316   8.178  1.00  0.00     0.163 HD
BRANCH  29  32
HETATM   32  C12 UNL     1       5.753  20.771   6.663  1.00  0.00     0.196 C 
HETATM   33  C13 UNL     1       5.340  20.766   8.110  1.00  0.00     0.056 C 
HETATM   34  C14 UNL     1       5.426  22.134   6.044  1.00  0.00     0.056 C 
BRANCH  32  35
HETATM   35  N5  UNL     1       4.910  19.805   5.966  1.00  0.00    -0.062 N 
ATOM     36  H53 UNL     1       5.353  19.446   5.119  1.00  0.00     0.275 HD
ATOM     37  H52 UNL     1       4.832  18.923   6.474  1.00  0.00     0.275 HD
ATOM     38  H51 UNL     1       3.999  20.223   5.777  1.00  0.00     0.275 HD
ENDBRANCH  32  35
ENDBRANCH  29  32
ENDBRANCH   1  28
BRANCH   4  39
HETATM   39  C17 UNL     1      12.357  23.496   5.787  1.00  0.00     0.034 C 
HETATM   40  C21 UNL     1      12.904  24.253   6.994  1.00  0.00     0.032 C 
HETATM   41  C22 UNL     1      13.575  25.531   6.591  1.00  0.00     0.011 C 
HETATM   42  C23 UNL     1      12.713  26.429   5.774  1.00  0.00    -0.048 C 
HETATM   43  C24 UNL     1      13.555  27.638   5.399  1.00  0.00     0.015 C 
HETATM   44  C25 UNL     1      11.506  26.952   6.514  1.00  0.00     0.015 C 
HETATM   45  C26 UNL     1      12.255  25.698   4.562  1.00  0.00     0.011 C 
HETATM   46  C27 UNL     1      11.514  24.441   4.934  1.00  0.00     0.032 C 
BRANCH  39  47
HETATM   47  C18 UNL     1      13.499  23.082   4.909  1.00  0.00     0.005 C 
HETATM   48  C19 UNL     1      14.547  22.218   5.500  1.00  0.00     0.012 C 
HETATM   49  C20 UNL     1      12.940  22.306   3.704  1.00  0.00     0.012 C 
ENDBRANCH  39  47
ENDBRANCH   4  39
TORSDOF 13
ENDMDL
MODEL 3
REMARK VINA RESULT: -7.722787568      1.541      2.225
REMARK  13 active torsions:
REMARK  status: ('A' for Active; 'I' for Inactive)
REMARK    1  A    between atoms: C2_2  and  O1_3 
REMARK    2  A    between atoms: O1_3  and  C3_4 
REMARK       I    between atoms: C3_4  and  N1_6 
REMARK    3  A    between atoms: N2_9  and  C6_10 
REMARK    4  A    between atoms: C6_10  and  O3_11 
REMARK    5  A    between atoms: C6_10  and  C7_13 
REMARK    6  A    between atoms: C7_13  and  C8_15 
REMARK    7  A    between atoms: C8_15  and  N3_16 
REMARK       I    between atoms: N3_16  and  C9_18 
REMARK    8  A    between atoms: C9_18  and  C10_20 
REMARK    9  A    between atoms: C10_20  and  N4_21 
REMARK       I    between atoms: N4_21  and  C11_23 
REMARK   10  A    between atoms: C11_23  and  C12_25 
REMARK   11  A    between atoms: C12_25  and  N5_28 
REMARK   12  A    between atoms: N6_34  and  C17_35 
REMARK   13  A    between atoms: C17_35  and  C18_36 
ROOT
HETATM    1  C10 UNL     1       6.981  17.384   7.835  1.00  0.00     0.119 C 
HETATM    2  C15 UNL     1       7.907  17.106   6.652  1.00  0.00     0.085 C 
HETATM    3  C16 UNL     1       8.828  18.289   6.466  1.00  0.00     0.062 C 
HETATM    4  N6  UNL     1       9.679  18.467   7.553  1.00  0.00    -0.384 N 
HETATM    5  C28 UNL     1       9.179  18.068   8.818  1.00  0.00     0.126 C 
HETATM    6  C29 UNL     1       7.661  18.305   8.774  1.00  0.00     0.061 C 
ENDROOT
BRANCH   1   7
HETATM    7  C9  UNL     1       5.723  17.905   7.243  1.00  0.00     0.246 C 
HETATM    8  N3  UNL     1       4.991  18.996   7.722  1.00  0.00    -0.352 N 
ATOM      9  H3  UNL     1       5.337  19.468   8.558  1.00  0.00     0.162 HD
HETATM   10  O5  UNL     1       5.292  17.288   6.207  1.00  0.00    -0.271 OA
BRANCH   8  11
HETATM   11  C8  UNL     1       3.790  19.498   7.125  1.00  0.00     0.206 C 
BRANCH  11  12
HETATM   12  C7  UNL     1       2.662  19.748   8.054  1.00  0.00     0.203 C 
HETATM   13  O4  UNL     1       2.789  19.658   9.263  1.00  0.00    -0.291 OA
BRANCH  12  14
HETATM   14  C6  UNL     1       1.362  20.116   7.424  1.00  0.00     0.429 C 
BRANCH  14  15
HETATM   15  N2  UNL     1       1.264  21.494   7.087  1.00  0.00     0.127 N 
HETATM   16  C5  UNL     1      -0.017  21.827   6.501  1.00  0.00     0.296 C 
HETATM   17  C4  UNL     1      -0.199  23.355   6.603  1.00  0.00     0.158 C 
HETATM   18  N1  UNL     1       1.071  23.964   6.924  1.00  0.00    -0.325 N 
HETATM   19  C3  UNL     1       1.103  25.039   7.838  1.00  0.00     0.362 C 
HETATM   20  C31 UNL     1       2.315  23.512   6.350  1.00  0.00     0.158 C 
HETATM   21  O2  UNL     1       0.050  25.466   8.365  1.00  0.00    -0.238 OA
HETATM   22  C30 UNL     1       2.267  22.010   6.212  1.00  0.00     0.296 C 
BRANCH  19  23
HETATM   23  O1  UNL     1       2.291  25.678   8.197  1.00  0.00    -0.304 OA
BRANCH  23  24
HETATM   24  C2  UNL     1       2.560  27.041   7.897  1.00  0.00     0.176 C 
HETATM   25  C1  UNL     1       2.513  27.792   9.219  1.00  0.00     0.034 C 
ENDBRANCH  23  24
ENDBRANCH  19  23
ENDBRANCH  14  15
BRANCH  14  26
HETATM   26  O3  UNL     1       0.281  19.743   8.234  1.00  0.00    -0.362 OA
ATOM     27  H3  UNL     1       0.430  20.027   9.129  1.00  0.00     0.212 HD
ENDBRANCH  14  26
ENDBRANCH  12  14
ENDBRANCH  11  12
ENDBRANCH   8  11
ENDBRANCH   1   7
BRANCH   1  28
HETATM   28  N4  UNL     1       6.686  16.085   8.427  1.00  0.00    -0.341 N 
HETATM   29  C11 UNL     1       5.654  15.879   9.361  1.00  0.00     0.254 C 
HETATM   30  O6  UNL     1       4.958  16.883   9.692  1.00  0.00    -0.271 OA
ATOM     31  H4  UNL     1       7.255  15.286   8.150  1.00  0.00     0.163 HD
BRANCH  29  32
HETATM   32  C12 UNL     1       5.371  14.569   9.947  1.00  0.00     0.196 C 
HETATM   33  C13 UNL     1       4.132  14.522  10.799  1.00  0.00     0.056 C 
HETATM   34  C14 UNL     1       5.270  13.514   8.840  1.00  0.00     0.056 C 
BRANCH  32  35
HETATM   35  N5  UNL     1       6.493  14.159  10.786  1.00  0.00    -0.062 N 
ATOM     36  H53 UNL     1       7.311  13.897  10.235  1.00  0.00     0.275 HD
ATOM     37  H52 UNL     1       6.904  14.945  11.291  1.00  0.00     0.275 HD
ATOM     38  H51 UNL     1       6.193  13.413  11.412  1.00  0.00     0.275 HD
ENDBRANCH  32  35
ENDBRANCH  29  32
ENDBRANCH   1  28
BRANCH   4  39
HETATM   39  C17 UNL     1      11.031  18.770   7.434  1.00  0.00     0.034 C 
HETATM   40  C21 UNL     1      11.732  17.867   6.421  1.00  0.00     0.032 C 
HETATM   41  C22 UNL     1      13.219  18.043   6.455  1.00  0.00     0.011 C 
HETATM   42  C23 UNL     1      13.815  17.852   7.806  1.00  0.00    -0.048 C 
HETATM   43  C24 UNL     1      15.305  18.125   7.681  1.00  0.00     0.015 C 
HETATM   44  C25 UNL     1      13.674  16.447   8.341  1.00  0.00     0.015 C 
HETATM   45  C26 UNL     1      13.175  18.797   8.762  1.00  0.00     0.011 C 
HETATM   46  C27 UNL     1      11.684  18.598   8.804  1.00  0.00     0.032 C 
BRANCH  39  47
HETATM   47  C18 UNL     1      11.268  20.202   7.059  1.00  0.00     0.005 C 
HETATM   48  C19 UNL     1      10.965  20.610   5.668  1.00  0.00     0.012 C 
HETATM   49  C20 UNL     1      10.403  21.098   7.962  1.00  0.00     0.012 C 
ENDBRANCH  39  47
ENDBRANCH   4  39
TORSDOF 13
ENDMDL
MODEL 4
REMARK VINA RESULT: -7.647566904      1.648      2.703
REMARK  13 active torsions:
REMARK  status: ('A' for Active; 'I' for Inactive)
REMARK    1  A    between atoms: C2_2  and  O1_3 
REMARK    2  A    between atoms: O1_3  and  C3_4 
REMARK       I    between atoms: C3_4  and  N1_6 
REMARK    3  A    between atoms: N2_9  and  C6_10 
REMARK    4  A    between atoms: C6_10  and  O3_11 
REMARK    5  A    between atoms: C6_10  and  C7_13 
REMARK    6  A    between atoms: C7_13  and  C8_15 
REMARK    7  A    between atoms: C8_15  and  N3_16 
REMARK       I    between atoms: N3_16  and  C9_18 
REMARK    8  A    between atoms: C9_18  and  C10_20 
REMARK    9  A    between atoms: C10_20  and  N4_21 
REMARK       I    between atoms: N4_21  and  C11_23 
REMARK   10  A    between atoms: C11_23  and  C12_25 
REMARK   11  A    between atoms: C12_25  and  N5_28 
REMARK   12  A    between atoms: N6_34  and  C17_35 
REMARK   13  A    between atoms: C17_35  and  C18_36 
ROOT
HETATM    1  C10 UNL     1       7.266  17.292   7.667  1.00  0.00     0.119 C 
HETATM    2  C15 UNL     1       8.241  17.025   6.521  1.00  0.00     0.085 C 
HETATM    3  C16 UNL     1       9.138  18.230   6.354  1.00  0.00     0.062 C 
HETATM    4  N6  UNL     1       9.945  18.439   7.470  1.00  0.00    -0.384 N 
HETATM    5  C28 UNL     1       9.410  18.040   8.720  1.00  0.00     0.126 C 
HETATM    6  C29 UNL     1       7.890  18.238   8.620  1.00  0.00     0.061 C 
ENDROOT
BRANCH   1   7
HETATM    7  C9  UNL     1       6.018  17.776   7.025  1.00  0.00     0.246 C 
HETATM    8  N3  UNL     1       5.129  18.705   7.575  1.00  0.00    -0.352 N 
ATOM      9  H3  UNL     1       5.344  19.074   8.502  1.00  0.00     0.162 HD
HETATM   10  O5  UNL     1       5.753  17.287   5.872  1.00  0.00    -0.271 OA
BRANCH   8  11
HETATM   11  C8  UNL     1       3.939  19.176   6.931  1.00  0.00     0.206 C 
BRANCH  11  12
HETATM   12  C7  UNL     1       3.488  20.533   7.322  1.00  0.00     0.203 C 
HETATM   13  O4  UNL     1       2.421  20.723   7.879  1.00  0.00    -0.291 OA
BRANCH  12  14
HETATM   14  C6  UNL     1       4.415  21.653   6.993  1.00  0.00     0.429 C 
BRANCH  14  15
HETATM   15  N2  UNL     1       3.753  22.892   6.775  1.00  0.00     0.127 N 
HETATM   16  C5  UNL     1       3.206  22.995   5.438  1.00  0.00     0.296 C 
HETATM   17  C4  UNL     1       2.147  24.116   5.447  1.00  0.00     0.158 C 
HETATM   18  N1  UNL     1       2.293  24.896   6.654  1.00  0.00    -0.325 N 
HETATM   19  C3  UNL     1       1.133  25.340   7.326  1.00  0.00     0.362 C 
HETATM   20  C31 UNL     1       3.581  25.238   7.205  1.00  0.00     0.158 C 
HETATM   21  O2  UNL     1      -0.008  25.066   6.887  1.00  0.00    -0.238 OA
HETATM   22  C30 UNL     1       4.520  24.074   7.000  1.00  0.00     0.296 C 
BRANCH  19  23
HETATM   23  O1  UNL     1       1.192  26.097   8.496  1.00  0.00    -0.304 OA
BRANCH  23  24
HETATM   24  C2  UNL     1       1.000  27.505   8.519  1.00  0.00     0.176 C 
HETATM   25  C1  UNL     1       2.121  28.080   9.373  1.00  0.00     0.034 C 
ENDBRANCH  23  24
ENDBRANCH  19  23
ENDBRANCH  14  15
BRANCH  14  26
HETATM   26  O3  UNL     1       5.221  21.338   5.891  1.00  0.00    -0.362 OA
ATOM     27  H3  UNL     1       6.131  21.278   6.159  1.00  0.00     0.212 HD
ENDBRANCH  14  26
ENDBRANCH  12  14
ENDBRANCH  11  12
ENDBRANCH   8  11
ENDBRANCH   1   7
BRANCH   1  28
HETATM   28  N4  UNL     1       6.982  15.991   8.262  1.00  0.00    -0.341 N 
HETATM   29  C11 UNL     1       6.038  15.802   9.287  1.00  0.00     0.254 C 
HETATM   30  O6  UNL     1       5.414  16.822   9.701  1.00  0.00    -0.271 OA
ATOM     31  H4  UNL     1       7.493  15.179   7.917  1.00  0.00     0.163 HD
BRANCH  29  32
HETATM   32  C12 UNL     1       5.765  14.490   9.875  1.00  0.00     0.196 C 
HETATM   33  C13 UNL     1       4.761  14.506  10.995  1.00  0.00     0.056 C 
HETATM   34  C14 UNL     1       5.300  13.517   8.785  1.00  0.00     0.056 C 
BRANCH  32  35
HETATM   35  N5  UNL     1       7.003  13.929  10.407  1.00  0.00    -0.062 N 
ATOM     36  H53 UNL     1       7.626  13.599   9.669  1.00  0.00     0.275 HD
ATOM     37  H52 UNL     1       7.613  14.646  10.802  1.00  0.00     0.275 HD
ATOM     38  H51 UNL     1       6.782  13.197  11.081  1.00  0.00     0.275 HD
ENDBRANCH  32  35
ENDBRANCH  29  32
ENDBRANCH   1  28
BRANCH   4  39
HETATM   39  C17 UNL     1      11.292  18.775   7.395  1.00  0.00     0.034 C 
HETATM   40  C21 UNL     1      12.052  17.875   6.424  1.00  0.00     0.032 C 
HETATM   41  C22 UNL     1      13.532  18.089   6.509  1.00  0.00     0.011 C 
HETATM   42  C23 UNL     1      14.083  17.935   7.884  1.00  0.00    -0.048 C 
HETATM   43  C24 UNL     1      15.569  18.243   7.810  1.00  0.00     0.015 C 
HETATM   44  C25 UNL     1      13.957  16.534   8.435  1.00  0.00     0.015 C 
HETATM   45  C26 UNL     1      13.385  18.877   8.800  1.00  0.00     0.011 C 
HETATM   46  C27 UNL     1      11.898  18.641   8.791  1.00  0.00     0.032 C 
BRANCH  39  47
HETATM   47  C18 UNL     1      11.507  20.207   7.006  1.00  0.00     0.005 C 
HETATM   48  C19 UNL     1      11.251  20.585   5.597  1.00  0.00     0.012 C 
HETATM   49  C20 UNL     1      10.582  21.093   7.858  1.00  0.00     0.012 C 
ENDBRANCH  39  47
ENDBRANCH   4  39
TORSDOF 13
ENDMDL
MODEL 5
REMARK VINA RESULT: -7.479128387      3.187      7.593
REMARK  13 active torsions:
REMARK  status: ('A' for Active; 'I' for Inactive)
REMARK    1  A    between atoms: C2_2  and  O1_3 
REMARK    2  A    between atoms: O1_3  and  C3_4 
REMARK       I    between atoms: C3_4  and  N1_6 
REMARK    3  A    between atoms: N2_9  and  C6_10 
REMARK    4  A    between atoms: C6_10  and  O3_11 
REMARK    5  A    between atoms: C6_10  and  C7_13 
REMARK    6  A    between atoms: C7_13  and  C8_15 
REMARK    7  A    between atoms: C8_15  and  N3_16 
REMARK       I    between atoms: N3_16  and  C9_18 
REMARK    8  A    between atoms: C9_18  and  C10_20 
REMARK    9  A    between atoms: C10_20  and  N4_21 
REMARK       I    between atoms: N4_21  and  C11_23 
REMARK   10  A    between atoms: C11_23  and  C12_25 
REMARK   11  A    between atoms: C12_25  and  N5_28 
REMARK   12  A    between atoms: N6_34  and  C17_35 
REMARK   13  A    between atoms: C17_35  and  C18_36 
ROOT
HETATM    1  C10 UNL     1      10.056  19.553   7.768  1.00  0.00     0.119 C 
HETATM    2  C15 UNL     1       9.162  19.414   9.000  1.00  0.00     0.085 C 
HETATM    3  C16 UNL     1       7.743  19.159   8.547  1.00  0.00     0.062 C 
HETATM    4  N6  UNL     1       7.619  17.945   7.876  1.00  0.00    -0.384 N 
HETATM    5  C28 UNL     1       8.754  17.506   7.149  1.00  0.00     0.126 C 
HETATM    6  C29 UNL     1       9.465  18.775   6.655  1.00  0.00     0.061 C 
ENDROOT
BRANCH   1   7
HETATM    7  C9  UNL     1      10.174  21.012   7.524  1.00  0.00     0.246 C 
HETATM    8  N3  UNL     1      11.106  21.864   8.126  1.00  0.00    -0.352 N 
ATOM      9  H3  UNL     1      11.752  21.456   8.803  1.00  0.00     0.162 HD
HETATM   10  O5  UNL     1       9.343  21.511   6.688  1.00  0.00    -0.271 OA
BRANCH   8  11
HETATM   11  C8  UNL     1      11.218  23.267   7.862  1.00  0.00     0.206 C 
BRANCH  11  12
HETATM   12  C7  UNL     1      12.432  23.689   7.122  1.00  0.00     0.203 C 
HETATM   13  O4  UNL     1      13.341  24.294   7.663  1.00  0.00    -0.291 OA
BRANCH  12  14
HETATM   14  C6  UNL     1      12.476  23.330   5.676  1.00  0.00     0.429 C 
BRANCH  14  15
HETATM   15  N2  UNL     1      11.274  23.630   4.980  1.00  0.00     0.127 N 
HETATM   16  C5  UNL     1      11.107  22.817   3.794  1.00  0.00     0.296 C 
HETATM   17  C4  UNL     1       9.621  22.874   3.387  1.00  0.00     0.158 C 
HETATM   18  N1  UNL     1       8.977  23.956   4.095  1.00  0.00    -0.325 N 
HETATM   19  C3  UNL     1       7.669  23.766   4.592  1.00  0.00     0.362 C 
HETATM   20  C31 UNL     1       9.620  25.227   4.320  1.00  0.00     0.158 C 
HETATM   21  O2  UNL     1       7.070  22.679   4.424  1.00  0.00    -0.238 OA
HETATM   22  C30 UNL     1      11.088  24.988   4.581  1.00  0.00     0.296 C 
BRANCH  19  23
HETATM   23  O1  UNL     1       6.982  24.763   5.285  1.00  0.00    -0.304 OA
BRANCH  23  24
HETATM   24  C2  UNL     1       5.677  25.197   4.928  1.00  0.00     0.176 C 
HETATM   25  C1  UNL     1       4.761  24.800   6.076  1.00  0.00     0.034 C 
ENDBRANCH  23  24
ENDBRANCH  19  23
ENDBRANCH  14  15
BRANCH  14  26
HETATM   26  O3  UNL     1      12.812  21.981   5.497  1.00  0.00    -0.362 OA
ATOM     27  H3  UNL     1      12.188  21.427   5.952  1.00  0.00     0.212 HD
ENDBRANCH  14  26
ENDBRANCH  12  14
ENDBRANCH  11  12
ENDBRANCH   8  11
ENDBRANCH   1   7
BRANCH   1  28
HETATM   28  N4  UNL     1      11.369  19.063   8.169  1.00  0.00    -0.341 N 
HETATM   29  C11 UNL     1      12.424  18.855   7.262  1.00  0.00     0.254 C 
HETATM   30  O6  UNL     1      12.204  19.112   6.043  1.00  0.00    -0.271 OA
ATOM     31  H4  UNL     1      11.530  18.861   9.156  1.00  0.00     0.163 HD
BRANCH  29  32
HETATM   32  C12 UNL     1      13.737  18.362   7.680  1.00  0.00     0.196 C 
HETATM   33  C13 UNL     1      14.070  16.982   7.184  1.00  0.00     0.056 C 
HETATM   34  C14 UNL     1      14.828  19.342   7.235  1.00  0.00     0.056 C 
BRANCH  32  35
HETATM   35  N5  UNL     1      13.802  18.329   9.138  1.00  0.00    -0.062 N 
ATOM     36  H53 UNL     1      14.491  18.984   9.508  1.00  0.00     0.275 HD
ATOM     37  H52 UNL     1      12.970  18.733   9.571  1.00  0.00     0.275 HD
ATOM     38  H51 UNL     1      13.972  17.373   9.448  1.00  0.00     0.275 HD
ENDBRANCH  32  35
ENDBRANCH  29  32
ENDBRANCH   1  28
BRANCH   4  39
HETATM   39  C17 UNL     1       6.569  17.056   8.078  1.00  0.00     0.034 C 
HETATM   40  C21 UNL     1       6.092  17.054   9.529  1.00  0.00     0.032 C 
HETATM   41  C22 UNL     1       5.120  15.946   9.793  1.00  0.00     0.011 C 
HETATM   42  C23 UNL     1       5.631  14.597   9.422  1.00  0.00    -0.048 C 
HETATM   43  C24 UNL     1       4.513  13.604   9.691  1.00  0.00     0.015 C 
HETATM   44  C25 UNL     1       6.816  14.150  10.245  1.00  0.00     0.015 C 
HETATM   45  C26 UNL     1       6.015  14.597   7.985  1.00  0.00     0.011 C 
HETATM   46  C27 UNL     1       7.046  15.656   7.699  1.00  0.00     0.032 C 
BRANCH  39  47
HETATM   47  C18 UNL     1       5.401  17.333   7.179  1.00  0.00     0.005 C 
HETATM   48  C19 UNL     1       4.485  18.433   7.557  1.00  0.00     0.012 C 
HETATM   49  C20 UNL     1       5.930  17.683   5.777  1.00  0.00     0.012 C 
ENDBRANCH  39  47
ENDBRANCH   4  39
TORSDOF 13
ENDMDL
