MODEL 1
REMARK VINA RESULT: -7.679887124      0.000      0.000
REMARK  5 active torsions:
REMARK  status: ('A' for Active; 'I' for Inactive)
REMARK    1  A    between atoms: C2_2  and  C3_3 
REMARK    2  A    between atoms: N1_4  and  C4_6 
REMARK    3  A    between atoms: C7_11  and  N3_12 
REMARK    4  A    between atoms: C8_15  and  N4_16 
REMARK    5  A    between atoms: N4_16  and  N5_18 
ROOT
HETATM    1  C4  UNL     1      17.342   2.625  39.120  1.00  0.00     0.683 A 
HETATM    2  N2  UNL     1      17.150   2.421  37.824  1.00  0.00    -0.193 N 
ATOM      3  H2  UNL     1      17.961   2.131  37.277  1.00  0.00     0.184 HD
HETATM    4  C5  UNL     1      15.978   2.560  37.156  1.00  0.00     0.059 A 
HETATM    5  C6  UNL     1      15.871   2.304  35.695  1.00  0.00     0.071 C 
HETATM    6  C7  UNL     1      14.875   2.950  37.878  1.00  0.00     0.171 A 
HETATM    7  C8  UNL     1      15.010   3.178  39.232  1.00  0.00     0.170 A 
HETATM    8  N8  UNL     1      16.191   3.017  39.801  1.00  0.00    -0.173 N 
ATOM      9  H8  UNL     1      16.265   3.191  40.804  1.00  0.00     0.186 HD
ENDROOT
BRANCH   7  10
HETATM   10  N4  UNL     1      13.947   3.539  39.850  1.00  0.00    -0.285 N 
ATOM     11  H4  UNL     1      13.710   4.530  39.800  1.00  0.00     0.188 HD
BRANCH  10  12
HETATM   12  N5  UNL     1      13.088   2.743  40.571  1.00  0.00    -0.323 N 
HETATM   13  C9  UNL     1      13.011   1.369  40.115  1.00  0.00     0.160 C 
HETATM   14  C10 UNL     1      11.544   1.084  39.789  1.00  0.00     0.155 C 
HETATM   15  N6  UNL     1      10.952   2.350  39.382  1.00  0.00    -0.144 NA
HETATM   16  N7  UNL     1      10.263   2.922  40.431  1.00  0.00    -0.338 N 
HETATM   17  C11 UNL     1      11.007   3.843  41.233  1.00  0.00     0.156 C 
ATOM     18  H7  UNL     1       9.286   2.702  40.623  1.00  0.00     0.175 HD
HETATM   19  C12 UNL     1      12.346   3.298  41.688  1.00  0.00     0.163 C 
ENDBRANCH  10  12
ENDBRANCH   7  10
BRANCH   6  20
HETATM   20  N3  UNL     1      13.623   3.106  37.207  1.00  0.00    -0.110 N 
HETATM   21  O1  UNL     1      13.107   4.249  37.225  1.00  0.00    -0.532 OA
HETATM   22  O2  UNL     1      12.993   2.071  36.567  1.00  0.00    -0.532 OA
ENDBRANCH   6  20
BRANCH   1  23
HETATM   23  N1  UNL     1      18.394   2.507  39.771  1.00  0.00    -0.205 N 
HETATM   24  C3  UNL     1      19.728   2.361  39.582  1.00  0.00     0.078 C 
ATOM     25  H1  UNL     1      18.187   2.529  40.770  1.00  0.00     0.183 HD
BRANCH  24  26
HETATM   26  C2  UNL     1      20.328   2.354  38.202  1.00  0.00     0.040 C 
HETATM   27  C1  UNL     1      20.684   0.902  37.823  1.00  0.00     0.010 C 
ENDBRANCH  24  26
ENDBRANCH   1  23
TORSDOF 5
ENDMDL
MODEL 2
REMARK VINA RESULT: -7.611616000      4.012      6.738
REMARK  5 active torsions:
REMARK  status: ('A' for Active; 'I' for Inactive)
REMARK    1  A    between atoms: C2_2  and  C3_3 
REMARK    2  A    between atoms: N1_4  and  C4_6 
REMARK    3  A    between atoms: C7_11  and  N3_12 
REMARK    4  A    between atoms: C8_15  and  N4_16 
REMARK    5  A    between atoms: N4_16  and  N5_18 
ROOT
HETATM    1  C4  UNL     1      17.707   2.552  39.180  1.00  0.00     0.683 A 
HETATM    2  N2  UNL     1      17.878   2.473  37.868  1.00  0.00    -0.193 N 
ATOM      3  H2  UNL     1      17.204   2.968  37.284  1.00  0.00     0.184 HD
HETATM    4  C5  UNL     1      18.864   1.797  37.227  1.00  0.00     0.059 A 
HETATM    5  C6  UNL     1      18.966   1.774  35.743  1.00  0.00     0.071 C 
HETATM    6  C7  UNL     1      19.780   1.124  38.000  1.00  0.00     0.171 A 
HETATM    7  C8  UNL     1      19.656   1.168  39.373  1.00  0.00     0.170 A 
HETATM    8  N8  UNL     1      18.664   1.852  39.912  1.00  0.00    -0.173 N 
ATOM      9  H8  UNL     1      18.594   1.870  40.930  1.00  0.00     0.186 HD
ENDROOT
BRANCH   7  10
HETATM   10  N4  UNL     1      20.541   0.520  40.038  1.00  0.00    -0.285 N 
ATOM     11  H4  UNL     1      21.509   0.815  39.907  1.00  0.00     0.188 HD
BRANCH  10  12
HETATM   12  N5  UNL     1      20.334  -0.525  40.907  1.00  0.00    -0.323 N 
HETATM   13  C9  UNL     1      21.214  -1.659  40.707  1.00  0.00     0.160 C 
HETATM   14  C10 UNL     1      20.325  -2.882  40.465  1.00  0.00     0.155 C 
HETATM   15  N6  UNL     1      19.101  -2.394  39.848  1.00  0.00    -0.144 NA
HETATM   16  N7  UNL     1      18.101  -2.267  40.790  1.00  0.00    -0.338 N 
HETATM   17  C11 UNL     1      17.982  -0.979  41.399  1.00  0.00     0.156 C 
ATOM     18  H7  UNL     1      17.487  -3.043  41.036  1.00  0.00     0.175 HD
HETATM   19  C12 UNL     1      19.298  -0.436  41.920  1.00  0.00     0.163 C 
ENDBRANCH  10  12
ENDBRANCH   7  10
BRANCH   6  20
HETATM   20  N3  UNL     1      20.834   0.401  37.359  1.00  0.00    -0.110 N 
HETATM   21  O1  UNL     1      20.751  -0.851  37.368  1.00  0.00    -0.532 OA
HETATM   22  O2  UNL     1      21.897   1.021  36.757  1.00  0.00    -0.532 OA
ENDBRANCH   6  20
BRANCH   1  23
HETATM   23  N1  UNL     1      16.821   3.160  39.806  1.00  0.00    -0.205 N 
HETATM   24  C3  UNL     1      15.701   3.889  39.587  1.00  0.00     0.078 C 
ATOM     25  H1  UNL     1      16.994   3.085  40.809  1.00  0.00     0.183 HD
BRANCH  24  26
HETATM   26  C2  UNL     1      15.171   4.114  38.196  1.00  0.00     0.040 C 
HETATM   27  C1  UNL     1      14.251   2.934  37.819  1.00  0.00     0.010 C 
ENDBRANCH  24  26
ENDBRANCH   1  23
TORSDOF 5
ENDMDL
MODEL 3
REMARK VINA RESULT: -7.471157163      0.805      1.025
REMARK  5 active torsions:
REMARK  status: ('A' for Active; 'I' for Inactive)
REMARK    1  A    between atoms: C2_2  and  C3_3 
REMARK    2  A    between atoms: N1_4  and  C4_6 
REMARK    3  A    between atoms: C7_11  and  N3_12 
REMARK    4  A    between atoms: C8_15  and  N4_16 
REMARK    5  A    between atoms: N4_16  and  N5_18 
ROOT
HETATM    1  C4  UNL     1      17.257   2.708  39.127  1.00  0.00     0.683 A 
HETATM    2  N2  UNL     1      17.048   2.404  37.854  1.00  0.00    -0.193 N 
ATOM      3  H2  UNL     1      17.841   2.026  37.334  1.00  0.00     0.184 HD
HETATM    4  C5  UNL     1      15.882   2.547  37.176  1.00  0.00     0.059 A 
HETATM    5  C6  UNL     1      15.755   2.171  35.742  1.00  0.00     0.071 C 
HETATM    6  C7  UNL     1      14.805   3.055  37.862  1.00  0.00     0.171 A 
HETATM    7  C8  UNL     1      14.958   3.392  39.191  1.00  0.00     0.170 A 
HETATM    8  N8  UNL     1      16.132   3.219  39.772  1.00  0.00    -0.173 N 
ATOM      9  H8  UNL     1      16.220   3.474  40.756  1.00  0.00     0.186 HD
ENDROOT
BRANCH   7  10
HETATM   10  N4  UNL     1      13.918   3.861  39.776  1.00  0.00    -0.285 N 
ATOM     11  H4  UNL     1      13.763   4.865  39.684  1.00  0.00     0.188 HD
BRANCH  10  12
HETATM   12  N5  UNL     1      12.988   3.165  40.512  1.00  0.00    -0.323 N 
HETATM   13  C9  UNL     1      13.543   2.139  41.371  1.00  0.00     0.160 C 
HETATM   14  C10 UNL     1      12.878   0.817  40.982  1.00  0.00     0.155 C 
HETATM   15  N6  UNL     1      12.537   0.920  39.571  1.00  0.00    -0.144 NA
HETATM   16  N7  UNL     1      11.207   1.252  39.417  1.00  0.00    -0.338 N 
HETATM   17  C11 UNL     1      10.925   2.649  39.305  1.00  0.00     0.156 C 
ATOM     18  H7  UNL     1      10.471   0.546  39.387  1.00  0.00     0.175 HD
HETATM   19  C12 UNL     1      11.577   3.483  40.390  1.00  0.00     0.163 C 
ENDBRANCH  10  12
ENDBRANCH   7  10
BRANCH   6  20
HETATM   20  N3  UNL     1      13.559   3.219  37.181  1.00  0.00    -0.110 N 
HETATM   21  O1  UNL     1      13.071   4.374  37.159  1.00  0.00    -0.532 OA
HETATM   22  O2  UNL     1      12.907   2.179  36.571  1.00  0.00    -0.532 OA
ENDBRANCH   6  20
BRANCH   1  23
HETATM   23  N1  UNL     1      18.305   2.592  39.785  1.00  0.00    -0.205 N 
HETATM   24  C3  UNL     1      19.639   2.436  39.606  1.00  0.00     0.078 C 
ATOM     25  H1  UNL     1      18.092   2.626  40.782  1.00  0.00     0.183 HD
BRANCH  24  26
HETATM   26  C2  UNL     1      20.247   2.412  38.229  1.00  0.00     0.040 C 
HETATM   27  C1  UNL     1      20.504   0.945  37.827  1.00  0.00     0.010 C 
ENDBRANCH  24  26
ENDBRANCH   1  23
TORSDOF 5
ENDMDL
MODEL 4
REMARK VINA RESULT: -7.211144680      4.794      7.136
REMARK  5 active torsions:
REMARK  status: ('A' for Active; 'I' for Inactive)
REMARK    1  A    between atoms: C2_2  and  C3_3 
REMARK    2  A    between atoms: N1_4  and  C4_6 
REMARK    3  A    between atoms: C7_11  and  N3_12 
REMARK    4  A    between atoms: C8_15  and  N4_16 
REMARK    5  A    between atoms: N4_16  and  N5_18 
ROOT
HETATM    1  C4  UNL     1      18.221   2.166  39.333  1.00  0.00     0.683 A 
HETATM    2  N2  UNL     1      19.155   1.893  38.432  1.00  0.00    -0.193 N 
ATOM      3  H2  UNL     1      19.180   2.482  37.599  1.00  0.00     0.184 HD
HETATM    4  C5  UNL     1      20.081   0.905  38.512  1.00  0.00     0.059 A 
HETATM    5  C6  UNL     1      21.090   0.685  37.441  1.00  0.00     0.071 C 
HETATM    6  C7  UNL     1      20.061   0.101  39.627  1.00  0.00     0.171 A 
HETATM    7  C8  UNL     1      19.112   0.335  40.601  1.00  0.00     0.170 A 
HETATM    8  N8  UNL     1      18.248   1.321  40.441  1.00  0.00    -0.173 N 
ATOM      9  H8  UNL     1      17.557   1.474  41.175  1.00  0.00     0.186 HD
ENDROOT
BRANCH   7  10
HETATM   10  N4  UNL     1      19.145  -0.448  41.616  1.00  0.00    -0.285 N 
ATOM     11  H4  UNL     1      19.936  -0.332  42.250  1.00  0.00     0.188 HD
BRANCH  10  12
HETATM   12  N5  UNL     1      18.235  -1.424  41.947  1.00  0.00    -0.323 N 
HETATM   13  C9  UNL     1      17.588  -1.236  43.230  1.00  0.00     0.160 C 
HETATM   14  C10 UNL     1      17.863  -2.491  44.062  1.00  0.00     0.155 C 
HETATM   15  N6  UNL     1      19.140  -3.022  43.609  1.00  0.00    -0.144 NA
HETATM   16  N7  UNL     1      18.946  -4.057  42.719  1.00  0.00    -0.338 N 
HETATM   17  C11 UNL     1      18.920  -3.691  41.337  1.00  0.00     0.156 C 
ATOM     18  H7  UNL     1      18.827  -5.022  43.027  1.00  0.00     0.175 HD
HETATM   19  C12 UNL     1      17.992  -2.531  41.039  1.00  0.00     0.163 C 
ENDBRANCH  10  12
ENDBRANCH   7  10
BRANCH   6  20
HETATM   20  N3  UNL     1      21.022  -0.949  39.746  1.00  0.00    -0.110 N 
HETATM   21  O1  UNL     1      21.727  -0.961  40.784  1.00  0.00    -0.532 OA
HETATM   22  O2  UNL     1      21.188  -1.912  38.785  1.00  0.00    -0.532 OA
ENDBRANCH   6  20
BRANCH   1  23
HETATM   23  N1  UNL     1      17.357   3.059  39.300  1.00  0.00    -0.205 N 
HETATM   24  C3  UNL     1      16.337   3.497  38.524  1.00  0.00     0.078 C 
ATOM     25  H1  UNL     1      17.445   3.654  40.124  1.00  0.00     0.183 HD
BRANCH  24  26
HETATM   26  C2  UNL     1      15.940   2.771  37.266  1.00  0.00     0.040 C 
HETATM   27  C1  UNL     1      14.403   2.793  37.146  1.00  0.00     0.010 C 
ENDBRANCH  24  26
ENDBRANCH   1  23
TORSDOF 5
ENDMDL
MODEL 5
REMARK VINA RESULT: -7.209522016      5.935      8.578
REMARK  5 active torsions:
REMARK  status: ('A' for Active; 'I' for Inactive)
REMARK    1  A    between atoms: C2_2  and  C3_3 
REMARK    2  A    between atoms: N1_4  and  C4_6 
REMARK    3  A    between atoms: C7_11  and  N3_12 
REMARK    4  A    between atoms: C8_15  and  N4_16 
REMARK    5  A    between atoms: N4_16  and  N5_18 
ROOT
HETATM    1  C4  UNL     1      22.591  -3.098  39.941  1.00  0.00     0.683 A 
HETATM    2  N2  UNL     1      21.910  -3.598  40.964  1.00  0.00    -0.193 N 
ATOM      3  H2  UNL     1      22.350  -4.357  41.484  1.00  0.00     0.184 HD
HETATM    4  C5  UNL     1      20.684  -3.196  41.384  1.00  0.00     0.059 A 
HETATM    5  C6  UNL     1      20.007  -3.827  42.548  1.00  0.00     0.071 C 
HETATM    6  C7  UNL     1      20.078  -2.174  40.693  1.00  0.00     0.171 A 
HETATM    7  C8  UNL     1      20.735  -1.612  39.618  1.00  0.00     0.170 A 
HETATM    8  N8  UNL     1      21.928  -2.066  39.279  1.00  0.00    -0.173 N 
ATOM      9  H8  UNL     1      22.395  -1.633  38.482  1.00  0.00     0.186 HD
ENDROOT
BRANCH   7  10
HETATM   10  N4  UNL     1      20.118  -0.664  39.015  1.00  0.00    -0.285 N 
ATOM     11  H4  UNL     1      19.114  -0.791  38.883  1.00  0.00     0.188 HD
BRANCH  10  12
HETATM   12  N5  UNL     1      20.654   0.504  38.526  1.00  0.00    -0.323 N 
HETATM   13  C9  UNL     1      20.628   1.616  39.455  1.00  0.00     0.160 C 
HETATM   14  C10 UNL     1      19.862   2.753  38.775  1.00  0.00     0.155 C 
HETATM   15  N6  UNL     1      18.908   2.132  37.868  1.00  0.00    -0.144 NA
HETATM   16  N7  UNL     1      19.395   2.132  36.578  1.00  0.00    -0.338 N 
HETATM   17  C11 UNL     1      20.113   0.960  36.185  1.00  0.00     0.156 C 
ATOM     18  H7  UNL     1      19.253   2.919  35.944  1.00  0.00     0.175 HD
HETATM   19  C12 UNL     1      21.185   0.551  37.176  1.00  0.00     0.163 C 
ENDBRANCH  10  12
ENDBRANCH   7  10
BRANCH   6  20
HETATM   20  N3  UNL     1      18.786  -1.724  41.107  1.00  0.00    -0.110 N 
HETATM   21  O1  UNL     1      18.730  -0.611  41.682  1.00  0.00    -0.532 OA
HETATM   22  O2  UNL     1      17.646  -2.456  40.900  1.00  0.00    -0.532 OA
ENDBRANCH   6  20
BRANCH   1  23
HETATM   23  N1  UNL     1      23.713  -3.434  39.525  1.00  0.00    -0.205 N 
HETATM   24  C3  UNL     1      24.744  -4.252  39.846  1.00  0.00     0.078 C 
ATOM     25  H1  UNL     1      23.925  -2.932  38.663  1.00  0.00     0.183 HD
BRANCH  24  26
HETATM   26  C2  UNL     1      24.680  -5.160  41.045  1.00  0.00     0.040 C 
HETATM   27  C1  UNL     1      25.982  -5.001  41.857  1.00  0.00     0.010 C 
ENDBRANCH  24  26
ENDBRANCH   1  23
TORSDOF 5
ENDMDL
