MODEL 1
REMARK VINA RESULT: -6.664812185      0.000      0.000
REMARK  5 active torsions:
REMARK  status: ('A' for Active; 'I' for Inactive)
REMARK    1  A    between atoms: C2_2  and  N1_3 
REMARK       I    between atoms: C3_5  and  N2_6 
REMARK       I    between atoms: C3_5  and  N7_22 
REMARK    2  A    between atoms: C5_11  and  N4_12 
REMARK    3  A    between atoms: N7_22  and  C10_24 
REMARK    4  A    between atoms: C10_24  and  C13_27 
REMARK    5  A    between atoms: C13_27  and  O2_28 
ROOT
HETATM    1  N1  UNL     1      20.100  -4.490  42.825  1.00  0.00    -0.227 N 
ATOM      2  H1  UNL     1      19.881  -4.816  43.767  1.00  0.00     0.177 HD
HETATM    3  C3  UNL     1      19.165  -4.110  42.047  1.00  0.00     0.677 C 
HETATM    4  N2  UNL     1      19.473  -3.662  40.747  1.00  0.00    -0.153 N 
ATOM      5  H2  UNL     1      19.500  -4.316  39.965  1.00  0.00     0.188 HD
HETATM    6  C4  UNL     1      19.721  -2.417  40.567  1.00  0.00     0.276 A 
HETATM    7  N3  UNL     1      20.039  -1.790  39.394  1.00  0.00    -0.151 N 
ATOM      8  H3  UNL     1      20.123  -2.244  38.485  1.00  0.00     0.188 HD
HETATM    9  C5  UNL     1      20.222  -0.489  39.630  1.00  0.00     0.704 A 
HETATM   10  N6  UNL     1      20.021  -0.309  40.933  1.00  0.00    -0.088 N 
ATOM     11  H6  UNL     1      20.086   0.579  41.430  1.00  0.00     0.214 HD
HETATM   12  O1  UNL     1      19.725  -1.467  41.468  1.00  0.00    -0.185 OA
HETATM   13  N7  UNL     1      17.819  -4.132  42.472  1.00  0.00    -0.216 N 
ATOM     14  H7  UNL     1      17.084  -3.833  41.831  1.00  0.00     0.178 HD
ENDROOT
BRANCH   1  15
HETATM   15  C2  UNL     1      21.472  -4.458  42.369  1.00  0.00     0.133 C 
HETATM   16  C1  UNL     1      22.213  -5.578  43.036  1.00  0.00     0.027 C 
ENDBRANCH   1  15
BRANCH  13  17
HETATM   17  C10 UNL     1      17.470  -4.575  43.803  1.00  0.00     0.061 C 
HETATM   18  C11 UNL     1      17.346  -3.383  44.753  1.00  0.00     0.041 C 
HETATM   19  C12 UNL     1      18.467  -5.590  44.344  1.00  0.00     0.041 C 
BRANCH  17  20
HETATM   20  C13 UNL     1      16.116  -5.240  43.778  1.00  0.00     0.194 C 
BRANCH  20  21
HETATM   21  O2  UNL     1      15.169  -4.493  44.457  1.00  0.00    -0.398 OA
ATOM     22  H2  UNL     1      14.596  -5.044  44.977  1.00  0.00     0.209 HD
ENDBRANCH  20  21
ENDBRANCH  17  20
ENDBRANCH  13  17
BRANCH   9  23
HETATM   23  N4  UNL     1      20.560   0.492  38.680  1.00  0.00    -0.210 N 
HETATM   24  C6  UNL     1      20.861   0.175  37.293  1.00  0.00     0.161 C 
HETATM   25  C7  UNL     1      20.230   1.138  36.338  1.00  0.00     0.139 C 
HETATM   26  N5  UNL     1      19.362   2.100  36.910  1.00  0.00    -0.399 N 
HETATM   27  C8  UNL     1      19.683   2.644  38.156  1.00  0.00     0.075 C 
ATOM     28  H5  UNL     1      18.517   2.391  36.420  1.00  0.00     0.158 HD
HETATM   29  C9  UNL     1      20.639   1.904  39.010  1.00  0.00     0.185 C 
ENDBRANCH   9  23
TORSDOF 5
ENDMDL
MODEL 2
REMARK VINA RESULT: -6.664278701      0.458      1.035
REMARK  5 active torsions:
REMARK  status: ('A' for Active; 'I' for Inactive)
REMARK    1  A    between atoms: C2_2  and  N1_3 
REMARK       I    between atoms: C3_5  and  N2_6 
REMARK       I    between atoms: C3_5  and  N7_22 
REMARK    2  A    between atoms: C5_11  and  N4_12 
REMARK    3  A    between atoms: N7_22  and  C10_24 
REMARK    4  A    between atoms: C10_24  and  C13_27 
REMARK    5  A    between atoms: C13_27  and  O2_28 
ROOT
HETATM    1  N1  UNL     1      20.118  -4.464  42.784  1.00  0.00    -0.227 N 
ATOM      2  H1  UNL     1      19.903  -4.797  43.725  1.00  0.00     0.177 HD
HETATM    3  C3  UNL     1      19.179  -4.069  42.017  1.00  0.00     0.677 C 
HETATM    4  N2  UNL     1      19.481  -3.610  40.720  1.00  0.00    -0.153 N 
ATOM      5  H2  UNL     1      19.497  -4.256  39.931  1.00  0.00     0.188 HD
HETATM    6  C4  UNL     1      19.737  -2.365  40.550  1.00  0.00     0.276 A 
HETATM    7  N3  UNL     1      20.051  -1.729  39.381  1.00  0.00    -0.151 N 
ATOM      8  H3  UNL     1      20.125  -2.175  38.467  1.00  0.00     0.188 HD
HETATM    9  C5  UNL     1      20.246  -0.432  39.628  1.00  0.00     0.704 A 
HETATM   10  N6  UNL     1      20.056  -0.263  40.935  1.00  0.00    -0.088 N 
ATOM     11  H6  UNL     1      20.131   0.619  41.441  1.00  0.00     0.214 HD
HETATM   12  O1  UNL     1      19.755  -1.425  41.460  1.00  0.00    -0.185 OA
HETATM   13  N7  UNL     1      17.836  -4.086  42.452  1.00  0.00    -0.216 N 
ATOM     14  H7  UNL     1      17.099  -3.774  41.820  1.00  0.00     0.178 HD
ENDROOT
BRANCH   1  15
HETATM   15  C2  UNL     1      21.486  -4.438  42.318  1.00  0.00     0.133 C 
HETATM   16  C1  UNL     1      22.216  -5.588  42.944  1.00  0.00     0.027 C 
ENDBRANCH   1  15
BRANCH  13  17
HETATM   17  C10 UNL     1      17.494  -4.539  43.781  1.00  0.00     0.061 C 
HETATM   18  C11 UNL     1      18.510  -5.569  44.277  1.00  0.00     0.041 C 
HETATM   19  C12 UNL     1      16.083  -5.106  43.842  1.00  0.00     0.041 C 
BRANCH  17  20
HETATM   20  C13 UNL     1      17.559  -3.381  44.745  1.00  0.00     0.194 C 
BRANCH  20  21
HETATM   21  O2  UNL     1      16.317  -2.798  44.925  1.00  0.00    -0.398 OA
ATOM     22  H2  UNL     1      16.317  -1.886  44.659  1.00  0.00     0.209 HD
ENDBRANCH  20  21
ENDBRANCH  17  20
ENDBRANCH  13  17
BRANCH   9  23
HETATM   23  N4  UNL     1      20.585   0.556  38.686  1.00  0.00    -0.210 N 
HETATM   24  C6  UNL     1      21.000   0.241  37.329  1.00  0.00     0.161 C 
HETATM   25  C7  UNL     1      20.376   1.146  36.315  1.00  0.00     0.139 C 
HETATM   26  N5  UNL     1      19.410   2.056  36.808  1.00  0.00    -0.399 N 
HETATM   27  C8  UNL     1      19.607   2.638  38.064  1.00  0.00     0.075 C 
ATOM     28  H5  UNL     1      18.583   2.284  36.257  1.00  0.00     0.158 HD
HETATM   29  C9  UNL     1      20.547   1.975  38.994  1.00  0.00     0.185 C 
ENDBRANCH   9  23
TORSDOF 5
ENDMDL
MODEL 3
REMARK VINA RESULT: -6.261484506      0.916      1.278
REMARK  5 active torsions:
REMARK  status: ('A' for Active; 'I' for Inactive)
REMARK    1  A    between atoms: C2_2  and  N1_3 
REMARK       I    between atoms: C3_5  and  N2_6 
REMARK       I    between atoms: C3_5  and  N7_22 
REMARK    2  A    between atoms: C5_11  and  N4_12 
REMARK    3  A    between atoms: N7_22  and  C10_24 
REMARK    4  A    between atoms: C10_24  and  C13_27 
REMARK    5  A    between atoms: C13_27  and  O2_28 
ROOT
HETATM    1  N1  UNL     1      20.216  -4.479  42.703  1.00  0.00    -0.227 N 
ATOM      2  H1  UNL     1      20.020  -4.817  43.646  1.00  0.00     0.177 HD
HETATM    3  C3  UNL     1      19.264  -4.074  41.958  1.00  0.00     0.677 C 
HETATM    4  N2  UNL     1      19.542  -3.610  40.657  1.00  0.00    -0.153 N 
ATOM      5  H2  UNL     1      19.537  -4.251  39.864  1.00  0.00     0.188 HD
HETATM    6  C4  UNL     1      19.801  -2.365  40.489  1.00  0.00     0.276 A 
HETATM    7  N3  UNL     1      20.094  -1.725  39.318  1.00  0.00    -0.151 N 
ATOM      8  H3  UNL     1      20.146  -2.166  38.400  1.00  0.00     0.188 HD
HETATM    9  C5  UNL     1      20.301  -0.430  39.568  1.00  0.00     0.704 A 
HETATM   10  N6  UNL     1      20.140  -0.268  40.879  1.00  0.00    -0.088 N 
ATOM     11  H6  UNL     1      20.231   0.611  41.388  1.00  0.00     0.214 HD
HETATM   12  O1  UNL     1      19.844  -1.431  41.404  1.00  0.00    -0.185 OA
HETATM   13  N7  UNL     1      17.931  -4.086  42.421  1.00  0.00    -0.216 N 
ATOM     14  H7  UNL     1      17.182  -3.766  41.806  1.00  0.00     0.178 HD
ENDROOT
BRANCH   1  15
HETATM   15  C2  UNL     1      21.575  -4.459  42.208  1.00  0.00     0.133 C 
HETATM   16  C1  UNL     1      22.328  -5.579  42.861  1.00  0.00     0.027 C 
ENDBRANCH   1  15
BRANCH  13  17
HETATM   17  C10 UNL     1      17.614  -4.545  43.755  1.00  0.00     0.061 C 
HETATM   18  C11 UNL     1      16.244  -5.225  43.779  1.00  0.00     0.041 C 
HETATM   19  C12 UNL     1      17.669  -3.415  44.773  1.00  0.00     0.041 C 
BRANCH  17  20
HETATM   20  C13 UNL     1      18.614  -5.590  44.182  1.00  0.00     0.194 C 
BRANCH  20  21
HETATM   21  O2  UNL     1      19.224  -5.252  45.378  1.00  0.00    -0.398 OA
ATOM     22  H2  UNL     1      19.709  -5.983  45.742  1.00  0.00     0.209 HD
ENDBRANCH  20  21
ENDBRANCH  17  20
ENDBRANCH  13  17
BRANCH   9  23
HETATM   23  N4  UNL     1      20.626   0.562  38.624  1.00  0.00    -0.210 N 
HETATM   24  C6  UNL     1      21.040   0.250  37.266  1.00  0.00     0.161 C 
HETATM   25  C7  UNL     1      20.403   1.149  36.254  1.00  0.00     0.139 C 
HETATM   26  N5  UNL     1      19.428   2.049  36.751  1.00  0.00    -0.399 N 
HETATM   27  C8  UNL     1      19.624   2.632  38.005  1.00  0.00     0.075 C 
ATOM     28  H5  UNL     1      18.598   2.267  36.202  1.00  0.00     0.158 HD
HETATM   29  C9  UNL     1      20.575   1.980  38.932  1.00  0.00     0.185 C 
ENDBRANCH   9  23
TORSDOF 5
ENDMDL
MODEL 4
REMARK VINA RESULT: -6.038947898      2.958      4.962
REMARK  5 active torsions:
REMARK  status: ('A' for Active; 'I' for Inactive)
REMARK    1  A    between atoms: C2_2  and  N1_3 
REMARK       I    between atoms: C3_5  and  N2_6 
REMARK       I    between atoms: C3_5  and  N7_22 
REMARK    2  A    between atoms: C5_11  and  N4_12 
REMARK    3  A    between atoms: N7_22  and  C10_24 
REMARK    4  A    between atoms: C10_24  and  C13_27 
REMARK    5  A    between atoms: C13_27  and  O2_28 
ROOT
HETATM    1  N1  UNL     1      21.457  -3.880  40.668  1.00  0.00    -0.227 N 
ATOM      2  H1  UNL     1      21.873  -4.811  40.615  1.00  0.00     0.177 HD
HETATM    3  C3  UNL     1      22.188  -2.845  40.539  1.00  0.00     0.677 C 
HETATM    4  N2  UNL     1      21.608  -1.563  40.615  1.00  0.00    -0.153 N 
ATOM      5  H2  UNL     1      21.537  -1.077  41.508  1.00  0.00     0.188 HD
HETATM    6  C4  UNL     1      21.171  -1.020  39.538  1.00  0.00     0.276 A 
HETATM    7  N3  UNL     1      20.580   0.205  39.403  1.00  0.00    -0.151 N 
ATOM      8  H3  UNL     1      20.404   0.864  40.161  1.00  0.00     0.188 HD
HETATM    9  C5  UNL     1      20.268   0.400  38.119  1.00  0.00     0.704 A 
HETATM   10  N6  UNL     1      20.661  -0.690  37.465  1.00  0.00    -0.088 N 
ATOM     11  H6  UNL     1      20.564  -0.854  36.463  1.00  0.00     0.214 HD
HETATM   12  O1  UNL     1      21.194  -1.519  38.329  1.00  0.00    -0.185 OA
HETATM   13  N7  UNL     1      23.578  -2.965  40.320  1.00  0.00    -0.216 N 
ATOM     14  H7  UNL     1      24.148  -2.124  40.228  1.00  0.00     0.178 HD
ENDROOT
BRANCH   1  15
HETATM   15  C2  UNL     1      20.036  -3.733  40.891  1.00  0.00     0.133 C 
HETATM   16  C1  UNL     1      19.727  -4.216  42.277  1.00  0.00     0.027 C 
ENDBRANCH   1  15
BRANCH  13  17
HETATM   17  C10 UNL     1      24.202  -4.266  40.226  1.00  0.00     0.061 C 
HETATM   18  C11 UNL     1      24.311  -4.706  38.766  1.00  0.00     0.041 C 
HETATM   19  C12 UNL     1      23.463  -5.312  41.048  1.00  0.00     0.041 C 
BRANCH  17  20
HETATM   20  C13 UNL     1      25.613  -4.190  40.753  1.00  0.00     0.194 C 
BRANCH  20  21
HETATM   21  O2  UNL     1      25.668  -4.475  42.107  1.00  0.00    -0.398 OA
ATOM     22  H2  UNL     1      24.879  -4.914  42.404  1.00  0.00     0.209 HD
ENDBRANCH  20  21
ENDBRANCH  17  20
ENDBRANCH  13  17
BRANCH   9  23
HETATM   23  N4  UNL     1      19.647   1.539  37.574  1.00  0.00    -0.210 N 
HETATM   24  C6  UNL     1      19.586   1.793  36.143  1.00  0.00     0.161 C 
HETATM   25  C7  UNL     1      18.245   2.292  35.708  1.00  0.00     0.139 C 
HETATM   26  N5  UNL     1      17.239   2.315  36.705  1.00  0.00    -0.399 N 
HETATM   27  C8  UNL     1      17.591   2.658  38.013  1.00  0.00     0.075 C 
ATOM     28  H5  UNL     1      16.273   2.084  36.473  1.00  0.00     0.158 HD
HETATM   29  C9  UNL     1      19.016   2.555  38.397  1.00  0.00     0.185 C 
ENDBRANCH   9  23
TORSDOF 5
ENDMDL
MODEL 5
REMARK VINA RESULT: -5.945353347      1.608      1.897
REMARK  5 active torsions:
REMARK  status: ('A' for Active; 'I' for Inactive)
REMARK    1  A    between atoms: C2_2  and  N1_3 
REMARK       I    between atoms: C3_5  and  N2_6 
REMARK       I    between atoms: C3_5  and  N7_22 
REMARK    2  A    between atoms: C5_11  and  N4_12 
REMARK    3  A    between atoms: N7_22  and  C10_24 
REMARK    4  A    between atoms: C10_24  and  C13_27 
REMARK    5  A    between atoms: C13_27  and  O2_28 
ROOT
HETATM    1  N1  UNL     1      21.845  -3.971  41.460  1.00  0.00    -0.227 N 
ATOM      2  H1  UNL     1      22.018  -4.408  42.366  1.00  0.00     0.177 HD
HETATM    3  C3  UNL     1      20.650  -3.735  41.083  1.00  0.00     0.677 C 
HETATM    4  N2  UNL     1      20.417  -3.133  39.831  1.00  0.00    -0.153 N 
ATOM      5  H2  UNL     1      20.288  -3.704  38.996  1.00  0.00     0.188 HD
HETATM    6  C4  UNL     1      20.372  -1.853  39.761  1.00  0.00     0.276 A 
HETATM    7  N3  UNL     1      20.160  -1.085  38.651  1.00  0.00    -0.151 N 
ATOM      8  H3  UNL     1      20.007  -1.439  37.707  1.00  0.00     0.188 HD
HETATM    9  C5  UNL     1      20.187   0.203  38.999  1.00  0.00     0.704 A 
HETATM   10  N6  UNL     1      20.414   0.236  40.310  1.00  0.00    -0.088 N 
ATOM     11  H6  UNL     1      20.491   1.076  40.883  1.00  0.00     0.214 HD
HETATM   12  O1  UNL     1      20.520  -0.997  40.740  1.00  0.00    -0.185 OA
HETATM   13  N7  UNL     1      19.554  -4.071  41.906  1.00  0.00    -0.216 N 
ATOM     14  H7  UNL     1      18.605  -3.883  41.582  1.00  0.00     0.178 HD
ENDROOT
BRANCH   1  15
HETATM   15  C2  UNL     1      22.953  -3.619  40.601  1.00  0.00     0.133 C 
HETATM   16  C1  UNL     1      23.894  -4.785  40.548  1.00  0.00     0.027 C 
ENDBRANCH   1  15
BRANCH  13  17
HETATM   17  C10 UNL     1      19.759  -4.680  43.201  1.00  0.00     0.061 C 
HETATM   18  C11 UNL     1      19.875  -3.609  44.287  1.00  0.00     0.041 C 
HETATM   19  C12 UNL     1      20.979  -5.590  43.214  1.00  0.00     0.041 C 
BRANCH  17  20
HETATM   20  C13 UNL     1      18.562  -5.523  43.561  1.00  0.00     0.194 C 
BRANCH  20  21
HETATM   21  O2  UNL     1      17.389  -4.981  43.062  1.00  0.00    -0.398 OA
ATOM     22  H2  UNL     1      16.713  -5.641  42.964  1.00  0.00     0.209 HD
ENDBRANCH  20  21
ENDBRANCH  17  20
ENDBRANCH  13  17
BRANCH   9  23
HETATM   23  N4  UNL     1      20.010   1.305  38.142  1.00  0.00    -0.210 N 
HETATM   24  C6  UNL     1      20.579   1.361  36.804  1.00  0.00     0.161 C 
HETATM   25  C7  UNL     1      19.618   1.911  35.798  1.00  0.00     0.139 C 
HETATM   26  N5  UNL     1      18.306   2.162  36.267  1.00  0.00    -0.399 N 
HETATM   27  C8  UNL     1      18.133   2.652  37.564  1.00  0.00     0.075 C 
ATOM     28  H5  UNL     1      17.500   1.987  35.667  1.00  0.00     0.158 HD
HETATM   29  C9  UNL     1      19.244   2.478  38.524  1.00  0.00     0.185 C 
ENDBRANCH   9  23
TORSDOF 5
ENDMDL
