MODEL 1
REMARK VINA RESULT: -8.485465124      0.000      0.000
REMARK  5 active torsions:
REMARK  status: ('A' for Active; 'I' for Inactive)
REMARK    1  A    between atoms: S1_2  and  C2_3 
REMARK    2  A    between atoms: C3_6  and  N2_7 
REMARK    3  A    between atoms: N2_7  and  C4_9 
REMARK       I    between atoms: N3_12  and  C7_13 
REMARK    4  A    between atoms: C9_21  and  N7_22 
REMARK    5  A    between atoms: N7_22  and  C10_24 
ROOT
HETATM    1  C2  UNL     1      19.643   1.450  38.357  1.00  0.00     0.174 A 
HETATM    2  N1  UNL     1      18.651   2.348  38.425  1.00  0.00    -0.169 N 
ATOM      3  H1  UNL     1      18.523   3.002  37.652  1.00  0.00     0.186 HD
HETATM    4  C3  UNL     1      17.804   2.415  39.500  1.00  0.00     0.695 A 
HETATM    5  N6  UNL     1      18.033   1.526  40.478  1.00  0.00    -0.022 N 
ATOM      6  H6  UNL     1      17.426   1.539  41.297  1.00  0.00     0.203 HD
HETATM    7  C9  UNL     1      19.019   0.619  40.431  1.00  0.00     0.695 A 
HETATM    8  N8  UNL     1      19.825   0.586  39.363  1.00  0.00    -0.169 N 
ATOM      9  H8  UNL     1      20.578  -0.099  39.315  1.00  0.00     0.186 HD
ENDROOT
BRANCH   4  10
HETATM   10  N2  UNL     1      16.863   3.294  39.523  1.00  0.00    -0.219 N 
ATOM     11  H2  UNL     1      17.024   4.196  39.971  1.00  0.00     0.178 HD
BRANCH  10  12
HETATM   12  C4  UNL     1      15.607   3.018  38.932  1.00  0.00     0.119 C 
HETATM   13  C5  UNL     1      15.151   4.205  38.071  1.00  0.00     0.047 C 
HETATM   14  C6  UNL     1      13.722   3.786  37.802  1.00  0.00     0.127 C 
HETATM   15  N3  UNL     1      13.308   3.326  39.121  1.00  0.00    -0.354 N 
HETATM   16  C7  UNL     1      11.927   3.231  39.483  1.00  0.00     0.184 C 
HETATM   17  C8  UNL     1      14.466   3.005  39.936  1.00  0.00     0.151 C 
HETATM   18  N4  UNL     1      11.529   3.589  40.672  1.00  0.00    -0.374 N 
HETATM   19  N5  UNL     1      11.011   2.744  38.527  1.00  0.00    -0.064 NA
ATOM     20  H42 UNL     1      12.191   3.941  41.363  1.00  0.00     0.158 HD
ATOM     21  H41 UNL     1      10.545   3.521  40.931  1.00  0.00     0.158 HD
ENDBRANCH  10  12
ENDBRANCH   4  10
BRANCH   1  22
HETATM   22  S1  UNL     1      20.740   1.383  36.939  1.00  0.00    -0.097 SA
HETATM   23  C1  UNL     1      19.725   1.145  35.468  1.00  0.00     0.099 C 
ENDBRANCH   1  22
BRANCH   7  24
HETATM   24  N7  UNL     1      19.233  -0.234  41.374  1.00  0.00    -0.222 N 
ATOM     25  H7  UNL     1      20.127  -0.199  41.866  1.00  0.00     0.178 HD
BRANCH  24  26
HETATM   26  C10 UNL     1      18.271  -1.238  41.769  1.00  0.00     0.091 C 
HETATM   27  C11 UNL     1      18.803  -2.647  41.634  1.00  0.00     0.032 C 
HETATM   28  C12 UNL     1      17.916  -0.959  43.215  1.00  0.00     0.032 C 
ENDBRANCH  24  26
ENDBRANCH   7  24
TORSDOF 5
ENDMDL
MODEL 2
REMARK VINA RESULT: -8.181097363      1.582      3.351
REMARK  5 active torsions:
REMARK  status: ('A' for Active; 'I' for Inactive)
REMARK    1  A    between atoms: S1_2  and  C2_3 
REMARK    2  A    between atoms: C3_6  and  N2_7 
REMARK    3  A    between atoms: N2_7  and  C4_9 
REMARK       I    between atoms: N3_12  and  C7_13 
REMARK    4  A    between atoms: C9_21  and  N7_22 
REMARK    5  A    between atoms: N7_22  and  C10_24 
ROOT
HETATM    1  C2  UNL     1      18.588   0.584  40.785  1.00  0.00     0.174 A 
HETATM    2  N1  UNL     1      17.626   1.502  40.621  1.00  0.00    -0.169 N 
ATOM      3  H1  UNL     1      16.796   1.459  41.213  1.00  0.00     0.186 HD
HETATM    4  C3  UNL     1      17.722   2.495  39.683  1.00  0.00     0.695 A 
HETATM    5  N6  UNL     1      18.840   2.490  38.941  1.00  0.00    -0.022 N 
ATOM      6  H6  UNL     1      18.953   3.212  38.230  1.00  0.00     0.203 HD
HETATM    7  C9  UNL     1      19.815   1.582  39.087  1.00  0.00     0.695 A 
HETATM    8  N8  UNL     1      19.683   0.627  40.016  1.00  0.00    -0.169 N 
ATOM      9  H8  UNL     1      20.418  -0.069  40.138  1.00  0.00     0.186 HD
ENDROOT
BRANCH   4  10
HETATM   10  N2  UNL     1      16.773   3.357  39.560  1.00  0.00    -0.219 N 
ATOM     11  H2  UNL     1      16.897   4.302  39.925  1.00  0.00     0.178 HD
BRANCH  10  12
HETATM   12  C4  UNL     1      15.560   3.005  38.923  1.00  0.00     0.119 C 
HETATM   13  C5  UNL     1      15.141   4.100  37.930  1.00  0.00     0.047 C 
HETATM   14  C6  UNL     1      13.737   3.631  37.616  1.00  0.00     0.127 C 
HETATM   15  N3  UNL     1      13.249   3.284  38.944  1.00  0.00    -0.354 N 
HETATM   16  C7  UNL     1      11.849   3.196  39.231  1.00  0.00     0.184 C 
HETATM   17  C8  UNL     1      14.359   3.061  39.853  1.00  0.00     0.151 C 
HETATM   18  N4  UNL     1      11.375   3.652  40.356  1.00  0.00    -0.374 N 
HETATM   19  N5  UNL     1      11.001   2.606  38.271  1.00  0.00    -0.064 NA
ATOM     20  H42 UNL     1      11.988   4.078  41.051  1.00  0.00     0.158 HD
ATOM     21  H41 UNL     1      10.377   3.589  40.561  1.00  0.00     0.158 HD
ENDBRANCH  10  12
ENDBRANCH   4  10
BRANCH   1  22
HETATM   22  S1  UNL     1      18.439  -0.708  42.020  1.00  0.00    -0.097 SA
HETATM   23  C1  UNL     1      18.409  -2.293  41.160  1.00  0.00     0.099 C 
ENDBRANCH   1  22
BRANCH   7  24
HETATM   24  N7  UNL     1      20.887   1.582  38.371  1.00  0.00    -0.222 N 
ATOM     25  H7  UNL     1      21.613   2.266  38.585  1.00  0.00     0.178 HD
BRANCH  24  26
HETATM   26  C10 UNL     1      21.112   0.660  37.281  1.00  0.00     0.091 C 
HETATM   27  C11 UNL     1      20.633  -0.741  37.589  1.00  0.00     0.032 C 
HETATM   28  C12 UNL     1      20.365   1.207  36.083  1.00  0.00     0.032 C 
ENDBRANCH  24  26
ENDBRANCH   7  24
TORSDOF 5
ENDMDL
MODEL 3
REMARK VINA RESULT: -7.916000916      1.755      3.463
REMARK  5 active torsions:
REMARK  status: ('A' for Active; 'I' for Inactive)
REMARK    1  A    between atoms: S1_2  and  C2_3 
REMARK    2  A    between atoms: C3_6  and  N2_7 
REMARK    3  A    between atoms: N2_7  and  C4_9 
REMARK       I    between atoms: N3_12  and  C7_13 
REMARK    4  A    between atoms: C9_21  and  N7_22 
REMARK    5  A    between atoms: N7_22  and  C10_24 
ROOT
HETATM    1  C2  UNL     1      18.782   0.939  40.206  1.00  0.00     0.174 A 
HETATM    2  N1  UNL     1      17.674   1.684  40.327  1.00  0.00    -0.169 N 
ATOM      3  H1  UNL     1      16.993   1.442  41.046  1.00  0.00     0.186 HD
HETATM    4  C3  UNL     1      17.429   2.760  39.515  1.00  0.00     0.695 A 
HETATM    5  N6  UNL     1      18.369   3.019  38.592  1.00  0.00    -0.022 N 
ATOM      6  H6  UNL     1      18.228   3.811  37.966  1.00  0.00     0.203 HD
HETATM    7  C9  UNL     1      19.484   2.288  38.453  1.00  0.00     0.695 A 
HETATM    8  N8  UNL     1      19.685   1.245  39.267  1.00  0.00    -0.169 N 
ATOM      9  H8  UNL     1      20.530   0.681  39.171  1.00  0.00     0.186 HD
ENDROOT
BRANCH   4  10
HETATM   10  N2  UNL     1      16.352   3.448  39.667  1.00  0.00    -0.219 N 
ATOM     11  H2  UNL     1      16.397   4.368  40.105  1.00  0.00     0.178 HD
BRANCH  10  12
HETATM   12  C4  UNL     1      15.106   2.939  39.231  1.00  0.00     0.119 C 
HETATM   13  C5  UNL     1      14.532   3.819  38.111  1.00  0.00     0.047 C 
HETATM   14  C6  UNL     1      13.134   3.246  38.031  1.00  0.00     0.127 C 
HETATM   15  N3  UNL     1      12.796   3.125  39.443  1.00  0.00    -0.354 N 
HETATM   16  C7  UNL     1      11.437   3.035  39.884  1.00  0.00     0.184 C 
HETATM   17  C8  UNL     1      13.998   3.114  40.257  1.00  0.00     0.151 C 
HETATM   18  N4  UNL     1      11.046   3.667  40.955  1.00  0.00    -0.374 N 
HETATM   19  N5  UNL     1      10.537   2.248  39.136  1.00  0.00    -0.064 NA
ATOM     20  H42 UNL     1      11.697   4.236  41.496  1.00  0.00     0.158 HD
ATOM     21  H41 UNL     1      10.078   3.602  41.270  1.00  0.00     0.158 HD
ENDBRANCH  10  12
ENDBRANCH   4  10
BRANCH   1  22
HETATM   22  S1  UNL     1      19.079  -0.465  41.281  1.00  0.00    -0.097 SA
HETATM   23  C1  UNL     1      20.637  -1.223  40.780  1.00  0.00     0.099 C 
ENDBRANCH   1  22
BRANCH   7  24
HETATM   24  N7  UNL     1      20.383   2.542  37.565  1.00  0.00    -0.222 N 
ATOM     25  H7  UNL     1      20.836   3.456  37.581  1.00  0.00     0.178 HD
BRANCH  24  26
HETATM   26  C10 UNL     1      20.781   1.596  36.547  1.00  0.00     0.091 C 
HETATM   27  C11 UNL     1      21.284   0.291  37.123  1.00  0.00     0.032 C 
HETATM   28  C12 UNL     1      19.562   1.341  35.684  1.00  0.00     0.032 C 
ENDBRANCH  24  26
ENDBRANCH   7  24
TORSDOF 5
ENDMDL
MODEL 4
REMARK VINA RESULT: -7.795855484      0.766      1.116
REMARK  5 active torsions:
REMARK  status: ('A' for Active; 'I' for Inactive)
REMARK    1  A    between atoms: S1_2  and  C2_3 
REMARK    2  A    between atoms: C3_6  and  N2_7 
REMARK    3  A    between atoms: N2_7  and  C4_9 
REMARK       I    between atoms: N3_12  and  C7_13 
REMARK    4  A    between atoms: C9_21  and  N7_22 
REMARK    5  A    between atoms: N7_22  and  C10_24 
ROOT
HETATM    1  C2  UNL     1      19.605   1.543  37.852  1.00  0.00     0.174 A 
HETATM    2  N1  UNL     1      18.568   2.339  38.148  1.00  0.00    -0.169 N 
ATOM      3  H1  UNL     1      18.200   2.959  37.427  1.00  0.00     0.186 HD
HETATM    4  C3  UNL     1      17.987   2.345  39.389  1.00  0.00     0.695 A 
HETATM    5  N6  UNL     1      18.523   1.504  40.286  1.00  0.00    -0.022 N 
ATOM      6  H6  UNL     1      18.121   1.475  41.223  1.00  0.00     0.203 HD
HETATM    7  C9  UNL     1      19.560   0.699  40.013  1.00  0.00     0.695 A 
HETATM    8  N8  UNL     1      20.098   0.724  38.788  1.00  0.00    -0.169 N 
ATOM      9  H8  UNL     1      20.887   0.116  38.567  1.00  0.00     0.186 HD
ENDROOT
BRANCH   4  10
HETATM   10  N2  UNL     1      16.992   3.125  39.629  1.00  0.00    -0.219 N 
ATOM     11  H2  UNL     1      17.097   3.889  40.298  1.00  0.00     0.178 HD
BRANCH  10  12
HETATM   12  C4  UNL     1      15.752   2.933  38.974  1.00  0.00     0.119 C 
HETATM   13  C5  UNL     1      15.376   4.184  38.166  1.00  0.00     0.047 C 
HETATM   14  C6  UNL     1      13.945   3.837  37.817  1.00  0.00     0.127 C 
HETATM   15  N3  UNL     1      13.460   3.318  39.089  1.00  0.00    -0.354 N 
HETATM   16  C7  UNL     1      12.062   3.257  39.391  1.00  0.00     0.184 C 
HETATM   17  C8  UNL     1      14.570   2.907  39.929  1.00  0.00     0.151 C 
HETATM   18  N4  UNL     1      11.628   3.561  40.582  1.00  0.00    -0.374 N 
HETATM   19  N5  UNL     1      11.170   2.861  38.373  1.00  0.00    -0.064 NA
ATOM     20  H42 UNL     1      12.273   3.847  41.319  1.00  0.00     0.158 HD
ATOM     21  H41 UNL     1      10.632   3.517  40.797  1.00  0.00     0.158 HD
ENDBRANCH  10  12
ENDBRANCH   4  10
BRANCH   1  22
HETATM   22  S1  UNL     1      20.348   1.555  36.220  1.00  0.00    -0.097 SA
HETATM   23  C1  UNL     1      19.157   0.848  35.066  1.00  0.00     0.099 C 
ENDBRANCH   1  22
BRANCH   7  24
HETATM   24  N7  UNL     1      20.070  -0.107  40.880  1.00  0.00    -0.222 N 
ATOM     25  H7  UNL     1      20.792   0.248  41.507  1.00  0.00     0.178 HD
BRANCH  24  26
HETATM   26  C10 UNL     1      19.670  -1.491  41.007  1.00  0.00     0.091 C 
HETATM   27  C11 UNL     1      18.218  -1.648  41.400  1.00  0.00     0.032 C 
HETATM   28  C12 UNL     1      19.913  -2.142  39.662  1.00  0.00     0.032 C 
ENDBRANCH  24  26
ENDBRANCH   7  24
TORSDOF 5
ENDMDL
MODEL 5
REMARK VINA RESULT: -7.408335258      1.553      2.133
REMARK  5 active torsions:
REMARK  status: ('A' for Active; 'I' for Inactive)
REMARK    1  A    between atoms: S1_2  and  C2_3 
REMARK    2  A    between atoms: C3_6  and  N2_7 
REMARK    3  A    between atoms: N2_7  and  C4_9 
REMARK       I    between atoms: N3_12  and  C7_13 
REMARK    4  A    between atoms: C9_21  and  N7_22 
REMARK    5  A    between atoms: N7_22  and  C10_24 
ROOT
HETATM    1  C2  UNL     1      18.171   2.440  37.466  1.00  0.00     0.174 A 
HETATM    2  N1  UNL     1      17.254   3.255  38.005  1.00  0.00    -0.169 N 
ATOM      3  H1  UNL     1      16.645   3.791  37.387  1.00  0.00     0.186 HD
HETATM    4  C3  UNL     1      17.110   3.390  39.361  1.00  0.00     0.695 A 
HETATM    5  N6  UNL     1      17.945   2.654  40.111  1.00  0.00    -0.022 N 
ATOM      6  H6  UNL     1      17.872   2.723  41.126  1.00  0.00     0.203 HD
HETATM    7  C9  UNL     1      18.869   1.833  39.594  1.00  0.00     0.695 A 
HETATM    8  N8  UNL     1      18.978   1.729  38.264  1.00  0.00    -0.169 N 
ATOM      9  H8  UNL     1      19.676   1.107  37.857  1.00  0.00     0.186 HD
ENDROOT
BRANCH   4  10
HETATM   10  N2  UNL     1      16.215   4.184  39.837  1.00  0.00    -0.219 N 
ATOM     11  H2  UNL     1      16.498   4.984  40.403  1.00  0.00     0.178 HD
BRANCH  10  12
HETATM   12  C4  UNL     1      14.843   3.956  39.580  1.00  0.00     0.119 C 
HETATM   13  C5  UNL     1      14.382   2.657  40.258  1.00  0.00     0.047 C 
HETATM   14  C6  UNL     1      13.019   2.509  39.617  1.00  0.00     0.127 C 
HETATM   15  N3  UNL     1      13.323   2.826  38.228  1.00  0.00    -0.354 N 
HETATM   16  C7  UNL     1      12.464   2.414  37.158  1.00  0.00     0.184 C 
HETATM   17  C8  UNL     1      14.561   3.578  38.135  1.00  0.00     0.151 C 
HETATM   18  N4  UNL     1      12.966   1.974  36.039  1.00  0.00    -0.374 N 
HETATM   19  N5  UNL     1      11.069   2.497  37.346  1.00  0.00    -0.064 NA
ATOM     20  H42 UNL     1      13.975   1.914  35.904  1.00  0.00     0.158 HD
ATOM     21  H41 UNL     1      12.355   1.681  35.277  1.00  0.00     0.158 HD
ENDBRANCH  10  12
ENDBRANCH   4  10
BRANCH   1  22
HETATM   22  S1  UNL     1      18.341   2.281  35.687  1.00  0.00    -0.097 SA
HETATM   23  C1  UNL     1      19.636   1.069  35.362  1.00  0.00     0.099 C 
ENDBRANCH   1  22
BRANCH   7  24
HETATM   24  N7  UNL     1      19.668   1.128  40.320  1.00  0.00    -0.222 N 
ATOM     25  H7  UNL     1      20.468   1.592  40.751  1.00  0.00     0.178 HD
BRANCH  24  26
HETATM   26  C10 UNL     1      19.487  -0.287  40.554  1.00  0.00     0.091 C 
HETATM   27  C11 UNL     1      20.796  -1.028  40.712  1.00  0.00     0.032 C 
HETATM   28  C12 UNL     1      18.665  -0.419  41.819  1.00  0.00     0.032 C 
ENDBRANCH  24  26
ENDBRANCH   7  24
TORSDOF 5
ENDMDL
