MODEL 1
REMARK VINA RESULT: -6.965822488      0.000      0.000
REMARK  11 active torsions:
REMARK  status: ('A' for Active; 'I' for Inactive)
REMARK    1  A    between atoms: C2_2  and  C3_3 
REMARK    2  A    between atoms: C3_3  and  N1_4 
REMARK    3  A    between atoms: C3_3  and  C12_20 
REMARK       I    between atoms: N1_4  and  C4_6 
REMARK    4  A    between atoms: C4_6  and  C5_8 
REMARK    5  A    between atoms: C5_8  and  N2_9 
REMARK    6  A    between atoms: C5_8  and  C9_15 
REMARK    7  A    between atoms: C9_15  and  O2_18 
REMARK    8  A    between atoms: C12_20  and  C13_22 
REMARK    9  A    between atoms: C13_22  and  O4_23 
REMARK   10  A    between atoms: C13_22  and  N3_25 
REMARK   11  A    between atoms: C19_31  and  O5_32 
ROOT
HETATM    1  C12 UNL     1       6.606  63.197   4.298  1.00  0.00     0.222 C 
HETATM    2  O3  UNL     1       5.999  62.981   5.358  1.00  0.00    -0.286 OA
ENDROOT
BRANCH   1   3
HETATM    3  C3  UNL     1       6.447  64.593   3.764  1.00  0.00     0.162 C 
BRANCH   3   4
HETATM    4  C2  UNL     1       5.244  65.272   4.383  1.00  0.00     0.029 C 
HETATM    5  C1  UNL     1       4.084  65.451   3.468  1.00  0.00     0.007 C 
ENDBRANCH   3   4
BRANCH   3   6
HETATM    6  N1  UNL     1       7.619  65.367   4.213  1.00  0.00    -0.347 N 
HETATM    7  C4  UNL     1       8.612  65.769   3.292  1.00  0.00     0.255 C 
HETATM    8  O1  UNL     1       8.435  65.433   2.088  1.00  0.00    -0.271 OA
ATOM      9  H1  UNL     1       7.714  65.615   5.198  1.00  0.00     0.163 HD
BRANCH   7  10
HETATM   10  C5  UNL     1       9.826  66.547   3.633  1.00  0.00     0.347 C 
BRANCH  10  11
HETATM   11  N2  UNL     1       9.892  67.679   2.721  1.00  0.00     0.117 N 
HETATM   12  C6  UNL     1      10.506  68.871   3.217  1.00  0.00     0.354 C 
HETATM   13  C7  UNL     1       9.291  69.653   2.719  1.00  0.00     0.295 C 
HETATM   14  F1  UNL     1       8.612  70.357   3.694  1.00  0.00    -0.203 F 
HETATM   15  F2  UNL     1       9.514  70.325   1.556  1.00  0.00    -0.203 F 
HETATM   16  C8  UNL     1       8.629  68.312   2.497  1.00  0.00     0.354 C 
ENDBRANCH  10  11
BRANCH  10  17
HETATM   17  C9  UNL     1      11.008  65.621   3.414  1.00  0.00     0.090 C 
HETATM   18  C10 UNL     1      11.588  65.800   2.000  1.00  0.00     0.048 C 
HETATM   19  C11 UNL     1      12.146  65.877   4.361  1.00  0.00     0.048 C 
BRANCH  17  20
HETATM   20  O2  UNL     1      10.625  64.288   3.489  1.00  0.00    -0.388 OA
ATOM     21  H2  UNL     1      10.747  63.942   4.365  1.00  0.00     0.210 HD
ENDBRANCH  17  20
ENDBRANCH  10  17
ENDBRANCH   7  10
ENDBRANCH   3   6
ENDBRANCH   1   3
BRANCH   1  22
HETATM   22  C13 UNL     1       7.405  62.215   3.613  1.00  0.00     0.188 C 
BRANCH  22  23
HETATM   23  O4  UNL     1       8.678  62.234   3.996  1.00  0.00    -0.343 OA
ATOM     24  H4  UNL     1       8.843  61.673   4.745  1.00  0.00     0.219 HD
ENDBRANCH  22  23
BRANCH  22  25
HETATM   25  N3  UNL     1       7.147  61.266   2.651  1.00  0.00    -0.349 N 
HETATM   26  C14 UNL     1       7.607  61.647   1.320  1.00  0.00     0.134 C 
HETATM   27  C15 UNL     1       6.553  61.864   0.328  1.00  0.00     0.044 C 
HETATM   28  C16 UNL     1       6.533  63.339  -0.034  1.00  0.00     0.009 C 
HETATM   29  C19 UNL     1       5.174  61.473   0.539  1.00  0.00     0.129 C 
HETATM   30  C17 UNL     1       5.145  63.826   0.305  1.00  0.00     0.004 C 
HETATM   31  C18 UNL     1       4.298  62.632  -0.010  1.00  0.00     0.044 C 
HETATM   32  C20 UNL     1       4.598  61.126   1.841  1.00  0.00     0.280 C 
HETATM   33  F3  UNL     1       4.405  62.201   2.669  1.00  0.00    -0.202 F 
HETATM   34  F4  UNL     1       3.243  60.757   1.525  1.00  0.00    -0.202 F 
HETATM   35  C21 UNL     1       5.137  59.890   2.528  1.00  0.00     0.091 A 
HETATM   36  C22 UNL     1       6.156  59.082   1.832  1.00  0.00     0.044 A 
HETATM   37  C23 UNL     1       6.501  60.009   2.995  1.00  0.00     0.041 A 
HETATM   38  C24 UNL     1       7.048  59.179   4.133  1.00  0.00     0.039 C 
BRANCH  29  39
HETATM   39  O5  UNL     1       4.830  60.408  -0.353  1.00  0.00    -0.383 OA
ATOM     40  H5  UNL     1       4.180  59.847   0.052  1.00  0.00     0.210 HD
ENDBRANCH  29  39
ENDBRANCH  22  25
ENDBRANCH   1  22
TORSDOF 11
ENDMDL
MODEL 2
REMARK VINA RESULT: -6.833961661      1.943      2.571
REMARK  11 active torsions:
REMARK  status: ('A' for Active; 'I' for Inactive)
REMARK    1  A    between atoms: C2_2  and  C3_3 
REMARK    2  A    between atoms: C3_3  and  N1_4 
REMARK    3  A    between atoms: C3_3  and  C12_20 
REMARK       I    between atoms: N1_4  and  C4_6 
REMARK    4  A    between atoms: C4_6  and  C5_8 
REMARK    5  A    between atoms: C5_8  and  N2_9 
REMARK    6  A    between atoms: C5_8  and  C9_15 
REMARK    7  A    between atoms: C9_15  and  O2_18 
REMARK    8  A    between atoms: C12_20  and  C13_22 
REMARK    9  A    between atoms: C13_22  and  O4_23 
REMARK   10  A    between atoms: C13_22  and  N3_25 
REMARK   11  A    between atoms: C19_31  and  O5_32 
ROOT
HETATM    1  C12 UNL     1       6.823  62.597   4.259  1.00  0.00     0.222 C 
HETATM    2  O3  UNL     1       6.545  62.252   5.418  1.00  0.00    -0.286 OA
ENDROOT
BRANCH   1   3
HETATM    3  C3  UNL     1       6.477  64.023   3.933  1.00  0.00     0.162 C 
BRANCH   3   4
HETATM    4  C2  UNL     1       5.701  64.660   5.067  1.00  0.00     0.029 C 
HETATM    5  C1  UNL     1       4.258  64.895   4.784  1.00  0.00     0.007 C 
ENDBRANCH   3   4
BRANCH   3   6
HETATM    6  N1  UNL     1       7.746  64.771   3.847  1.00  0.00    -0.347 N 
HETATM    7  C4  UNL     1       8.021  65.596   2.734  1.00  0.00     0.255 C 
HETATM    8  O1  UNL     1       7.132  65.653   1.839  1.00  0.00    -0.271 OA
ATOM      9  H1  UNL     1       8.431  64.692   4.599  1.00  0.00     0.163 HD
BRANCH   7  10
HETATM   10  C5  UNL     1       9.258  66.388   2.546  1.00  0.00     0.347 C 
BRANCH  10  11
HETATM   11  N2  UNL     1      10.377  65.458   2.532  1.00  0.00     0.117 N 
HETATM   12  C6  UNL     1      11.632  65.966   2.072  1.00  0.00     0.354 C 
HETATM   13  C7  UNL     1      11.737  64.753   1.150  1.00  0.00     0.295 C 
HETATM   14  F1  UNL     1      11.845  65.050  -0.195  1.00  0.00    -0.203 F 
HETATM   15  F2  UNL     1      12.582  63.790   1.609  1.00  0.00    -0.203 F 
HETATM   16  C8  UNL     1      10.293  64.472   1.500  1.00  0.00     0.354 C 
ENDBRANCH  10  11
BRANCH  10  17
HETATM   17  C9  UNL     1       9.359  67.320   3.739  1.00  0.00     0.090 C 
HETATM   18  C10 UNL     1      10.405  68.420   3.486  1.00  0.00     0.048 C 
HETATM   19  C11 UNL     1       8.074  68.037   4.043  1.00  0.00     0.048 C 
BRANCH  17  20
HETATM   20  O2  UNL     1       9.800  66.646   4.870  1.00  0.00    -0.388 OA
ATOM     21  H2  UNL     1       9.072  66.382   5.421  1.00  0.00     0.210 HD
ENDBRANCH  17  20
ENDBRANCH  10  17
ENDBRANCH   7  10
ENDBRANCH   3   6
ENDBRANCH   1   3
BRANCH   1  22
HETATM   22  C13 UNL     1       7.430  61.728   3.285  1.00  0.00     0.188 C 
BRANCH  22  23
HETATM   23  O4  UNL     1       8.755  61.838   3.256  1.00  0.00    -0.343 OA
ATOM     24  H4  UNL     1       9.175  61.090   2.846  1.00  0.00     0.219 HD
ENDBRANCH  22  23
BRANCH  22  25
HETATM   25  N3  UNL     1       6.947  60.816   2.376  1.00  0.00    -0.349 N 
HETATM   26  C14 UNL     1       7.068  61.253   0.990  1.00  0.00     0.134 C 
HETATM   27  C15 UNL     1       5.804  61.498   0.293  1.00  0.00     0.044 C 
HETATM   28  C16 UNL     1       5.697  62.986   0.007  1.00  0.00     0.009 C 
HETATM   29  C19 UNL     1       4.518  61.085   0.817  1.00  0.00     0.129 C 
HETATM   30  C17 UNL     1       4.432  63.445   0.693  1.00  0.00     0.004 C 
HETATM   31  C18 UNL     1       3.535  62.254   0.545  1.00  0.00     0.044 C 
HETATM   32  C20 UNL     1       4.277  60.681   2.206  1.00  0.00     0.280 C 
HETATM   33  F3  UNL     1       4.291  61.720   3.098  1.00  0.00    -0.202 F 
HETATM   34  F4  UNL     1       2.886  60.310   2.213  1.00  0.00    -0.202 F 
HETATM   35  C21 UNL     1       4.967  59.424   2.690  1.00  0.00     0.091 A 
HETATM   36  C22 UNL     1       5.787  58.655   1.735  1.00  0.00     0.044 A 
HETATM   37  C23 UNL     1       6.404  59.539   2.816  1.00  0.00     0.041 A 
HETATM   38  C24 UNL     1       7.212  58.671   3.752  1.00  0.00     0.039 C 
BRANCH  29  39
HETATM   39  O5  UNL     1       3.969  60.052  -0.007  1.00  0.00    -0.383 OA
ATOM     40  H5  UNL     1       4.429  60.025  -0.838  1.00  0.00     0.210 HD
ENDBRANCH  29  39
ENDBRANCH  22  25
ENDBRANCH   1  22
TORSDOF 11
ENDMDL
MODEL 3
REMARK VINA RESULT: -6.769887872      3.249      5.200
REMARK  11 active torsions:
REMARK  status: ('A' for Active; 'I' for Inactive)
REMARK    1  A    between atoms: C2_2  and  C3_3 
REMARK    2  A    between atoms: C3_3  and  N1_4 
REMARK    3  A    between atoms: C3_3  and  C12_20 
REMARK       I    between atoms: N1_4  and  C4_6 
REMARK    4  A    between atoms: C4_6  and  C5_8 
REMARK    5  A    between atoms: C5_8  and  N2_9 
REMARK    6  A    between atoms: C5_8  and  C9_15 
REMARK    7  A    between atoms: C9_15  and  O2_18 
REMARK    8  A    between atoms: C12_20  and  C13_22 
REMARK    9  A    between atoms: C13_22  and  O4_23 
REMARK   10  A    between atoms: C13_22  and  N3_25 
REMARK   11  A    between atoms: C19_31  and  O5_32 
ROOT
HETATM    1  C12 UNL     1       9.487  64.300  -0.413  1.00  0.00     0.222 C 
HETATM    2  O3  UNL     1       9.013  65.213  -1.106  1.00  0.00    -0.286 OA
ENDROOT
BRANCH   1   3
HETATM    3  C3  UNL     1      10.989  64.230  -0.419  1.00  0.00     0.162 C 
BRANCH   3   4
HETATM    4  C2  UNL     1      11.546  64.735  -1.732  1.00  0.00     0.029 C 
HETATM    5  C1  UNL     1      12.945  65.241  -1.668  1.00  0.00     0.007 C 
ENDBRANCH   3   4
BRANCH   3   6
HETATM    6  N1  UNL     1      11.473  65.170   0.610  1.00  0.00    -0.347 N 
HETATM    7  C4  UNL     1      11.891  64.700   1.875  1.00  0.00     0.255 C 
HETATM    8  O1  UNL     1      11.827  63.453   2.064  1.00  0.00    -0.271 OA
ATOM      9  H1  UNL     1      11.507  66.169   0.405  1.00  0.00     0.163 HD
BRANCH   7  10
HETATM   10  C5  UNL     1      12.393  65.553   2.977  1.00  0.00     0.347 C 
BRANCH  10  11
HETATM   11  N2  UNL     1      13.113  64.693   3.904  1.00  0.00     0.117 N 
HETATM   12  C6  UNL     1      13.724  65.328   5.030  1.00  0.00     0.354 C 
HETATM   13  C7  UNL     1      15.016  64.585   4.695  1.00  0.00     0.295 C 
HETATM   14  F1  UNL     1      16.108  65.395   4.451  1.00  0.00    -0.203 F 
HETATM   15  F2  UNL     1      15.250  63.508   5.496  1.00  0.00    -0.203 F 
HETATM   16  C8  UNL     1      14.355  64.204   3.390  1.00  0.00     0.354 C 
ENDBRANCH  10  11
BRANCH  10  17
HETATM   17  C9  UNL     1      11.173  66.151   3.650  1.00  0.00     0.090 C 
HETATM   18  C10 UNL     1      11.168  67.684   3.512  1.00  0.00     0.048 C 
HETATM   19  C11 UNL     1       9.876  65.681   3.054  1.00  0.00     0.048 C 
BRANCH  17  20
HETATM   20  O2  UNL     1      11.178  65.905   5.017  1.00  0.00    -0.388 OA
ATOM     21  H2  UNL     1      12.063  65.893   5.363  1.00  0.00     0.210 HD
ENDBRANCH  17  20
ENDBRANCH  10  17
ENDBRANCH   7  10
ENDBRANCH   3   6
ENDBRANCH   1   3
BRANCH   1  22
HETATM   22  C13 UNL     1       8.693  63.370   0.347  1.00  0.00     0.188 C 
BRANCH  22  23
HETATM   23  O4  UNL     1       9.434  62.524   1.055  1.00  0.00    -0.343 OA
ATOM     24  H4  UNL     1       8.929  62.051   1.706  1.00  0.00     0.219 HD
ENDBRANCH  22  23
BRANCH  22  25
HETATM   25  N3  UNL     1       7.343  63.160   0.500  1.00  0.00    -0.349 N 
HETATM   26  C14 UNL     1       6.781  63.814   1.676  1.00  0.00     0.134 C 
HETATM   27  C15 UNL     1       6.283  62.916   2.719  1.00  0.00     0.044 C 
HETATM   28  C16 UNL     1       7.173  63.064   3.942  1.00  0.00     0.009 C 
HETATM   29  C19 UNL     1       6.094  61.494   2.517  1.00  0.00     0.129 C 
HETATM   30  C17 UNL     1       7.737  61.689   4.207  1.00  0.00     0.004 C 
HETATM   31  C18 UNL     1       6.605  60.794   3.804  1.00  0.00     0.044 C 
HETATM   32  C20 UNL     1       6.661  60.732   1.400  1.00  0.00     0.280 C 
HETATM   33  F3  UNL     1       8.012  60.524   1.497  1.00  0.00    -0.202 F 
HETATM   34  F4  UNL     1       6.148  59.402   1.605  1.00  0.00    -0.202 F 
HETATM   35  C21 UNL     1       6.174  61.076   0.010  1.00  0.00     0.091 A 
HETATM   36  C22 UNL     1       5.128  62.105  -0.138  1.00  0.00     0.044 A 
HETATM   37  C23 UNL     1       6.594  62.375  -0.470  1.00  0.00     0.041 A 
HETATM   38  C24 UNL     1       6.708  62.702  -1.940  1.00  0.00     0.039 C 
BRANCH  29  39
HETATM   39  O5  UNL     1       4.699  61.181   2.555  1.00  0.00    -0.383 OA
ATOM     40  H5  UNL     1       4.540  60.499   3.197  1.00  0.00     0.210 HD
ENDBRANCH  29  39
ENDBRANCH  22  25
ENDBRANCH   1  22
TORSDOF 11
ENDMDL
MODEL 4
REMARK VINA RESULT: -6.727836493      2.555      4.057
REMARK  11 active torsions:
REMARK  status: ('A' for Active; 'I' for Inactive)
REMARK    1  A    between atoms: C2_2  and  C3_3 
REMARK    2  A    between atoms: C3_3  and  N1_4 
REMARK    3  A    between atoms: C3_3  and  C12_20 
REMARK       I    between atoms: N1_4  and  C4_6 
REMARK    4  A    between atoms: C4_6  and  C5_8 
REMARK    5  A    between atoms: C5_8  and  N2_9 
REMARK    6  A    between atoms: C5_8  and  C9_15 
REMARK    7  A    between atoms: C9_15  and  O2_18 
REMARK    8  A    between atoms: C12_20  and  C13_22 
REMARK    9  A    between atoms: C13_22  and  O4_23 
REMARK   10  A    between atoms: C13_22  and  N3_25 
REMARK   11  A    between atoms: C19_31  and  O5_32 
ROOT
HETATM    1  C12 UNL     1       6.937  65.666   4.151  1.00  0.00     0.222 C 
HETATM    2  O3  UNL     1       6.350  66.120   5.145  1.00  0.00    -0.286 OA
ENDROOT
BRANCH   1   3
HETATM    3  C3  UNL     1       7.825  66.654   3.447  1.00  0.00     0.162 C 
BRANCH   3   4
HETATM    4  C2  UNL     1       8.087  67.861   4.323  1.00  0.00     0.029 C 
HETATM    5  C1  UNL     1       7.503  69.136   3.824  1.00  0.00     0.007 C 
ENDBRANCH   3   4
BRANCH   3   6
HETATM    6  N1  UNL     1       9.136  66.004   3.259  1.00  0.00    -0.347 N 
HETATM    7  C4  UNL     1      10.060  66.508   2.316  1.00  0.00     0.255 C 
HETATM    8  O1  UNL     1       9.701  67.527   1.662  1.00  0.00    -0.271 OA
ATOM      9  H1  UNL     1       9.378  65.184   3.814  1.00  0.00     0.163 HD
BRANCH   7  10
HETATM   10  C5  UNL     1      11.400  65.936   2.047  1.00  0.00     0.347 C 
BRANCH  10  11
HETATM   11  N2  UNL     1      11.206  64.674   1.350  1.00  0.00     0.117 N 
HETATM   12  C6  UNL     1      12.269  64.236   0.501  1.00  0.00     0.354 C 
HETATM   13  C7  UNL     1      11.239  64.007  -0.603  1.00  0.00     0.295 C 
HETATM   14  F1  UNL     1      11.458  64.722  -1.763  1.00  0.00    -0.203 F 
HETATM   15  F2  UNL     1      10.903  62.698  -0.773  1.00  0.00    -0.203 F 
HETATM   16  C8  UNL     1      10.259  64.746   0.280  1.00  0.00     0.354 C 
ENDBRANCH  10  11
BRANCH  10  17
HETATM   17  C9  UNL     1      12.048  65.701   3.398  1.00  0.00     0.090 C 
HETATM   18  C10 UNL     1      13.521  65.290   3.233  1.00  0.00     0.048 C 
HETATM   19  C11 UNL     1      12.058  66.923   4.272  1.00  0.00     0.048 C 
BRANCH  17  20
HETATM   20  O2  UNL     1      11.444  64.646   4.071  1.00  0.00    -0.388 OA
ATOM     21  H2  UNL     1      11.763  64.578   4.963  1.00  0.00     0.210 HD
ENDBRANCH  17  20
ENDBRANCH  10  17
ENDBRANCH   7  10
ENDBRANCH   3   6
ENDBRANCH   1   3
BRANCH   1  22
HETATM   22  C13 UNL     1       6.804  64.310   3.687  1.00  0.00     0.188 C 
BRANCH  22  23
HETATM   23  O4  UNL     1       7.884  63.575   3.935  1.00  0.00    -0.343 OA
ATOM     24  H4  UNL     1       8.165  63.071   3.180  1.00  0.00     0.219 HD
ENDBRANCH  22  23
BRANCH  22  25
HETATM   25  N3  UNL     1       5.813  63.607   3.042  1.00  0.00    -0.349 N 
HETATM   26  C14 UNL     1       5.373  62.420   3.767  1.00  0.00     0.134 C 
HETATM   27  C15 UNL     1       5.671  61.141   3.121  1.00  0.00     0.044 C 
HETATM   28  C16 UNL     1       6.697  60.406   3.966  1.00  0.00     0.009 C 
HETATM   29  C19 UNL     1       6.115  61.032   1.746  1.00  0.00     0.129 C 
HETATM   30  C17 UNL     1       7.884  60.176   3.061  1.00  0.00     0.004 C 
HETATM   31  C18 UNL     1       7.235  59.958   1.728  1.00  0.00     0.044 C 
HETATM   32  C20 UNL     1       6.625  62.150   0.947  1.00  0.00     0.280 C 
HETATM   33  F3  UNL     1       7.882  62.562   1.305  1.00  0.00    -0.202 F 
HETATM   34  F4  UNL     1       6.870  61.559  -0.343  1.00  0.00    -0.202 F 
HETATM   35  C21 UNL     1       5.660  63.272   0.631  1.00  0.00     0.091 A 
HETATM   36  C22 UNL     1       4.263  63.152   1.089  1.00  0.00     0.044 A 
HETATM   37  C23 UNL     1       5.273  64.071   1.773  1.00  0.00     0.041 A 
HETATM   38  C24 UNL     1       4.797  65.499   1.644  1.00  0.00     0.039 C 
BRANCH  29  39
HETATM   39  O5  UNL     1       5.101  60.400   0.959  1.00  0.00    -0.383 OA
ATOM     40  H5  UNL     1       5.386  60.343   0.054  1.00  0.00     0.210 HD
ENDBRANCH  29  39
ENDBRANCH  22  25
ENDBRANCH   1  22
TORSDOF 11
ENDMDL
MODEL 5
REMARK VINA RESULT: -6.653376315      2.461      3.210
REMARK  11 active torsions:
REMARK  status: ('A' for Active; 'I' for Inactive)
REMARK    1  A    between atoms: C2_2  and  C3_3 
REMARK    2  A    between atoms: C3_3  and  N1_4 
REMARK    3  A    between atoms: C3_3  and  C12_20 
REMARK       I    between atoms: N1_4  and  C4_6 
REMARK    4  A    between atoms: C4_6  and  C5_8 
REMARK    5  A    between atoms: C5_8  and  N2_9 
REMARK    6  A    between atoms: C5_8  and  C9_15 
REMARK    7  A    between atoms: C9_15  and  O2_18 
REMARK    8  A    between atoms: C12_20  and  C13_22 
REMARK    9  A    between atoms: C13_22  and  O4_23 
REMARK   10  A    between atoms: C13_22  and  N3_25 
REMARK   11  A    between atoms: C19_31  and  O5_32 
ROOT
HETATM    1  C12 UNL     1       5.549  63.794   3.345  1.00  0.00     0.222 C 
HETATM    2  O3  UNL     1       4.701  63.338   4.127  1.00  0.00    -0.286 OA
ENDROOT
BRANCH   1   3
HETATM    3  C3  UNL     1       6.134  65.115   3.761  1.00  0.00     0.162 C 
BRANCH   3   4
HETATM    4  C2  UNL     1       5.943  65.344   5.245  1.00  0.00     0.029 C 
HETATM    5  C1  UNL     1       5.235  66.605   5.600  1.00  0.00     0.007 C 
ENDBRANCH   3   4
BRANCH   3   6
HETATM    6  N1  UNL     1       7.592  65.031   3.553  1.00  0.00    -0.347 N 
HETATM    7  C4  UNL     1       8.261  65.987   2.756  1.00  0.00     0.255 C 
HETATM    8  O1  UNL     1       7.549  66.896   2.247  1.00  0.00    -0.271 OA
ATOM      9  H1  UNL     1       8.122  64.277   3.989  1.00  0.00     0.163 HD
BRANCH   7  10
HETATM   10  C5  UNL     1       9.716  65.998   2.481  1.00  0.00     0.347 C 
BRANCH  10  11
HETATM   11  N2  UNL     1      10.144  64.616   2.328  1.00  0.00     0.117 N 
HETATM   12  C6  UNL     1      11.407  64.399   1.693  1.00  0.00     0.354 C 
HETATM   13  C7  UNL     1      10.727  63.380   0.781  1.00  0.00     0.295 C 
HETATM   14  F1  UNL     1      10.814  63.657  -0.569  1.00  0.00    -0.203 F 
HETATM   15  F2  UNL     1      10.967  62.086   1.134  1.00  0.00    -0.203 F 
HETATM   16  C8  UNL     1       9.416  63.896   1.329  1.00  0.00     0.354 C 
ENDBRANCH  10  11
BRANCH  10  17
HETATM   17  C9  UNL     1      10.379  66.625   3.693  1.00  0.00     0.090 C 
HETATM   18  C10 UNL     1      11.600  65.800   4.137  1.00  0.00     0.048 C 
HETATM   19  C11 UNL     1      10.893  68.014   3.437  1.00  0.00     0.048 C 
BRANCH  17  20
HETATM   20  O2  UNL     1       9.524  66.635   4.788  1.00  0.00    -0.388 OA
ATOM     21  H2  UNL     1      10.009  66.656   5.605  1.00  0.00     0.210 HD
ENDBRANCH  17  20
ENDBRANCH  10  17
ENDBRANCH   7  10
ENDBRANCH   3   6
ENDBRANCH   1   3
BRANCH   1  22
HETATM   22  C13 UNL     1       5.963  63.135   2.134  1.00  0.00     0.188 C 
BRANCH  22  23
HETATM   23  O4  UNL     1       5.848  63.914   1.062  1.00  0.00    -0.343 OA
ATOM     24  H4  UNL     1       5.573  63.435   0.289  1.00  0.00     0.219 HD
ENDBRANCH  22  23
BRANCH  22  25
HETATM   25  N3  UNL     1       6.447  61.882   1.837  1.00  0.00    -0.349 N 
HETATM   26  C14 UNL     1       6.520  61.609   0.407  1.00  0.00     0.134 C 
HETATM   27  C15 UNL     1       5.620  60.563  -0.082  1.00  0.00     0.044 C 
HETATM   28  C16 UNL     1       4.579  61.209  -0.981  1.00  0.00     0.009 C 
HETATM   29  C19 UNL     1       4.903  59.661   0.796  1.00  0.00     0.129 C 
HETATM   30  C17 UNL     1       3.243  60.889  -0.357  1.00  0.00     0.004 C 
HETATM   31  C18 UNL     1       3.471  59.522   0.212  1.00  0.00     0.044 C 
HETATM   32  C20 UNL     1       4.724  59.871   2.236  1.00  0.00     0.280 C 
HETATM   33  F3  UNL     1       3.830  60.861   2.547  1.00  0.00    -0.202 F 
HETATM   34  F4  UNL     1       4.012  58.694   2.663  1.00  0.00    -0.202 F 
HETATM   35  C21 UNL     1       5.967  59.849   3.098  1.00  0.00     0.091 A 
HETATM   36  C22 UNL     1       7.265  59.565   2.458  1.00  0.00     0.044 A 
HETATM   37  C23 UNL     1       6.859  60.971   2.894  1.00  0.00     0.041 A 
HETATM   38  C24 UNL     1       7.821  61.449   3.956  1.00  0.00     0.039 C 
BRANCH  29  39
HETATM   39  O5  UNL     1       5.406  58.331   0.639  1.00  0.00    -0.383 OA
ATOM     40  H5  UNL     1       4.803  57.711   1.033  1.00  0.00     0.210 HD
ENDBRANCH  29  39
ENDBRANCH  22  25
ENDBRANCH   1  22
TORSDOF 11
ENDMDL
