MODEL 1
REMARK VINA RESULT: -8.074122008      0.000      0.000
REMARK  9 active torsions:
REMARK  status: ('A' for Active; 'I' for Inactive)
REMARK    1  A    between atoms: C2_2  and  C3_3 
REMARK    2  A    between atoms: C3_3  and  C4_4 
REMARK       I    between atoms: N2_11  and  C8_12 
REMARK    3  A    between atoms: C8_12  and  C9_14 
REMARK    4  A    between atoms: C9_14  and  N3_15 
REMARK    5  A    between atoms: C16_23  and  C17_24 
REMARK    6  A    between atoms: C17_24  and  N4_25 
REMARK    7  A    between atoms: C17_24  and  C22_32 
REMARK    8  A    between atoms: N4_25  and  C18_27 
REMARK    9  A    between atoms: C18_27  and  C19_29 
ROOT
HETATM    1  C4  UNL     1       6.613  63.649  -0.077  1.00  0.00     0.278 C 
HETATM    2  N1  UNL     1       7.244  64.241   1.050  1.00  0.00    -0.051 N 
ATOM      3  H11 UNL     1       6.584  64.373   1.816  1.00  0.00     0.279 HD
ATOM      4  H12 UNL     1       7.480  65.217   0.870  1.00  0.00     0.279 HD
HETATM    5  C5  UNL     1       8.427  63.478   1.490  1.00  0.00     0.152 C 
HETATM    6  C6  UNL     1       9.269  63.276   0.250  1.00  0.00     0.061 C 
HETATM    7  C7  UNL     1      10.715  62.925   0.554  1.00  0.00     0.128 C 
HETATM    8  N2  UNL     1      11.274  63.781   1.554  1.00  0.00    -0.350 N 
HETATM    9  C8  UNL     1      12.480  64.462   1.341  1.00  0.00     0.248 C 
HETATM   10  O1  UNL     1      13.145  64.359   0.253  1.00  0.00    -0.271 OA
HETATM   11  C14 UNL     1      10.559  63.927   2.785  1.00  0.00     0.128 C 
HETATM   12  C15 UNL     1       9.170  64.409   2.383  1.00  0.00     0.061 C 
HETATM   13  C16 UNL     1       7.994  62.177   2.018  1.00  0.00     0.152 C 
HETATM   14  N5  UNL     1       7.380  61.471   0.874  1.00  0.00    -0.350 N 
ATOM     15  H5  UNL     1       7.634  60.512   0.635  1.00  0.00     0.163 HD
HETATM   16  C23 UNL     1       6.419  62.199   0.124  1.00  0.00     0.249 C 
HETATM   17  O2  UNL     1       5.409  61.649  -0.373  1.00  0.00    -0.271 OA
ENDROOT
BRANCH  13  18
HETATM   18  C17 UNL     1       6.892  62.211   3.065  1.00  0.00     0.215 C 
BRANCH  18  19
HETATM   19  N4  UNL     1       7.107  63.150   4.129  1.00  0.00    -0.369 N 
ATOM     20  H4  UNL     1       8.020  63.169   4.583  1.00  0.00     0.161 HD
BRANCH  19  21
HETATM   21  C18 UNL     1       6.111  64.052   4.578  1.00  0.00     0.077 C 
HETATM   22  S1  UNL     1       6.290  65.672   4.455  1.00  0.00    -0.065 SA
BRANCH  21  23
HETATM   23  C19 UNL     1       4.859  63.578   5.228  1.00  0.00     0.039 C 
HETATM   24  C20 UNL     1       3.681  63.552   4.289  1.00  0.00     0.017 C 
HETATM   25  C21 UNL     1       4.494  64.441   6.420  1.00  0.00     0.017 C 
ENDBRANCH  21  23
ENDBRANCH  19  21
ENDBRANCH  18  19
BRANCH  18  26
HETATM   26  C22 UNL     1       6.848  60.851   3.749  1.00  0.00     0.409 C 
HETATM   27  F2  UNL     1       5.754  60.108   3.481  1.00  0.00    -0.169 F 
HETATM   28  F3  UNL     1       6.962  61.020   5.096  1.00  0.00    -0.169 F 
HETATM   29  F4  UNL     1       8.025  60.178   3.361  1.00  0.00    -0.169 F 
ENDBRANCH  18  26
ENDBRANCH  13  18
BRANCH   1  30
HETATM   30  C3  UNL     1       5.351  64.367  -0.431  1.00  0.00     0.042 C 
BRANCH  30  31
HETATM   31  C2  UNL     1       4.589  64.926   0.725  1.00  0.00    -0.002 C 
HETATM   32  C1  UNL     1       3.188  64.320   0.668  1.00  0.00     0.005 C 
ENDBRANCH  30  31
ENDBRANCH   1  30
BRANCH   9  33
HETATM   33  C9  UNL     1      13.082  65.364   2.376  1.00  0.00     0.374 C 
BRANCH  33  34
HETATM   34  N3  UNL     1      13.493  64.652   3.551  1.00  0.00     0.100 N 
HETATM   35  C10 UNL     1      14.934  64.615   3.695  1.00  0.00     0.276 C 
HETATM   36  C11 UNL     1      15.277  64.955   5.107  1.00  0.00     0.069 C 
HETATM   37  C12 UNL     1      13.956  65.134   5.821  1.00  0.00     0.200 C 
HETATM   38  F1  UNL     1      14.048  66.282   6.618  1.00  0.00    -0.248 F 
HETATM   39  C13 UNL     1      12.995  65.379   4.704  1.00  0.00     0.310 C 
ENDBRANCH  33  34
ENDBRANCH   9  33
TORSDOF 9
ENDMDL
MODEL 2
REMARK VINA RESULT: -8.035940912      2.679      4.034
REMARK  9 active torsions:
REMARK  status: ('A' for Active; 'I' for Inactive)
REMARK    1  A    between atoms: C2_2  and  C3_3 
REMARK    2  A    between atoms: C3_3  and  C4_4 
REMARK       I    between atoms: N2_11  and  C8_12 
REMARK    3  A    between atoms: C8_12  and  C9_14 
REMARK    4  A    between atoms: C9_14  and  N3_15 
REMARK    5  A    between atoms: C16_23  and  C17_24 
REMARK    6  A    between atoms: C17_24  and  N4_25 
REMARK    7  A    between atoms: C17_24  and  C22_32 
REMARK    8  A    between atoms: N4_25  and  C18_27 
REMARK    9  A    between atoms: C18_27  and  C19_29 
ROOT
HETATM    1  C4  UNL     1       6.111  65.087   3.505  1.00  0.00     0.278 C 
HETATM    2  N1  UNL     1       7.173  64.143   3.491  1.00  0.00    -0.051 N 
ATOM      3  H11 UNL     1       6.832  63.206   3.274  1.00  0.00     0.279 HD
ATOM      4  H12 UNL     1       7.527  63.972   4.432  1.00  0.00     0.279 HD
HETATM    5  C5  UNL     1       8.259  64.540   2.576  1.00  0.00     0.152 C 
HETATM    6  C6  UNL     1       8.602  65.967   2.944  1.00  0.00     0.061 C 
HETATM    7  C7  UNL     1       9.971  66.404   2.450  1.00  0.00     0.128 C 
HETATM    8  N2  UNL     1      10.978  65.427   2.730  1.00  0.00    -0.350 N 
HETATM    9  C8  UNL     1      12.162  65.770   3.396  1.00  0.00     0.248 C 
HETATM   10  O1  UNL     1      12.410  66.962   3.788  1.00  0.00    -0.271 OA
HETATM   11  C14 UNL     1      10.737  64.079   2.312  1.00  0.00     0.128 C 
HETATM   12  C15 UNL     1       9.416  63.690   2.966  1.00  0.00     0.061 C 
HETATM   13  C16 UNL     1       7.768  64.487   1.192  1.00  0.00     0.152 C 
HETATM   14  N5  UNL     1       6.695  65.499   1.113  1.00  0.00    -0.350 N 
ATOM     15  H5  UNL     1       6.664  66.192   0.365  1.00  0.00     0.163 HD
HETATM   16  C23 UNL     1       5.708  65.454   2.133  1.00  0.00     0.249 C 
HETATM   17  O2  UNL     1       4.505  65.719   1.905  1.00  0.00    -0.271 OA
ENDROOT
BRANCH  13  18
HETATM   18  C17 UNL     1       7.089  63.194   0.772  1.00  0.00     0.215 C 
BRANCH  18  19
HETATM   19  N4  UNL     1       7.801  62.000   1.126  1.00  0.00    -0.369 N 
ATOM     20  H4  UNL     1       8.788  61.931   0.876  1.00  0.00     0.161 HD
BRANCH  19  21
HETATM   21  C18 UNL     1       7.200  60.912   1.807  1.00  0.00     0.077 C 
HETATM   22  S1  UNL     1       5.815  60.221   1.282  1.00  0.00    -0.065 SA
BRANCH  21  23
HETATM   23  C19 UNL     1       7.771  60.362   3.065  1.00  0.00     0.039 C 
HETATM   24  C20 UNL     1       7.735  58.857   3.120  1.00  0.00     0.017 C 
HETATM   25  C21 UNL     1       7.044  60.897   4.284  1.00  0.00     0.017 C 
ENDBRANCH  21  23
ENDBRANCH  19  21
ENDBRANCH  18  19
BRANCH  18  26
HETATM   26  C22 UNL     1       7.020  63.168  -0.750  1.00  0.00     0.409 C 
HETATM   27  F2  UNL     1       5.983  63.842  -1.291  1.00  0.00    -0.169 F 
HETATM   28  F3  UNL     1       6.994  61.875  -1.179  1.00  0.00    -0.169 F 
HETATM   29  F4  UNL     1       8.251  63.684  -1.207  1.00  0.00    -0.169 F 
ENDBRANCH  18  26
ENDBRANCH  13  18
BRANCH   1  30
HETATM   30  C3  UNL     1       4.970  64.607   4.343  1.00  0.00     0.042 C 
BRANCH  30  31
HETATM   31  C2  UNL     1       5.354  63.914   5.609  1.00  0.00    -0.002 C 
HETATM   32  C1  UNL     1       4.147  63.987   6.539  1.00  0.00     0.005 C 
ENDBRANCH  30  31
ENDBRANCH   1  30
BRANCH   9  33
HETATM   33  C9  UNL     1      13.228  64.761   3.699  1.00  0.00     0.374 C 
BRANCH  33  34
HETATM   34  N3  UNL     1      14.144  65.217   4.705  1.00  0.00     0.100 N 
HETATM   35  C10 UNL     1      13.501  65.406   5.988  1.00  0.00     0.276 C 
HETATM   36  C11 UNL     1      14.356  64.785   7.042  1.00  0.00     0.069 C 
HETATM   37  C12 UNL     1      15.584  64.267   6.324  1.00  0.00     0.200 C 
HETATM   38  F1  UNL     1      15.860  62.983   6.812  1.00  0.00    -0.248 F 
HETATM   39  C13 UNL     1      15.135  64.174   4.903  1.00  0.00     0.310 C 
ENDBRANCH  33  34
ENDBRANCH   9  33
TORSDOF 9
ENDMDL
MODEL 3
REMARK VINA RESULT: -8.001138703      2.458      3.980
REMARK  9 active torsions:
REMARK  status: ('A' for Active; 'I' for Inactive)
REMARK    1  A    between atoms: C2_2  and  C3_3 
REMARK    2  A    between atoms: C3_3  and  C4_4 
REMARK       I    between atoms: N2_11  and  C8_12 
REMARK    3  A    between atoms: C8_12  and  C9_14 
REMARK    4  A    between atoms: C9_14  and  N3_15 
REMARK    5  A    between atoms: C16_23  and  C17_24 
REMARK    6  A    between atoms: C17_24  and  N4_25 
REMARK    7  A    between atoms: C17_24  and  C22_32 
REMARK    8  A    between atoms: N4_25  and  C18_27 
REMARK    9  A    between atoms: C18_27  and  C19_29 
ROOT
HETATM    1  C4  UNL     1       5.897  64.577   4.381  1.00  0.00     0.278 C 
HETATM    2  N1  UNL     1       7.039  63.765   4.149  1.00  0.00    -0.051 N 
ATOM      3  H11 UNL     1       6.774  62.796   3.973  1.00  0.00     0.279 HD
ATOM      4  H12 UNL     1       7.578  63.632   5.005  1.00  0.00     0.279 HD
HETATM    5  C5  UNL     1       7.885  64.291   3.062  1.00  0.00     0.152 C 
HETATM    6  C6  UNL     1       8.125  65.747   3.398  1.00  0.00     0.061 C 
HETATM    7  C7  UNL     1       9.319  66.343   2.674  1.00  0.00     0.128 C 
HETATM    8  N2  UNL     1      10.466  65.491   2.740  1.00  0.00    -0.350 N 
HETATM    9  C8  UNL     1      11.705  65.968   3.188  1.00  0.00     0.248 C 
HETATM   10  O1  UNL     1      11.883  67.179   3.559  1.00  0.00    -0.271 OA
HETATM   11  C14 UNL     1      10.308  64.126   2.339  1.00  0.00     0.128 C 
HETATM   12  C15 UNL     1       9.185  63.581   3.212  1.00  0.00     0.061 C 
HETATM   13  C16 UNL     1       7.158  64.187   1.789  1.00  0.00     0.152 C 
HETATM   14  N5  UNL     1       5.979  65.066   1.934  1.00  0.00    -0.350 N 
ATOM     15  H5  UNL     1       5.732  65.754   1.223  1.00  0.00     0.163 HD
HETATM   16  C23 UNL     1       5.209  64.901   3.115  1.00  0.00     0.249 C 
HETATM   17  O2  UNL     1       3.962  65.023   3.118  1.00  0.00    -0.271 OA
ENDROOT
BRANCH  13  18
HETATM   18  C17 UNL     1       6.565  62.824   1.467  1.00  0.00     0.215 C 
BRANCH  18  19
HETATM   19  N4  UNL     1       6.684  61.855   2.518  1.00  0.00    -0.369 N 
ATOM     20  H4  UNL     1       7.430  61.972   3.204  1.00  0.00     0.161 HD
BRANCH  19  21
HETATM   21  C18 UNL     1       5.815  60.744   2.649  1.00  0.00     0.077 C 
HETATM   22  S1  UNL     1       4.257  60.800   2.159  1.00  0.00    -0.065 SA
BRANCH  21  23
HETATM   23  C19 UNL     1       6.258  59.472   3.280  1.00  0.00     0.039 C 
HETATM   24  C20 UNL     1       7.728  59.200   3.090  1.00  0.00     0.017 C 
HETATM   25  C21 UNL     1       5.485  58.286   2.736  1.00  0.00     0.017 C 
ENDBRANCH  21  23
ENDBRANCH  19  21
ENDBRANCH  18  19
BRANCH  18  26
HETATM   26  C22 UNL     1       7.348  62.233   0.301  1.00  0.00     0.409 C 
HETATM   27  F2  UNL     1       6.629  61.464  -0.544  1.00  0.00    -0.169 F 
HETATM   28  F3  UNL     1       8.400  61.513   0.784  1.00  0.00    -0.169 F 
HETATM   29  F4  UNL     1       7.928  63.325  -0.377  1.00  0.00    -0.169 F 
ENDBRANCH  18  26
ENDBRANCH  13  18
BRANCH   1  30
HETATM   30  C3  UNL     1       4.993  63.963   5.400  1.00  0.00     0.042 C 
BRANCH  30  31
HETATM   31  C2  UNL     1       4.503  64.892   6.462  1.00  0.00    -0.002 C 
HETATM   32  C1  UNL     1       3.342  64.192   7.164  1.00  0.00     0.005 C 
ENDBRANCH  30  31
ENDBRANCH   1  30
BRANCH   9  33
HETATM   33  C9  UNL     1      12.918  65.090   3.265  1.00  0.00     0.374 C 
BRANCH  33  34
HETATM   34  N3  UNL     1      13.850  65.529   4.264  1.00  0.00     0.100 N 
HETATM   35  C10 UNL     1      13.266  65.548   5.589  1.00  0.00     0.276 C 
HETATM   36  C11 UNL     1      14.224  64.909   6.538  1.00  0.00     0.069 C 
HETATM   37  C12 UNL     1      15.447  64.562   5.717  1.00  0.00     0.200 C 
HETATM   38  F1  UNL     1      15.850  63.266   6.068  1.00  0.00    -0.248 F 
HETATM   39  C13 UNL     1      14.928  64.559   4.316  1.00  0.00     0.310 C 
ENDBRANCH  33  34
ENDBRANCH   9  33
TORSDOF 9
ENDMDL
MODEL 4
REMARK VINA RESULT: -7.849287934      0.742      1.044
REMARK  9 active torsions:
REMARK  status: ('A' for Active; 'I' for Inactive)
REMARK    1  A    between atoms: C2_2  and  C3_3 
REMARK    2  A    between atoms: C3_3  and  C4_4 
REMARK       I    between atoms: N2_11  and  C8_12 
REMARK    3  A    between atoms: C8_12  and  C9_14 
REMARK    4  A    between atoms: C9_14  and  N3_15 
REMARK    5  A    between atoms: C16_23  and  C17_24 
REMARK    6  A    between atoms: C17_24  and  N4_25 
REMARK    7  A    between atoms: C17_24  and  C22_32 
REMARK    8  A    between atoms: N4_25  and  C18_27 
REMARK    9  A    between atoms: C18_27  and  C19_29 
ROOT
HETATM    1  C4  UNL     1       6.639  63.451  -0.156  1.00  0.00     0.278 C 
HETATM    2  N1  UNL     1       7.230  64.076   0.975  1.00  0.00    -0.051 N 
ATOM      3  H11 UNL     1       6.549  64.208   1.722  1.00  0.00     0.279 HD
ATOM      4  H12 UNL     1       7.451  65.053   0.783  1.00  0.00     0.279 HD
HETATM    5  C5  UNL     1       8.417  63.344   1.457  1.00  0.00     0.152 C 
HETATM    6  C6  UNL     1       9.292  63.137   0.240  1.00  0.00     0.061 C 
HETATM    7  C7  UNL     1      10.737  62.821   0.585  1.00  0.00     0.128 C 
HETATM    8  N2  UNL     1      11.255  63.705   1.583  1.00  0.00    -0.350 N 
HETATM    9  C8  UNL     1      12.452  64.406   1.386  1.00  0.00     0.248 C 
HETATM   10  O1  UNL     1      13.145  64.298   0.317  1.00  0.00    -0.271 OA
HETATM   11  C14 UNL     1      10.507  63.858   2.794  1.00  0.00     0.128 C 
HETATM   12  C15 UNL     1       9.119  64.305   2.350  1.00  0.00     0.061 C 
HETATM   13  C16 UNL     1       7.996  62.044   1.996  1.00  0.00     0.152 C 
HETATM   14  N5  UNL     1       7.425  61.306   0.851  1.00  0.00    -0.350 N 
ATOM     15  H5  UNL     1       7.703  60.348   0.636  1.00  0.00     0.163 HD
HETATM   16  C23 UNL     1       6.467  62.001   0.066  1.00  0.00     0.249 C 
HETATM   17  O2  UNL     1       5.481  61.422  -0.446  1.00  0.00    -0.271 OA
ENDROOT
BRANCH  13  18
HETATM   18  C17 UNL     1       6.870  62.074   3.016  1.00  0.00     0.215 C 
BRANCH  18  19
HETATM   19  N4  UNL     1       7.015  63.068   4.041  1.00  0.00    -0.369 N 
ATOM     20  H4  UNL     1       7.912  63.142   4.522  1.00  0.00     0.161 HD
BRANCH  19  21
HETATM   21  C18 UNL     1       5.974  63.952   4.415  1.00  0.00     0.077 C 
HETATM   22  S1  UNL     1       4.399  63.528   4.316  1.00  0.00    -0.065 SA
BRANCH  21  23
HETATM   23  C19 UNL     1       6.251  65.338   4.882  1.00  0.00     0.039 C 
HETATM   24  C20 UNL     1       5.263  65.822   5.911  1.00  0.00     0.017 C 
HETATM   25  C21 UNL     1       6.251  66.321   3.727  1.00  0.00     0.017 C 
ENDBRANCH  21  23
ENDBRANCH  19  21
ENDBRANCH  18  19
BRANCH  18  26
HETATM   26  C22 UNL     1       6.870  60.745   3.761  1.00  0.00     0.409 C 
HETATM   27  F2  UNL     1       5.787  59.968   3.551  1.00  0.00    -0.169 F 
HETATM   28  F3  UNL     1       7.009  60.976   5.097  1.00  0.00    -0.169 F 
HETATM   29  F4  UNL     1       8.052  60.080   3.376  1.00  0.00    -0.169 F 
ENDBRANCH  18  26
ENDBRANCH  13  18
BRANCH   1  30
HETATM   30  C3  UNL     1       5.371  64.137  -0.553  1.00  0.00     0.042 C 
BRANCH  30  31
HETATM   31  C2  UNL     1       4.642  64.822   0.555  1.00  0.00    -0.002 C 
HETATM   32  C1  UNL     1       3.261  64.177   0.644  1.00  0.00     0.005 C 
ENDBRANCH  30  31
ENDBRANCH   1  30
BRANCH   9  33
HETATM   33  C9  UNL     1      13.011  65.338   2.419  1.00  0.00     0.374 C 
BRANCH  33  34
HETATM   34  N3  UNL     1      13.454  64.649   3.597  1.00  0.00     0.100 N 
HETATM   35  C10 UNL     1      14.898  64.629   3.711  1.00  0.00     0.276 C 
HETATM   36  C11 UNL     1      15.267  64.995   5.110  1.00  0.00     0.069 C 
HETATM   37  C12 UNL     1      13.958  65.171   5.848  1.00  0.00     0.200 C 
HETATM   38  F1  UNL     1      14.054  66.333   6.626  1.00  0.00    -0.248 F 
HETATM   39  C13 UNL     1      12.972  65.389   4.748  1.00  0.00     0.310 C 
ENDBRANCH  33  34
ENDBRANCH   9  33
TORSDOF 9
ENDMDL
MODEL 5
REMARK VINA RESULT: -7.746202278      0.870      1.508
REMARK  9 active torsions:
REMARK  status: ('A' for Active; 'I' for Inactive)
REMARK    1  A    between atoms: C2_2  and  C3_3 
REMARK    2  A    between atoms: C3_3  and  C4_4 
REMARK       I    between atoms: N2_11  and  C8_12 
REMARK    3  A    between atoms: C8_12  and  C9_14 
REMARK    4  A    between atoms: C9_14  and  N3_15 
REMARK    5  A    between atoms: C16_23  and  C17_24 
REMARK    6  A    between atoms: C17_24  and  N4_25 
REMARK    7  A    between atoms: C17_24  and  C22_32 
REMARK    8  A    between atoms: N4_25  and  C18_27 
REMARK    9  A    between atoms: C18_27  and  C19_29 
ROOT
HETATM    1  C4  UNL     1       6.626  63.617  -0.146  1.00  0.00     0.278 C 
HETATM    2  N1  UNL     1       7.228  64.201   1.001  1.00  0.00    -0.051 N 
ATOM      3  H11 UNL     1       6.553  64.308   1.758  1.00  0.00     0.279 HD
ATOM      4  H12 UNL     1       7.448  65.184   0.841  1.00  0.00     0.279 HD
HETATM    5  C5  UNL     1       8.417  63.453   1.448  1.00  0.00     0.152 C 
HETATM    6  C6  UNL     1       9.282  63.287   0.217  1.00  0.00     0.061 C 
HETATM    7  C7  UNL     1      10.729  62.958   0.539  1.00  0.00     0.128 C 
HETATM    8  N2  UNL     1      11.257  63.807   1.563  1.00  0.00    -0.350 N 
HETATM    9  C8  UNL     1      12.453  64.513   1.380  1.00  0.00     0.248 C 
HETATM   10  O1  UNL     1      13.136  64.441   0.302  1.00  0.00    -0.271 OA
HETATM   11  C14 UNL     1      10.519  63.919   2.784  1.00  0.00     0.128 C 
HETATM   12  C15 UNL     1       9.128  64.382   2.368  1.00  0.00     0.061 C 
HETATM   13  C16 UNL     1       8.000  62.135   1.946  1.00  0.00     0.152 C 
HETATM   14  N5  UNL     1       7.418  61.437   0.781  1.00  0.00    -0.350 N 
ATOM     15  H5  UNL     1       7.693  60.488   0.531  1.00  0.00     0.163 HD
HETATM   16  C23 UNL     1       6.455  62.160   0.028  1.00  0.00     0.249 C 
HETATM   17  O2  UNL     1       5.463  61.600  -0.495  1.00  0.00    -0.271 OA
ENDROOT
BRANCH  13  18
HETATM   18  C17 UNL     1       6.881  62.131   2.975  1.00  0.00     0.215 C 
BRANCH  18  19
HETATM   19  N4  UNL     1       7.016  63.118   4.009  1.00  0.00    -0.369 N 
ATOM     20  H4  UNL     1       7.912  63.199   4.489  1.00  0.00     0.161 HD
BRANCH  19  21
HETATM   21  C18 UNL     1       5.963  63.983   4.395  1.00  0.00     0.077 C 
HETATM   22  S1  UNL     1       4.397  63.642   4.071  1.00  0.00    -0.065 SA
BRANCH  21  23
HETATM   23  C19 UNL     1       6.223  65.277   5.081  1.00  0.00     0.039 C 
HETATM   24  C20 UNL     1       5.078  65.722   5.954  1.00  0.00     0.017 C 
HETATM   25  C21 UNL     1       6.515  66.383   4.086  1.00  0.00     0.017 C 
ENDBRANCH  21  23
ENDBRANCH  19  21
ENDBRANCH  18  19
BRANCH  18  26
HETATM   26  C22 UNL     1       6.916  60.795   3.706  1.00  0.00     0.409 C 
HETATM   27  F2  UNL     1       7.915  59.965   3.341  1.00  0.00    -0.169 F 
HETATM   28  F3  UNL     1       5.720  60.162   3.544  1.00  0.00    -0.169 F 
HETATM   29  F4  UNL     1       6.988  61.101   5.081  1.00  0.00    -0.169 F 
ENDBRANCH  18  26
ENDBRANCH  13  18
BRANCH   1  30
HETATM   30  C3  UNL     1       5.356  64.317  -0.508  1.00  0.00     0.042 C 
BRANCH  30  31
HETATM   31  C2  UNL     1       5.269  64.790  -1.922  1.00  0.00    -0.002 C 
HETATM   32  C1  UNL     1       6.702  64.981  -2.415  1.00  0.00     0.005 C 
ENDBRANCH  30  31
ENDBRANCH   1  30
BRANCH   9  33
HETATM   33  C9  UNL     1      13.021  65.408   2.440  1.00  0.00     0.374 C 
BRANCH  33  34
HETATM   34  N3  UNL     1      13.461  64.680   3.595  1.00  0.00     0.100 N 
HETATM   35  C10 UNL     1      14.904  64.648   3.707  1.00  0.00     0.276 C 
HETATM   36  C11 UNL     1      15.276  64.967   5.117  1.00  0.00     0.069 C 
HETATM   37  C12 UNL     1      13.969  65.129   5.861  1.00  0.00     0.200 C 
HETATM   38  F1  UNL     1      14.073  66.265   6.675  1.00  0.00    -0.248 F 
HETATM   39  C13 UNL     1      12.984  65.387   4.769  1.00  0.00     0.310 C 
ENDBRANCH  33  34
ENDBRANCH   9  33
TORSDOF 9
ENDMDL
