MODEL 1
REMARK VINA RESULT: -8.929242909      0.000      0.000
REMARK  9 active torsions:
REMARK  status: ('A' for Active; 'I' for Inactive)
REMARK    1  A    between atoms: C1_2  and  C2_3 
REMARK       I    between atoms: C1_2  and  N1_5 
REMARK    2  A    between atoms: N1_5  and  C3_7 
REMARK    3  A    between atoms: C4_10  and  N3_11 
REMARK    4  A    between atoms: N3_11  and  C5_13 
REMARK    5  A    between atoms: C5_13  and  C6_14 
REMARK    6  A    between atoms: C6_14  and  C7_15 
REMARK    7  A    between atoms: N5_27  and  C14_29 
REMARK    8  A    between atoms: C14_29  and  C15_30 
REMARK    9  A    between atoms: C15_30  and  N6_31 
ROOT
HETATM    1  C3  UNL     1      14.323  64.997   4.281  1.00  0.00     0.714 A 
HETATM    2  N2  UNL     1      14.206  64.408   3.085  1.00  0.00    -0.021 N 
ATOM      3  H2  UNL     1      14.975  63.858   2.702  1.00  0.00     0.203 HD
HETATM    4  C4  UNL     1      13.038  64.553   2.381  1.00  0.00     0.711 A 
HETATM    5  N4  UNL     1      12.027  65.287   2.905  1.00  0.00    -0.021 N 
ATOM      6  H4  UNL     1      11.162  65.389   2.375  1.00  0.00     0.203 HD
HETATM    7  C13 UNL     1      12.131  65.882   4.100  1.00  0.00     0.711 A 
HETATM    8  N5  UNL     1      11.215  66.571   4.615  1.00  0.00    -0.203 N 
ATOM      9  H5  UNL     1      11.410  66.974   5.531  1.00  0.00     0.183 HD
HETATM   10  N7  UNL     1      13.315  65.707   4.763  1.00  0.00    -0.021 N 
ATOM     11  H7  UNL     1      13.427  66.147   5.676  1.00  0.00     0.203 HD
ENDROOT
BRANCH   4  12
HETATM   12  N3  UNL     1      13.009  63.957   1.251  1.00  0.00    -0.204 N 
ATOM     13  H3  UNL     1      13.718  63.245   1.079  1.00  0.00     0.183 HD
BRANCH  12  14
HETATM   14  C5  UNL     1      12.082  64.204   0.229  1.00  0.00     0.083 C 
BRANCH  14  15
HETATM   15  C6  UNL     1      11.228  62.993  -0.053  1.00  0.00     0.085 C 
BRANCH  15  16
HETATM   16  C7  UNL     1       9.879  63.170   0.495  1.00  0.00    -0.030 A 
HETATM   17  C8  UNL     1       9.622  62.556   1.720  1.00  0.00     0.034 A 
HETATM   18  C9  UNL     1       8.409  62.708   2.326  1.00  0.00     0.056 A 
HETATM   19 CL2  UNL     1       8.088  61.937   3.867  1.00  0.00    -0.083 Cl
HETATM   20  C10 UNL     1       7.430  63.467   1.737  1.00  0.00     0.057 A 
HETATM   21 CL3  UNL     1       5.865  63.677   2.503  1.00  0.00    -0.082 Cl
HETATM   22  C11 UNL     1       7.648  64.081   0.539  1.00  0.00     0.050 A 
HETATM   23  C12 UNL     1       8.890  63.919  -0.074  1.00  0.00     0.042 A 
HETATM   24 CL4  UNL     1       9.110  64.672  -1.647  1.00  0.00    -0.084 Cl
ENDBRANCH  15  16
ENDBRANCH  14  15
ENDBRANCH  12  14
ENDBRANCH   4  12
BRANCH   1  25
HETATM   25  N1  UNL     1      15.450  64.834   4.918  1.00  0.00    -0.158 N 
HETATM   26  C1  UNL     1      15.636  63.783   5.835  1.00  0.00     0.249 C 
HETATM   27  O1  UNL     1      15.817  62.575   5.517  1.00  0.00    -0.271 OA
ATOM     28  H1  UNL     1      16.216  65.485   4.747  1.00  0.00     0.187 HD
BRANCH  26  29
HETATM   29  C2  UNL     1      15.621  64.091   7.288  1.00  0.00     0.218 C 
HETATM   30 CL1  UNL     1      13.969  64.531   7.804  1.00  0.00    -0.121 Cl
ENDBRANCH  26  29
ENDBRANCH   1  25
BRANCH   8  31
HETATM   31  C14 UNL     1       9.955  66.845   4.069  1.00  0.00     0.109 C 
BRANCH  31  32
HETATM   32  C15 UNL     1       9.863  68.164   3.335  1.00  0.00     0.317 C 
BRANCH  32  33
HETATM   33  N6  UNL     1       9.624  69.296   4.158  1.00  0.00     0.097 N 
HETATM   34  C16 UNL     1       8.259  69.779   4.106  1.00  0.00     0.299 C 
HETATM   35  C17 UNL     1       7.850  70.193   2.728  1.00  0.00     0.198 C 
HETATM   36  O2  UNL     1       8.731  70.936   2.031  1.00  0.00    -0.388 OA
HETATM   37  C18 UNL     1      10.045  70.861   2.307  1.00  0.00     0.198 C 
HETATM   38  C19 UNL     1      10.435  70.396   3.667  1.00  0.00     0.299 C 
ENDBRANCH  32  33
ENDBRANCH  31  32
ENDBRANCH   8  31
TORSDOF 9
ENDMDL
MODEL 2
REMARK VINA RESULT: -8.869789906      2.210      2.746
REMARK  9 active torsions:
REMARK  status: ('A' for Active; 'I' for Inactive)
REMARK    1  A    between atoms: C1_2  and  C2_3 
REMARK       I    between atoms: C1_2  and  N1_5 
REMARK    2  A    between atoms: N1_5  and  C3_7 
REMARK    3  A    between atoms: C4_10  and  N3_11 
REMARK    4  A    between atoms: N3_11  and  C5_13 
REMARK    5  A    between atoms: C5_13  and  C6_14 
REMARK    6  A    between atoms: C6_14  and  C7_15 
REMARK    7  A    between atoms: N5_27  and  C14_29 
REMARK    8  A    between atoms: C14_29  and  C15_30 
REMARK    9  A    between atoms: C15_30  and  N6_31 
ROOT
HETATM    1  C3  UNL     1      12.821  65.699   4.098  1.00  0.00     0.714 A 
HETATM    2  N2  UNL     1      12.348  64.652   3.413  1.00  0.00    -0.021 N 
ATOM      3  H2  UNL     1      12.964  63.879   3.160  1.00  0.00     0.203 HD
HETATM    4  C4  UNL     1      11.025  64.632   3.054  1.00  0.00     0.711 A 
HETATM    5  N4  UNL     1      10.222  65.668   3.397  1.00  0.00    -0.021 N 
ATOM      6  H4  UNL     1       9.239  65.644   3.127  1.00  0.00     0.203 HD
HETATM    7  C13 UNL     1      10.682  66.722   4.083  1.00  0.00     0.711 A 
HETATM    8  N5  UNL     1       9.967  67.700   4.416  1.00  0.00    -0.203 N 
ATOM      9  H5  UNL     1      10.430  68.444   4.937  1.00  0.00     0.183 HD
HETATM   10  N7  UNL     1      12.009  66.694   4.417  1.00  0.00    -0.021 N 
ATOM     11  H7  UNL     1      12.392  67.482   4.940  1.00  0.00     0.203 HD
ENDROOT
BRANCH   4  12
HETATM   12  N3  UNL     1      10.656  63.595   2.404  1.00  0.00    -0.204 N 
ATOM     13  H3  UNL     1      11.355  63.132   1.824  1.00  0.00     0.183 HD
BRANCH  12  14
HETATM   14  C5  UNL     1       9.367  63.044   2.424  1.00  0.00     0.083 C 
BRANCH  14  15
HETATM   15  C6  UNL     1       9.067  62.284   1.157  1.00  0.00     0.085 C 
BRANCH  15  16
HETATM   16  C7  UNL     1       7.949  61.355   1.361  1.00  0.00    -0.030 A 
HETATM   17  C8  UNL     1       8.115  60.395   2.358  1.00  0.00     0.034 A 
HETATM   18  C9  UNL     1       7.107  59.522   2.648  1.00  0.00     0.056 A 
HETATM   19 CL2  UNL     1       7.317  58.316   3.902  1.00  0.00    -0.083 Cl
HETATM   20  C10 UNL     1       5.921  59.580   1.962  1.00  0.00     0.057 A 
HETATM   21 CL3  UNL     1       4.612  58.467   2.323  1.00  0.00    -0.082 Cl
HETATM   22  C11 UNL     1       5.725  60.507   0.981  1.00  0.00     0.050 A 
HETATM   23  C12 UNL     1       6.760  61.394   0.690  1.00  0.00     0.042 A 
HETATM   24 CL4  UNL     1       6.495  62.531  -0.624  1.00  0.00    -0.084 Cl
ENDBRANCH  15  16
ENDBRANCH  14  15
ENDBRANCH  12  14
ENDBRANCH   4  12
BRANCH   1  25
HETATM   25  N1  UNL     1      14.086  65.679   4.421  1.00  0.00    -0.158 N 
HETATM   26  C1  UNL     1      14.698  64.525   4.943  1.00  0.00     0.249 C 
HETATM   27  O1  UNL     1      15.012  63.508   4.264  1.00  0.00    -0.271 OA
ATOM     28  H1  UNL     1      14.644  66.522   4.291  1.00  0.00     0.187 HD
BRANCH  26  29
HETATM   29  C2  UNL     1      15.006  64.474   6.395  1.00  0.00     0.218 C 
HETATM   30 CL1  UNL     1      16.112  63.114   6.739  1.00  0.00    -0.121 Cl
ENDBRANCH  26  29
ENDBRANCH   1  25
BRANCH   8  31
HETATM   31  C14 UNL     1       8.604  67.878   4.150  1.00  0.00     0.109 C 
BRANCH  31  32
HETATM   32  C15 UNL     1       8.194  69.315   3.910  1.00  0.00     0.317 C 
BRANCH  32  33
HETATM   33  N6  UNL     1       7.617  69.572   2.638  1.00  0.00     0.097 N 
HETATM   34  C16 UNL     1       8.589  69.764   1.583  1.00  0.00     0.299 C 
HETATM   35  C17 UNL     1       9.501  70.921   1.849  1.00  0.00     0.198 C 
HETATM   36  O2  UNL     1       8.928  72.056   2.293  1.00  0.00    -0.388 OA
HETATM   37  C18 UNL     1       7.757  72.007   2.951  1.00  0.00     0.198 C 
HETATM   38  C19 UNL     1       6.885  70.824   2.715  1.00  0.00     0.299 C 
ENDBRANCH  32  33
ENDBRANCH  31  32
ENDBRANCH   8  31
TORSDOF 9
ENDMDL
MODEL 3
REMARK VINA RESULT: -8.866677373      0.933      1.001
REMARK  9 active torsions:
REMARK  status: ('A' for Active; 'I' for Inactive)
REMARK    1  A    between atoms: C1_2  and  C2_3 
REMARK       I    between atoms: C1_2  and  N1_5 
REMARK    2  A    between atoms: N1_5  and  C3_7 
REMARK    3  A    between atoms: C4_10  and  N3_11 
REMARK    4  A    between atoms: N3_11  and  C5_13 
REMARK    5  A    between atoms: C5_13  and  C6_14 
REMARK    6  A    between atoms: C6_14  and  C7_15 
REMARK    7  A    between atoms: N5_27  and  C14_29 
REMARK    8  A    between atoms: C14_29  and  C15_30 
REMARK    9  A    between atoms: C15_30  and  N6_31 
ROOT
HETATM    1  C3  UNL     1      14.157  65.029   4.181  1.00  0.00     0.714 A 
HETATM    2  N2  UNL     1      13.989  64.397   3.014  1.00  0.00    -0.021 N 
ATOM      3  H2  UNL     1      14.742  63.833   2.619  1.00  0.00     0.203 HD
HETATM    4  C4  UNL     1      12.792  64.518   2.355  1.00  0.00     0.711 A 
HETATM    5  N4  UNL     1      11.805  65.272   2.895  1.00  0.00    -0.021 N 
ATOM      6  H4  UNL     1      10.917  65.355   2.398  1.00  0.00     0.203 HD
HETATM    7  C13 UNL     1      11.959  65.911   4.061  1.00  0.00     0.711 A 
HETATM    8  N5  UNL     1      11.065  66.619   4.589  1.00  0.00    -0.203 N 
ATOM      9  H5  UNL     1      11.300  67.056   5.480  1.00  0.00     0.183 HD
HETATM   10  N7  UNL     1      13.170  65.758   4.679  1.00  0.00    -0.021 N 
ATOM     11  H7  UNL     1      13.321  66.232   5.570  1.00  0.00     0.203 HD
ENDROOT
BRANCH   4  12
HETATM   12  N3  UNL     1      12.716  63.880   1.251  1.00  0.00    -0.204 N 
ATOM     13  H3  UNL     1      13.397  64.112   0.528  1.00  0.00     0.183 HD
BRANCH  12  14
HETATM   14  C5  UNL     1      11.771  62.888   0.952  1.00  0.00     0.083 C 
BRANCH  14  15
HETATM   15  C6  UNL     1      10.553  63.465   0.275  1.00  0.00     0.085 C 
BRANCH  15  16
HETATM   16  C7  UNL     1       9.339  63.154   1.039  1.00  0.00    -0.030 A 
HETATM   17  C8  UNL     1       9.190  61.831   1.454  1.00  0.00     0.034 A 
HETATM   18  C9  UNL     1       8.115  61.464   2.210  1.00  0.00     0.056 A 
HETATM   19 CL2  UNL     1       7.929  59.801   2.733  1.00  0.00    -0.083 Cl
HETATM   20  C10 UNL     1       7.170  62.391   2.569  1.00  0.00     0.057 A 
HETATM   21 CL3  UNL     1       5.783  61.938   3.544  1.00  0.00    -0.082 Cl
HETATM   22  C11 UNL     1       7.286  63.693   2.179  1.00  0.00     0.050 A 
HETATM   23  C12 UNL     1       8.386  64.060   1.406  1.00  0.00     0.042 A 
HETATM   24 CL4  UNL     1       8.466  65.731   0.869  1.00  0.00    -0.084 Cl
ENDBRANCH  15  16
ENDBRANCH  14  15
ENDBRANCH  12  14
ENDBRANCH   4  12
BRANCH   1  25
HETATM   25  N1  UNL     1      15.310  64.889   4.776  1.00  0.00    -0.158 N 
HETATM   26  C1  UNL     1      15.542  63.860   5.707  1.00  0.00     0.249 C 
HETATM   27  O1  UNL     1      15.719  62.646   5.407  1.00  0.00    -0.271 OA
ATOM     28  H1  UNL     1      16.063  65.541   4.560  1.00  0.00     0.187 HD
BRANCH  26  29
HETATM   29  C2  UNL     1      15.583  64.199   7.152  1.00  0.00     0.218 C 
HETATM   30 CL1  UNL     1      13.947  64.624   7.729  1.00  0.00    -0.121 Cl
ENDBRANCH  26  29
ENDBRANCH   1  25
BRANCH   8  31
HETATM   31  C14 UNL     1       9.784  66.874   4.087  1.00  0.00     0.109 C 
BRANCH  31  32
HETATM   32  C15 UNL     1       9.649  68.186   3.345  1.00  0.00     0.317 C 
BRANCH  32  33
HETATM   33  N6  UNL     1       9.499  69.332   4.171  1.00  0.00     0.097 N 
HETATM   34  C16 UNL     1       8.182  69.930   4.106  1.00  0.00     0.299 C 
HETATM   35  C17 UNL     1       7.825  70.383   2.724  1.00  0.00     0.198 C 
HETATM   36  O2  UNL     1       8.775  71.050   2.041  1.00  0.00    -0.388 OA
HETATM   37  C18 UNL     1      10.074  70.861   2.332  1.00  0.00     0.198 C 
HETATM   38  C19 UNL     1      10.407  70.360   3.694  1.00  0.00     0.299 C 
ENDBRANCH  32  33
ENDBRANCH  31  32
ENDBRANCH   8  31
TORSDOF 9
ENDMDL
MODEL 4
REMARK VINA RESULT: -8.738361125      0.904      1.666
REMARK  9 active torsions:
REMARK  status: ('A' for Active; 'I' for Inactive)
REMARK    1  A    between atoms: C1_2  and  C2_3 
REMARK       I    between atoms: C1_2  and  N1_5 
REMARK    2  A    between atoms: N1_5  and  C3_7 
REMARK    3  A    between atoms: C4_10  and  N3_11 
REMARK    4  A    between atoms: N3_11  and  C5_13 
REMARK    5  A    between atoms: C5_13  and  C6_14 
REMARK    6  A    between atoms: C6_14  and  C7_15 
REMARK    7  A    between atoms: N5_27  and  C14_29 
REMARK    8  A    between atoms: C14_29  and  C15_30 
REMARK    9  A    between atoms: C15_30  and  N6_31 
ROOT
HETATM    1  C3  UNL     1      14.280  64.990   4.252  1.00  0.00     0.714 A 
HETATM    2  N2  UNL     1      14.135  64.358   3.081  1.00  0.00    -0.021 N 
ATOM      3  H2  UNL     1      14.892  63.789   2.704  1.00  0.00     0.203 HD
HETATM    4  C4  UNL     1      12.953  64.487   2.396  1.00  0.00     0.711 A 
HETATM    5  N4  UNL     1      11.959  65.248   2.913  1.00  0.00    -0.021 N 
ATOM      6  H4  UNL     1      11.084  65.337   2.396  1.00  0.00     0.203 HD
HETATM    7  C13 UNL     1      12.091  65.886   4.082  1.00  0.00     0.711 A 
HETATM    8  N5  UNL     1      11.190  66.600   4.590  1.00  0.00    -0.203 N 
ATOM      9  H5  UNL     1      11.408  67.036   5.486  1.00  0.00     0.183 HD
HETATM   10  N7  UNL     1      13.287  65.726   4.727  1.00  0.00    -0.021 N 
ATOM     11  H7  UNL     1      13.421  66.198   5.622  1.00  0.00     0.203 HD
ENDROOT
BRANCH   4  12
HETATM   12  N3  UNL     1      12.897  63.850   1.290  1.00  0.00    -0.204 N 
ATOM     13  H3  UNL     1      13.729  63.335   1.004  1.00  0.00     0.183 HD
BRANCH  12  14
HETATM   14  C5  UNL     1      11.785  63.802   0.439  1.00  0.00     0.083 C 
BRANCH  14  15
HETATM   15  C6  UNL     1      10.844  62.684   0.812  1.00  0.00     0.085 C 
BRANCH  15  16
HETATM   16  C7  UNL     1       9.498  63.204   1.075  1.00  0.00    -0.030 A 
HETATM   17  C8  UNL     1       9.290  64.555   0.796  1.00  0.00     0.034 A 
HETATM   18  C9  UNL     1       8.055  65.110   0.966  1.00  0.00     0.056 A 
HETATM   19 CL2  UNL     1       7.794  66.807   0.612  1.00  0.00    -0.083 Cl
HETATM   20  C10 UNL     1       7.006  64.347   1.413  1.00  0.00     0.057 A 
HETATM   21 CL3  UNL     1       5.411  65.044   1.634  1.00  0.00    -0.082 Cl
HETATM   22  C11 UNL     1       7.176  63.024   1.696  1.00  0.00     0.050 A 
HETATM   23  C12 UNL     1       8.441  62.464   1.521  1.00  0.00     0.042 A 
HETATM   24 CL4  UNL     1       8.635  60.773   1.958  1.00  0.00    -0.084 Cl
ENDBRANCH  15  16
ENDBRANCH  14  15
ENDBRANCH  12  14
ENDBRANCH   4  12
BRANCH   1  25
HETATM   25  N1  UNL     1      15.418  64.842   4.872  1.00  0.00    -0.158 N 
HETATM   26  C1  UNL     1      15.624  63.809   5.805  1.00  0.00     0.249 C 
HETATM   27  O1  UNL     1      15.803  62.595   5.505  1.00  0.00    -0.271 OA
ATOM     28  H1  UNL     1      16.179  65.492   4.676  1.00  0.00     0.187 HD
BRANCH  26  29
HETATM   29  C2  UNL     1      15.634  64.143   7.252  1.00  0.00     0.218 C 
HETATM   30 CL1  UNL     1      13.985  64.567   7.794  1.00  0.00    -0.121 Cl
ENDBRANCH  26  29
ENDBRANCH   1  25
BRANCH   8  31
HETATM   31  C14 UNL     1       9.922  66.864   4.059  1.00  0.00     0.109 C 
BRANCH  31  32
HETATM   32  C15 UNL     1       9.811  68.180   3.322  1.00  0.00     0.317 C 
BRANCH  32  33
HETATM   33  N6  UNL     1       9.578  69.314   4.144  1.00  0.00     0.097 N 
HETATM   34  C16 UNL     1       8.223  69.820   4.071  1.00  0.00     0.299 C 
HETATM   35  C17 UNL     1       7.845  70.246   2.687  1.00  0.00     0.198 C 
HETATM   36  O2  UNL     1       8.751  70.976   2.008  1.00  0.00    -0.388 OA
HETATM   37  C18 UNL     1      10.058  70.876   2.306  1.00  0.00     0.198 C 
HETATM   38  C19 UNL     1      10.417  70.401   3.671  1.00  0.00     0.299 C 
ENDBRANCH  32  33
ENDBRANCH  31  32
ENDBRANCH   8  31
TORSDOF 9
ENDMDL
MODEL 5
REMARK VINA RESULT: -8.722004883      2.216      2.631
REMARK  9 active torsions:
REMARK  status: ('A' for Active; 'I' for Inactive)
REMARK    1  A    between atoms: C1_2  and  C2_3 
REMARK       I    between atoms: C1_2  and  N1_5 
REMARK    2  A    between atoms: N1_5  and  C3_7 
REMARK    3  A    between atoms: C4_10  and  N3_11 
REMARK    4  A    between atoms: N3_11  and  C5_13 
REMARK    5  A    between atoms: C5_13  and  C6_14 
REMARK    6  A    between atoms: C6_14  and  C7_15 
REMARK    7  A    between atoms: N5_27  and  C14_29 
REMARK    8  A    between atoms: C14_29  and  C15_30 
REMARK    9  A    between atoms: C15_30  and  N6_31 
ROOT
HETATM    1  C3  UNL     1      12.798  65.697   4.050  1.00  0.00     0.714 A 
HETATM    2  N2  UNL     1      12.321  64.651   3.365  1.00  0.00    -0.021 N 
ATOM      3  H2  UNL     1      12.933  63.875   3.113  1.00  0.00     0.203 HD
HETATM    4  C4  UNL     1      10.997  64.637   3.007  1.00  0.00     0.711 A 
HETATM    5  N4  UNL     1      10.199  65.676   3.350  1.00  0.00    -0.021 N 
ATOM      6  H4  UNL     1       9.215  65.656   3.080  1.00  0.00     0.203 HD
HETATM    7  C13 UNL     1      10.664  66.729   4.035  1.00  0.00     0.711 A 
HETATM    8  N5  UNL     1       9.952  67.709   4.368  1.00  0.00    -0.203 N 
ATOM      9  H5  UNL     1      10.419  68.452   4.889  1.00  0.00     0.183 HD
HETATM   10  N7  UNL     1      11.990  66.695   4.369  1.00  0.00    -0.021 N 
ATOM     11  H7  UNL     1      12.376  67.482   4.891  1.00  0.00     0.203 HD
ENDROOT
BRANCH   4  12
HETATM   12  N3  UNL     1      10.623  63.601   2.357  1.00  0.00    -0.204 N 
ATOM     13  H3  UNL     1      11.310  63.156   1.750  1.00  0.00     0.183 HD
BRANCH  12  14
HETATM   14  C5  UNL     1       9.345  63.028   2.413  1.00  0.00     0.083 C 
BRANCH  14  15
HETATM   15  C6  UNL     1       8.998  62.315   1.131  1.00  0.00     0.085 C 
BRANCH  15  16
HETATM   16  C7  UNL     1       7.915  61.349   1.351  1.00  0.00    -0.030 A 
HETATM   17  C8  UNL     1       8.119  60.409   2.360  1.00  0.00     0.034 A 
HETATM   18  C9  UNL     1       7.145  59.504   2.665  1.00  0.00     0.056 A 
HETATM   19 CL2  UNL     1       7.402  58.323   3.935  1.00  0.00    -0.083 Cl
HETATM   20  C10 UNL     1       5.955  59.508   1.983  1.00  0.00     0.057 A 
HETATM   21 CL3  UNL     1       4.689  58.354   2.363  1.00  0.00    -0.082 Cl
HETATM   22  C11 UNL     1       5.723  60.415   0.990  1.00  0.00     0.050 A 
HETATM   23  C12 UNL     1       6.724  61.335   0.683  1.00  0.00     0.042 A 
HETATM   24 CL4  UNL     1       6.413  62.443  -0.644  1.00  0.00    -0.084 Cl
ENDBRANCH  15  16
ENDBRANCH  14  15
ENDBRANCH  12  14
ENDBRANCH   4  12
BRANCH   1  25
HETATM   25  N1  UNL     1      14.062  65.672   4.372  1.00  0.00    -0.158 N 
HETATM   26  C1  UNL     1      14.682  64.501   4.845  1.00  0.00     0.249 C 
HETATM   27  O1  UNL     1      15.003  63.516   4.123  1.00  0.00    -0.271 OA
ATOM     28  H1  UNL     1      14.615  66.523   4.279  1.00  0.00     0.187 HD
BRANCH  26  29
HETATM   29  C2  UNL     1      14.991  64.390   6.294  1.00  0.00     0.218 C 
HETATM   30 CL1  UNL     1      16.055  62.985   6.587  1.00  0.00    -0.121 Cl
ENDBRANCH  26  29
ENDBRANCH   1  25
BRANCH   8  31
HETATM   31  C14 UNL     1       8.590  67.894   4.103  1.00  0.00     0.109 C 
BRANCH  31  32
HETATM   32  C15 UNL     1       8.285  69.022   3.142  1.00  0.00     0.317 C 
BRANCH  32  33
HETATM   33  N6  UNL     1       8.629  70.319   3.607  1.00  0.00     0.097 N 
HETATM   34  C16 UNL     1       7.501  71.219   3.719  1.00  0.00     0.299 C 
HETATM   35  C17 UNL     1       6.808  71.435   2.409  1.00  0.00     0.198 C 
HETATM   36  O2  UNL     1       7.593  71.654   1.337  1.00  0.00    -0.388 OA
HETATM   37  C18 UNL     1       8.856  71.192   1.319  1.00  0.00     0.198 C 
HETATM   38  C19 UNL     1       9.511  70.934   2.631  1.00  0.00     0.299 C 
ENDBRANCH  32  33
ENDBRANCH  31  32
ENDBRANCH   8  31
TORSDOF 9
ENDMDL
