MODEL 1
REMARK VINA RESULT: -8.652848467      0.000      0.000
REMARK  13 active torsions:
REMARK  status: ('A' for Active; 'I' for Inactive)
REMARK    1  A    between atoms: C2_2  and  N1_3 
REMARK    2  A    between atoms: N1_3  and  C3_5 
REMARK    3  A    between atoms: C3_5  and  N2_6 
REMARK    4  A    between atoms: C3_5  and  O1_11 
REMARK    5  A    between atoms: N2_6  and  N3_8 
REMARK    6  A    between atoms: O1_11  and  C4_12 
REMARK    7  A    between atoms: C4_12  and  C5_13 
REMARK    8  A    between atoms: C5_13  and  C6_14 
REMARK    9  A    between atoms: C6_14  and  N4_15 
REMARK   10  A    between atoms: C6_14  and  N5_18 
REMARK   11  A    between atoms: C10_25  and  C12_27 
REMARK   12  A    between atoms: S1_32  and  C15_33 
REMARK   13  A    between atoms: C15_33  and  C16_34 
ROOT
HETATM    1  C16 UNL     1       5.550  60.405   2.872  1.00  0.00     0.017 A 
HETATM    2  C17 UNL     1       6.705  59.705   3.373  1.00  0.00     0.166 A 
HETATM    3  F1  UNL     1       7.698  60.414   3.952  1.00  0.00    -0.202 F 
HETATM    4  C18 UNL     1       6.821  58.345   3.308  1.00  0.00     0.197 A 
HETATM    5  F2  UNL     1       7.904  57.735   3.834  1.00  0.00    -0.199 F 
HETATM    6  C19 UNL     1       5.807  57.625   2.748  1.00  0.00     0.198 A 
HETATM    7  F3  UNL     1       5.856  56.264   2.688  1.00  0.00    -0.199 F 
HETATM    8  C20 UNL     1       4.687  58.301   2.257  1.00  0.00     0.179 A 
HETATM    9  F4  UNL     1       3.735  57.520   1.701  1.00  0.00    -0.201 F 
HETATM   10  C21 UNL     1       4.579  59.677   2.324  1.00  0.00     0.096 A 
HETATM   11  C22 UNL     1       3.457  60.326   1.690  1.00  0.00     0.103 C 
HETATM   12  N8  UNL     1       2.590  60.859   1.154  1.00  0.00    -0.191 NA
ENDROOT
BRANCH   1  13
HETATM   13  C15 UNL     1       5.690  61.875   3.021  1.00  0.00     0.113 C 
BRANCH  13  14
HETATM   14  S1  UNL     1       6.687  62.773   2.019  1.00  0.00    -0.162 SA
HETATM   15  C12 UNL     1       8.100  62.817   1.218  1.00  0.00     0.065 C 
HETATM   16  N7  UNL     1       7.935  62.569  -0.034  1.00  0.00    -0.365 N 
HETATM   17  C13 UNL     1       6.696  62.255  -0.500  1.00  0.00     0.071 C 
ATOM     18  H7  UNL     1       8.728  62.608  -0.673  1.00  0.00     0.165 HD
HETATM   19  C14 UNL     1       5.615  62.721   0.426  1.00  0.00     0.114 C 
BRANCH  15  20
HETATM   20  C10 UNL     1       9.514  63.179   1.748  1.00  0.00     0.081 C 
HETATM   21  N5  UNL     1       9.785  64.621   1.601  1.00  0.00    -0.332 N 
HETATM   22  C7  UNL     1      10.003  65.092   0.254  1.00  0.00     0.359 C 
HETATM   23  N6  UNL     1      11.303  64.561  -0.141  1.00  0.00    -0.059 N 
HETATM   24  C8  UNL     1      11.670  63.358   0.513  1.00  0.00     0.237 C 
ATOM     25  H62 UNL     1      11.345  64.442  -1.153  1.00  0.00     0.279 HD
ATOM     26  H61 UNL     1      12.029  65.268  -0.017  1.00  0.00     0.279 HD
HETATM   27  C9  UNL     1      10.526  62.475   0.974  1.00  0.00     0.065 C 
HETATM   28  C11 UNL     1       9.411  62.861   3.217  1.00  0.00     0.046 C 
BRANCH  21  29
HETATM   29  C6  UNL     1       9.947  65.509   2.677  1.00  0.00     0.077 C 
BRANCH  29  30
HETATM   30  C5  UNL     1      11.218  66.239   3.028  1.00  0.00     0.102 C 
BRANCH  30  31
HETATM   31  C4  UNL     1      12.160  65.197   3.649  1.00  0.00     0.186 C 
BRANCH  31  32
HETATM   32  O1  UNL     1      12.446  65.257   4.973  1.00  0.00    -0.321 OA
BRANCH  32  33
HETATM   33  C3  UNL     1      13.606  65.551   5.596  1.00  0.00     0.233 C 
BRANCH  33  34
HETATM   34  N1  UNL     1      14.907  65.127   5.148  1.00  0.00    -0.355 N 
ATOM     35  H1  UNL     1      15.584  65.807   4.800  1.00  0.00     0.163 HD
BRANCH  34  36
HETATM   36  C2  UNL     1      15.233  63.737   5.197  1.00  0.00     0.118 C 
HETATM   37  C1  UNL     1      15.921  63.515   6.550  1.00  0.00     0.026 C 
ENDBRANCH  34  36
ENDBRANCH  33  34
BRANCH  33  38
HETATM   38  N2  UNL     1      13.565  66.257   6.665  1.00  0.00    -0.272 N 
ATOM     39  H2  UNL     1      13.546  67.272   6.552  1.00  0.00     0.190 HD
BRANCH  38  40
HETATM   40  N3  UNL     1      13.544  65.784   7.912  1.00  0.00    -0.342 N 
ATOM     41  H32 UNL     1      12.761  65.173   8.146  1.00  0.00     0.176 HD
ATOM     42  H31 UNL     1      14.234  65.980   8.637  1.00  0.00     0.176 HD
ENDBRANCH  38  40
ENDBRANCH  33  38
ENDBRANCH  32  33
ENDBRANCH  31  32
ENDBRANCH  30  31
ENDBRANCH  29  30
BRANCH  29  43
HETATM   43  N4  UNL     1       8.972  65.768   3.478  1.00  0.00    -0.389 N 
ATOM     44  H42 UNL     1       8.561  66.700   3.522  1.00  0.00     0.157 HD
ATOM     45  H41 UNL     1       8.677  64.962   4.029  1.00  0.00     0.157 HD
ENDBRANCH  29  43
ENDBRANCH  21  29
ENDBRANCH  15  20
ENDBRANCH  13  14
ENDBRANCH   1  13
TORSDOF 13
ENDMDL
MODEL 2
REMARK VINA RESULT: -8.624391005      1.597      2.679
REMARK  13 active torsions:
REMARK  status: ('A' for Active; 'I' for Inactive)
REMARK    1  A    between atoms: C2_2  and  N1_3 
REMARK    2  A    between atoms: N1_3  and  C3_5 
REMARK    3  A    between atoms: C3_5  and  N2_6 
REMARK    4  A    between atoms: C3_5  and  O1_11 
REMARK    5  A    between atoms: N2_6  and  N3_8 
REMARK    6  A    between atoms: O1_11  and  C4_12 
REMARK    7  A    between atoms: C4_12  and  C5_13 
REMARK    8  A    between atoms: C5_13  and  C6_14 
REMARK    9  A    between atoms: C6_14  and  N4_15 
REMARK   10  A    between atoms: C6_14  and  N5_18 
REMARK   11  A    between atoms: C10_25  and  C12_27 
REMARK   12  A    between atoms: S1_32  and  C15_33 
REMARK   13  A    between atoms: C15_33  and  C16_34 
ROOT
HETATM    1  C16 UNL     1       6.871  59.762   2.380  1.00  0.00     0.017 A 
HETATM    2  C17 UNL     1       7.021  58.471   3.002  1.00  0.00     0.166 A 
HETATM    3  F1  UNL     1       8.182  58.178   3.625  1.00  0.00    -0.202 F 
HETATM    4  C18 UNL     1       6.019  57.542   3.007  1.00  0.00     0.197 A 
HETATM    5  F2  UNL     1       6.195  56.365   3.644  1.00  0.00    -0.199 F 
HETATM    6  C19 UNL     1       4.836  57.847   2.401  1.00  0.00     0.198 A 
HETATM    7  F3  UNL     1       3.792  56.970   2.406  1.00  0.00    -0.199 F 
HETATM    8  C20 UNL     1       4.689  59.096   1.793  1.00  0.00     0.179 A 
HETATM    9  F4  UNL     1       3.496  59.317   1.200  1.00  0.00    -0.201 F 
HETATM   10  C21 UNL     1       5.708  60.030   1.791  1.00  0.00     0.096 A 
HETATM   11  C22 UNL     1       5.540  61.252   1.041  1.00  0.00     0.103 C 
HETATM   12  N8  UNL     1       5.436  62.211   0.416  1.00  0.00    -0.191 NA
ENDROOT
BRANCH   1  13
HETATM   13  C15 UNL     1       8.116  60.565   2.475  1.00  0.00     0.113 C 
BRANCH  13  14
HETATM   14  S1  UNL     1       8.129  62.094   3.157  1.00  0.00    -0.162 SA
HETATM   15  C12 UNL     1       7.626  63.633   3.019  1.00  0.00     0.065 C 
HETATM   16  N7  UNL     1       6.620  63.866   3.787  1.00  0.00    -0.365 N 
HETATM   17  C13 UNL     1       6.088  62.854   4.525  1.00  0.00     0.071 C 
ATOM     18  H7  UNL     1       6.224  64.804   3.842  1.00  0.00     0.165 HD
HETATM   19  C14 UNL     1       7.056  61.725   4.707  1.00  0.00     0.114 C 
BRANCH  15  20
HETATM   20  C10 UNL     1       8.235  64.789   2.180  1.00  0.00     0.081 C 
HETATM   21  N5  UNL     1       9.111  65.641   3.005  1.00  0.00    -0.332 N 
HETATM   22  C7  UNL     1       8.450  66.486   3.970  1.00  0.00     0.359 C 
HETATM   23  N6  UNL     1       7.774  67.518   3.190  1.00  0.00    -0.059 N 
HETATM   24  C8  UNL     1       7.420  67.124   1.876  1.00  0.00     0.237 C 
ATOM     25  H62 UNL     1       6.955  67.862   3.690  1.00  0.00     0.279 HD
ATOM     26  H61 UNL     1       8.336  68.370   3.165  1.00  0.00     0.279 HD
HETATM   27  C9  UNL     1       7.170  65.641   1.670  1.00  0.00     0.065 C 
HETATM   28  C11 UNL     1       9.088  64.059   1.176  1.00  0.00     0.046 C 
BRANCH  21  29
HETATM   29  C6  UNL     1      10.500  65.752   2.829  1.00  0.00     0.077 C 
BRANCH  29  30
HETATM   30  C5  UNL     1      11.510  64.671   3.118  1.00  0.00     0.102 C 
BRANCH  30  31
HETATM   31  C4  UNL     1      12.885  65.353   3.127  1.00  0.00     0.186 C 
BRANCH  31  32
HETATM   32  O1  UNL     1      13.284  66.042   4.225  1.00  0.00    -0.321 OA
BRANCH  32  33
HETATM   33  C3  UNL     1      13.856  65.599   5.365  1.00  0.00     0.233 C 
BRANCH  33  34
HETATM   34  N1  UNL     1      15.182  65.044   5.454  1.00  0.00    -0.355 N 
ATOM     35  H1  UNL     1      16.000  65.654   5.465  1.00  0.00     0.163 HD
BRANCH  34  36
HETATM   36  C2  UNL     1      15.331  63.626   5.527  1.00  0.00     0.118 C 
HETATM   37  C1  UNL     1      16.093  63.350   6.830  1.00  0.00     0.026 C 
ENDBRANCH  34  36
ENDBRANCH  33  34
BRANCH  33  38
HETATM   38  N2  UNL     1      13.185  65.670   6.454  1.00  0.00    -0.272 N 
ATOM     39  H2  UNL     1      12.198  65.414   6.410  1.00  0.00     0.190 HD
BRANCH  38  40
HETATM   40  N3  UNL     1      13.662  66.050   7.641  1.00  0.00    -0.342 N 
ATOM     41  H32 UNL     1      13.193  65.659   8.457  1.00  0.00     0.176 HD
ATOM     42  H31 UNL     1      14.442  66.689   7.794  1.00  0.00     0.176 HD
ENDBRANCH  38  40
ENDBRANCH  33  38
ENDBRANCH  32  33
ENDBRANCH  31  32
ENDBRANCH  30  31
ENDBRANCH  29  30
BRANCH  29  43
HETATM   43  N4  UNL     1      11.029  66.841   2.391  1.00  0.00    -0.389 N 
ATOM     44  H42 UNL     1      11.870  66.822   1.813  1.00  0.00     0.157 HD
ATOM     45  H41 UNL     1      10.525  67.680   2.679  1.00  0.00     0.157 HD
ENDBRANCH  29  43
ENDBRANCH  21  29
ENDBRANCH  15  20
ENDBRANCH  13  14
ENDBRANCH   1  13
TORSDOF 13
ENDMDL
MODEL 3
REMARK VINA RESULT: -8.529852543      1.831      2.768
REMARK  13 active torsions:
REMARK  status: ('A' for Active; 'I' for Inactive)
REMARK    1  A    between atoms: C2_2  and  N1_3 
REMARK    2  A    between atoms: N1_3  and  C3_5 
REMARK    3  A    between atoms: C3_5  and  N2_6 
REMARK    4  A    between atoms: C3_5  and  O1_11 
REMARK    5  A    between atoms: N2_6  and  N3_8 
REMARK    6  A    between atoms: O1_11  and  C4_12 
REMARK    7  A    between atoms: C4_12  and  C5_13 
REMARK    8  A    between atoms: C5_13  and  C6_14 
REMARK    9  A    between atoms: C6_14  and  N4_15 
REMARK   10  A    between atoms: C6_14  and  N5_18 
REMARK   11  A    between atoms: C10_25  and  C12_27 
REMARK   12  A    between atoms: S1_32  and  C15_33 
REMARK   13  A    between atoms: C15_33  and  C16_34 
ROOT
HETATM    1  C16 UNL     1       6.569  60.261   1.543  1.00  0.00     0.017 A 
HETATM    2  C17 UNL     1       7.251  59.682   2.671  1.00  0.00     0.166 A 
HETATM    3  F1  UNL     1       8.325  60.321   3.183  1.00  0.00    -0.202 F 
HETATM    4  C18 UNL     1       6.835  58.522   3.261  1.00  0.00     0.197 A 
HETATM    5  F2  UNL     1       7.483  58.047   4.345  1.00  0.00    -0.199 F 
HETATM    6  C19 UNL     1       5.734  57.889   2.762  1.00  0.00     0.198 A 
HETATM    7  F3  UNL     1       5.256  56.747   3.333  1.00  0.00    -0.199 F 
HETATM    8  C20 UNL     1       5.073  58.446   1.665  1.00  0.00     0.179 A 
HETATM    9  F4  UNL     1       4.003  57.752   1.219  1.00  0.00    -0.201 F 
HETATM   10  C21 UNL     1       5.502  59.619   1.073  1.00  0.00     0.096 A 
HETATM   11  C22 UNL     1       4.852  60.077  -0.132  1.00  0.00     0.103 C 
HETATM   12  N8  UNL     1       4.370  60.431  -1.113  1.00  0.00    -0.191 NA
ENDROOT
BRANCH   1  13
HETATM   13  C15 UNL     1       7.245  61.493   1.064  1.00  0.00     0.113 C 
BRANCH  13  14
HETATM   14  S1  UNL     1       7.060  62.961   1.846  1.00  0.00    -0.162 SA
HETATM   15  C12 UNL     1       6.965  64.574   1.672  1.00  0.00     0.065 C 
HETATM   16  N7  UNL     1       5.745  64.979   1.731  1.00  0.00    -0.365 N 
HETATM   17  C13 UNL     1       4.740  64.071   1.856  1.00  0.00     0.071 C 
ATOM     18  H7  UNL     1       5.533  65.976   1.685  1.00  0.00     0.165 HD
HETATM   19  C14 UNL     1       5.230  62.764   2.398  1.00  0.00     0.114 C 
BRANCH  15  20
HETATM   20  C10 UNL     1       8.113  65.612   1.534  1.00  0.00     0.081 C 
HETATM   21  N5  UNL     1       8.860  65.751   2.798  1.00  0.00    -0.332 N 
HETATM   22  C7  UNL     1       8.172  66.427   3.871  1.00  0.00     0.359 C 
HETATM   23  N6  UNL     1       8.108  67.830   3.473  1.00  0.00    -0.059 N 
HETATM   24  C8  UNL     1       8.121  68.044   2.072  1.00  0.00     0.237 C 
ATOM     25  H62 UNL     1       7.297  68.282   3.894  1.00  0.00     0.279 HD
ATOM     26  H61 UNL     1       8.857  68.361   3.920  1.00  0.00     0.279 HD
HETATM   27  C9  UNL     1       7.558  66.921   1.221  1.00  0.00     0.065 C 
HETATM   28  C11 UNL     1       9.018  64.974   0.513  1.00  0.00     0.046 C 
BRANCH  21  29
HETATM   29  C6  UNL     1      10.201  65.371   2.969  1.00  0.00     0.077 C 
BRANCH  29  30
HETATM   30  C5  UNL     1      11.385  66.304   2.960  1.00  0.00     0.102 C 
BRANCH  30  31
HETATM   31  C4  UNL     1      12.163  66.030   4.254  1.00  0.00     0.186 C 
BRANCH  31  32
HETATM   32  O1  UNL     1      12.942  64.924   4.347  1.00  0.00    -0.321 OA
BRANCH  32  33
HETATM   33  C3  UNL     1      14.271  64.781   4.157  1.00  0.00     0.233 C 
BRANCH  33  34
HETATM   34  N1  UNL     1      15.271  64.995   5.171  1.00  0.00    -0.355 N 
ATOM     35  H1  UNL     1      16.182  65.385   4.928  1.00  0.00     0.163 HD
BRANCH  34  36
HETATM   36  C2  UNL     1      14.965  64.651   6.523  1.00  0.00     0.118 C 
HETATM   37  C1  UNL     1      15.912  63.501   6.889  1.00  0.00     0.026 C 
ENDBRANCH  34  36
ENDBRANCH  33  34
BRANCH  33  38
HETATM   38  N2  UNL     1      14.689  64.431   2.998  1.00  0.00    -0.272 N 
ATOM     39  H2  UNL     1      15.684  64.551   2.806  1.00  0.00     0.190 HD
BRANCH  38  40
HETATM   40  N3  UNL     1      13.938  63.922   2.018  1.00  0.00    -0.342 N 
ATOM     41  H32 UNL     1      13.423  64.597   1.454  1.00  0.00     0.176 HD
ATOM     42  H31 UNL     1      13.841  62.932   1.794  1.00  0.00     0.176 HD
ENDBRANCH  38  40
ENDBRANCH  33  38
ENDBRANCH  32  33
ENDBRANCH  31  32
ENDBRANCH  30  31
ENDBRANCH  29  30
BRANCH  29  43
HETATM   43  N4  UNL     1      10.525  64.138   3.150  1.00  0.00    -0.389 N 
ATOM     44  H42 UNL     1       9.948  63.383   2.778  1.00  0.00     0.157 HD
ATOM     45  H41 UNL     1      11.387  64.020   3.681  1.00  0.00     0.157 HD
ENDBRANCH  29  43
ENDBRANCH  21  29
ENDBRANCH  15  20
ENDBRANCH  13  14
ENDBRANCH   1  13
TORSDOF 13
ENDMDL
MODEL 4
REMARK VINA RESULT: -8.392487913      1.623      2.651
REMARK  13 active torsions:
REMARK  status: ('A' for Active; 'I' for Inactive)
REMARK    1  A    between atoms: C2_2  and  N1_3 
REMARK    2  A    between atoms: N1_3  and  C3_5 
REMARK    3  A    between atoms: C3_5  and  N2_6 
REMARK    4  A    between atoms: C3_5  and  O1_11 
REMARK    5  A    between atoms: N2_6  and  N3_8 
REMARK    6  A    between atoms: O1_11  and  C4_12 
REMARK    7  A    between atoms: C4_12  and  C5_13 
REMARK    8  A    between atoms: C5_13  and  C6_14 
REMARK    9  A    between atoms: C6_14  and  N4_15 
REMARK   10  A    between atoms: C6_14  and  N5_18 
REMARK   11  A    between atoms: C10_25  and  C12_27 
REMARK   12  A    between atoms: S1_32  and  C15_33 
REMARK   13  A    between atoms: C15_33  and  C16_34 
ROOT
HETATM    1  C16 UNL     1       5.001  60.803   1.924  1.00  0.00     0.017 A 
HETATM    2  C17 UNL     1       5.839  61.129   3.049  1.00  0.00     0.166 A 
HETATM    3  F1  UNL     1       5.982  62.425   3.402  1.00  0.00    -0.202 F 
HETATM    4  C18 UNL     1       6.475  60.173   3.789  1.00  0.00     0.197 A 
HETATM    5  F2  UNL     1       7.212  60.531   4.861  1.00  0.00    -0.199 F 
HETATM    6  C19 UNL     1       6.311  58.862   3.451  1.00  0.00     0.198 A 
HETATM    7  F3  UNL     1       6.894  57.866   4.175  1.00  0.00    -0.199 F 
HETATM    8  C20 UNL     1       5.501  58.542   2.357  1.00  0.00     0.179 A 
HETATM    9  F4  UNL     1       5.402  57.225   2.074  1.00  0.00    -0.201 F 
HETATM   10  C21 UNL     1       4.864  59.516   1.612  1.00  0.00     0.096 A 
HETATM   11  C22 UNL     1       4.143  59.131   0.422  1.00  0.00     0.103 C 
HETATM   12  N8  UNL     1       3.600  58.844  -0.549  1.00  0.00    -0.191 NA
ENDROOT
BRANCH   1  13
HETATM   13  C15 UNL     1       4.465  62.020   1.265  1.00  0.00     0.113 C 
BRANCH  13  14
HETATM   14  S1  UNL     1       5.411  62.968   0.260  1.00  0.00    -0.162 SA
HETATM   15  C12 UNL     1       6.922  63.337  -0.209  1.00  0.00     0.065 C 
HETATM   16  N7  UNL     1       7.215  62.773  -1.328  1.00  0.00    -0.365 N 
HETATM   17  C13 UNL     1       6.316  61.939  -1.916  1.00  0.00     0.071 C 
ATOM     18  H7  UNL     1       8.116  62.951  -1.771  1.00  0.00     0.165 HD
HETATM   19  C14 UNL     1       4.922  62.178  -1.422  1.00  0.00     0.114 C 
BRANCH  15  20
HETATM   20  C10 UNL     1       7.947  64.293   0.460  1.00  0.00     0.081 C 
HETATM   21  N5  UNL     1       9.149  63.561   0.900  1.00  0.00    -0.332 N 
HETATM   22  C7  UNL     1       8.983  62.693   2.041  1.00  0.00     0.359 C 
HETATM   23  N6  UNL     1       8.809  63.582   3.186  1.00  0.00    -0.059 N 
HETATM   24  C8  UNL     1       8.256  64.847   2.869  1.00  0.00     0.237 C 
ATOM     25  H62 UNL     1       8.256  63.124   3.910  1.00  0.00     0.279 HD
ATOM     26  H61 UNL     1       9.692  63.696   3.686  1.00  0.00     0.279 HD
HETATM   27  C9  UNL     1       7.357  64.895   1.647  1.00  0.00     0.065 C 
HETATM   28  C11 UNL     1       8.335  65.211  -0.670  1.00  0.00     0.046 C 
BRANCH  21  29
HETATM   29  C6  UNL     1      10.430  63.743   0.354  1.00  0.00     0.077 C 
BRANCH  29  30
HETATM   30  C5  UNL     1      11.412  64.814   0.756  1.00  0.00     0.102 C 
BRANCH  30  31
HETATM   31  C4  UNL     1      12.179  64.266   1.968  1.00  0.00     0.186 C 
BRANCH  31  32
HETATM   32  O1  UNL     1      11.753  64.563   3.220  1.00  0.00    -0.321 OA
BRANCH  32  33
HETATM   33  C3  UNL     1      12.364  65.261   4.201  1.00  0.00     0.233 C 
BRANCH  33  34
HETATM   34  N1  UNL     1      13.782  65.249   4.453  1.00  0.00    -0.355 N 
ATOM     35  H1  UNL     1      14.446  65.169   3.682  1.00  0.00     0.163 HD
BRANCH  34  36
HETATM   36  C2  UNL     1      14.242  65.351   5.802  1.00  0.00     0.118 C 
HETATM   37  C1  UNL     1      15.456  64.418   5.903  1.00  0.00     0.026 C 
ENDBRANCH  34  36
ENDBRANCH  33  34
BRANCH  33  38
HETATM   38  N2  UNL     1      11.646  65.991   4.971  1.00  0.00    -0.272 N 
ATOM     39  H2  UNL     1      11.922  66.045   5.952  1.00  0.00     0.190 HD
BRANCH  38  40
HETATM   40  N3  UNL     1      10.569  66.689   4.604  1.00  0.00    -0.342 N 
ATOM     41  H32 UNL     1      10.134  66.409   3.725  1.00  0.00     0.176 HD
ATOM     42  H31 UNL     1      10.154  67.463   5.121  1.00  0.00     0.176 HD
ENDBRANCH  38  40
ENDBRANCH  33  38
ENDBRANCH  32  33
ENDBRANCH  31  32
ENDBRANCH  30  31
ENDBRANCH  29  30
BRANCH  29  43
HETATM   43  N4  UNL     1      10.871  62.971  -0.578  1.00  0.00    -0.389 N 
ATOM     44  H42 UNL     1      11.279  63.355  -1.431  1.00  0.00     0.157 HD
ATOM     45  H41 UNL     1      10.769  61.979  -0.364  1.00  0.00     0.157 HD
ENDBRANCH  29  43
ENDBRANCH  21  29
ENDBRANCH  15  20
ENDBRANCH  13  14
ENDBRANCH   1  13
TORSDOF 13
ENDMDL
MODEL 5
REMARK VINA RESULT: -8.304877494      4.651      8.941
REMARK  13 active torsions:
REMARK  status: ('A' for Active; 'I' for Inactive)
REMARK    1  A    between atoms: C2_2  and  N1_3 
REMARK    2  A    between atoms: N1_3  and  C3_5 
REMARK    3  A    between atoms: C3_5  and  N2_6 
REMARK    4  A    between atoms: C3_5  and  O1_11 
REMARK    5  A    between atoms: N2_6  and  N3_8 
REMARK    6  A    between atoms: O1_11  and  C4_12 
REMARK    7  A    between atoms: C4_12  and  C5_13 
REMARK    8  A    between atoms: C5_13  and  C6_14 
REMARK    9  A    between atoms: C6_14  and  N4_15 
REMARK   10  A    between atoms: C6_14  and  N5_18 
REMARK   11  A    between atoms: C10_25  and  C12_27 
REMARK   12  A    between atoms: S1_32  and  C15_33 
REMARK   13  A    between atoms: C15_33  and  C16_34 
ROOT
HETATM    1  C16 UNL     1      11.934  65.836   2.809  1.00  0.00     0.017 A 
HETATM    2  C17 UNL     1      12.107  66.204   4.191  1.00  0.00     0.166 A 
HETATM    3  F1  UNL     1      11.212  67.041   4.760  1.00  0.00    -0.202 F 
HETATM    4  C18 UNL     1      13.128  65.715   4.956  1.00  0.00     0.197 A 
HETATM    5  F2  UNL     1      13.217  66.056   6.259  1.00  0.00    -0.199 F 
HETATM    6  C19 UNL     1      14.017  64.848   4.390  1.00  0.00     0.198 A 
HETATM    7  F3  UNL     1      15.034  64.305   5.116  1.00  0.00    -0.199 F 
HETATM    8  C20 UNL     1      13.855  64.493   3.049  1.00  0.00     0.179 A 
HETATM    9  F4  UNL     1      14.784  63.646   2.557  1.00  0.00    -0.201 F 
HETATM   10  C21 UNL     1      12.820  64.994   2.281  1.00  0.00     0.096 A 
HETATM   11  C22 UNL     1      12.778  64.687   0.872  1.00  0.00     0.103 C 
HETATM   12  N8  UNL     1      12.755  64.484  -0.260  1.00  0.00    -0.191 NA
ENDROOT
BRANCH   1  13
HETATM   13  C15 UNL     1      10.779  66.537   2.193  1.00  0.00     0.113 C 
BRANCH  13  14
HETATM   14  S1  UNL     1       9.235  65.891   2.229  1.00  0.00    -0.162 SA
HETATM   15  C12 UNL     1       8.272  64.744   2.858  1.00  0.00     0.065 C 
HETATM   16  N7  UNL     1       7.534  65.218   3.800  1.00  0.00    -0.365 N 
HETATM   17  C13 UNL     1       7.681  66.516   4.181  1.00  0.00     0.071 C 
ATOM     18  H7  UNL     1       6.844  64.624   4.259  1.00  0.00     0.165 HD
HETATM   19  C14 UNL     1       8.340  67.340   3.118  1.00  0.00     0.114 C 
BRANCH  15  20
HETATM   20  C10 UNL     1       8.101  63.263   2.422  1.00  0.00     0.081 C 
HETATM   21  N5  UNL     1       6.718  62.993   1.987  1.00  0.00    -0.332 N 
HETATM   22  C7  UNL     1       5.719  62.960   3.028  1.00  0.00     0.359 C 
HETATM   23  N6  UNL     1       5.979  61.737   3.782  1.00  0.00    -0.059 N 
HETATM   24  C8  UNL     1       7.327  61.301   3.747  1.00  0.00     0.237 C 
ATOM     25  H62 UNL     1       5.664  61.841   4.746  1.00  0.00     0.279 HD
ATOM     26  H61 UNL     1       5.357  60.990   3.472  1.00  0.00     0.279 HD
HETATM   27  C9  UNL     1       8.373  62.383   3.549  1.00  0.00     0.065 C 
HETATM   28  C11 UNL     1       9.006  63.163   1.222  1.00  0.00     0.046 C 
BRANCH  21  29
HETATM   29  C6  UNL     1       6.353  62.665   0.671  1.00  0.00     0.077 C 
BRANCH  29  30
HETATM   30  C5  UNL     1       6.428  61.292   0.055  1.00  0.00     0.102 C 
BRANCH  30  31
HETATM   31  C4  UNL     1       5.139  60.563   0.462  1.00  0.00     0.186 C 
BRANCH  31  32
HETATM   32  O1  UNL     1       5.089  59.209   0.405  1.00  0.00    -0.321 OA
BRANCH  32  33
HETATM   33  C3  UNL     1       4.812  58.310   1.373  1.00  0.00     0.233 C 
BRANCH  33  34
HETATM   34  N1  UNL     1       5.420  58.300   2.679  1.00  0.00    -0.355 N 
ATOM     35  H1  UNL     1       5.358  59.118   3.287  1.00  0.00     0.163 HD
BRANCH  34  36
HETATM   36  C2  UNL     1       6.112  57.126   3.108  1.00  0.00     0.118 C 
HETATM   37  C1  UNL     1       7.328  57.621   3.901  1.00  0.00     0.026 C 
ENDBRANCH  34  36
ENDBRANCH  33  34
BRANCH  33  38
HETATM   38  N2  UNL     1       3.950  57.394   1.130  1.00  0.00    -0.272 N 
ATOM     39  H2  UNL     1       3.889  56.624   1.797  1.00  0.00     0.190 HD
BRANCH  38  40
HETATM   40  N3  UNL     1       3.125  57.358   0.082  1.00  0.00    -0.342 N 
ATOM     41  H32 UNL     1       3.351  57.987  -0.687  1.00  0.00     0.176 HD
ATOM     42  H31 UNL     1       2.301  56.763  -0.009  1.00  0.00     0.176 HD
ENDBRANCH  38  40
ENDBRANCH  33  38
ENDBRANCH  32  33
ENDBRANCH  31  32
ENDBRANCH  30  31
ENDBRANCH  29  30
BRANCH  29  43
HETATM   43  N4  UNL     1       5.913  63.564  -0.140  1.00  0.00    -0.389 N 
ATOM     44  H42 UNL     1       6.053  63.480  -1.147  1.00  0.00     0.157 HD
ATOM     45  H41 UNL     1       5.428  64.329   0.330  1.00  0.00     0.157 HD
ENDBRANCH  29  43
ENDBRANCH  21  29
ENDBRANCH  15  20
ENDBRANCH  13  14
ENDBRANCH   1  13
TORSDOF 13
ENDMDL
