MODEL 1
REMARK VINA RESULT: -8.194344152      0.000      0.000
REMARK  8 active torsions:
REMARK  status: ('A' for Active; 'I' for Inactive)
REMARK    1  A    between atoms: C1_2  and  C2_4 
REMARK    2  A    between atoms: C2_4  and  C3_5 
REMARK    3  A    between atoms: C3_5  and  C4_6 
REMARK    4  A    between atoms: C4_6  and  N1_7 
REMARK    5  A    between atoms: C4_6  and  C20_32 
REMARK       I    between atoms: N1_7  and  C5_9 
REMARK    6  A    between atoms: C5_9  and  C6_11 
REMARK       I    between atoms: N2_15  and  C10_16 
REMARK    7  A    between atoms: C10_16  and  C11_18 
REMARK       I    between atoms: N3_24  and  C17_25 
REMARK    8  A    between atoms: C17_25  and  C18_27 
ROOT
HETATM    1  C6  UNL     1       7.767  63.959   3.004  1.00  0.00     0.096 C 
HETATM    2  C7  UNL     1       7.023  64.457   4.204  1.00  0.00     0.017 C 
HETATM    3  C8  UNL     1       6.015  63.474   4.695  1.00  0.00     0.021 C 
HETATM    4  C9  UNL     1       5.883  62.249   3.814  1.00  0.00     0.126 C 
HETATM    5  N2  UNL     1       7.147  61.711   3.420  1.00  0.00    -0.351 N 
HETATM    6  C10 UNL     1       7.270  60.345   3.095  1.00  0.00     0.224 C 
HETATM    7  O4  UNL     1       8.414  59.891   2.753  1.00  0.00    -0.273 OA
HETATM    8  C19 UNL     1       8.303  62.566   3.356  1.00  0.00     0.139 C 
ENDROOT
BRANCH   6   9
HETATM    9  C11 UNL     1       6.124  59.393   3.128  1.00  0.00     0.080 C 
HETATM   10  C12 UNL     1       6.658  57.974   3.134  1.00  0.00     0.016 C 
HETATM   11  C13 UNL     1       5.509  56.980   3.097  1.00  0.00     0.028 C 
HETATM   12  C14 UNL     1       4.838  57.135   1.774  1.00  0.00     0.111 A 
HETATM   13  C15 UNL     1       4.841  58.419   1.189  1.00  0.00     0.111 A 
HETATM   14  N3  UNL     1       3.569  57.768   1.659  1.00  0.00    -0.334 N 
HETATM   15  C16 UNL     1       5.200  59.631   1.959  1.00  0.00     0.041 C 
HETATM   16  C17 UNL     1       2.172  57.832   1.811  1.00  0.00     0.292 C 
HETATM   17  O5  UNL     1       1.553  58.883   1.436  1.00  0.00    -0.267 OA
BRANCH  16  18
HETATM   18  C18 UNL     1       1.430  56.717   2.388  1.00  0.00     0.336 C 
HETATM   19  F1  UNL     1       2.246  55.903   3.184  1.00  0.00    -0.196 F 
HETATM   20 CL1  UNL     1       0.056  57.227   3.385  1.00  0.00    -0.056 Cl
HETATM   21 CL2  UNL     1       0.778  55.658   1.111  1.00  0.00    -0.056 Cl
ENDBRANCH  16  18
ENDBRANCH   6   9
BRANCH   1  22
HETATM   22  C5  UNL     1       8.815  64.865   2.553  1.00  0.00     0.224 C 
HETATM   23  N1  UNL     1      10.136  64.730   3.044  1.00  0.00    -0.346 N 
ATOM     24  H1  UNL     1      10.344  63.994   3.718  1.00  0.00     0.163 HD
HETATM   25  O3  UNL     1       8.555  65.769   1.727  1.00  0.00    -0.273 OA
BRANCH  23  26
HETATM   26  C4  UNL     1      11.212  65.626   2.607  1.00  0.00     0.186 C 
BRANCH  26  27
HETATM   27  C3  UNL     1      12.325  64.718   2.157  1.00  0.00     0.046 C 
BRANCH  27  28
HETATM   28  C2  UNL     1      11.978  63.854   0.997  1.00  0.00     0.116 C 
BRANCH  28  29
HETATM   29  C1  UNL     1      11.984  64.641  -0.289  1.00  0.00     0.172 C 
HETATM   30  O1  UNL     1      13.092  64.890  -0.809  1.00  0.00    -0.648 OA
HETATM   31  O2  UNL     1      10.771  65.044  -0.830  1.00  0.00    -0.648 OA
ENDBRANCH  28  29
ENDBRANCH  27  28
ENDBRANCH  26  27
BRANCH  26  32
HETATM   32  C20 UNL     1      11.603  66.540   3.682  1.00  0.00     0.196 C 
HETATM   33  O6  UNL     1      10.769  67.426   4.053  1.00  0.00    -0.646 OA
HETATM   34  O7  UNL     1      12.802  66.527   4.332  1.00  0.00    -0.646 OA
ENDBRANCH  26  32
ENDBRANCH  23  26
ENDBRANCH   1  22
TORSDOF 8
ENDMDL
MODEL 2
REMARK VINA RESULT: -8.011836836      1.320      1.961
REMARK  8 active torsions:
REMARK  status: ('A' for Active; 'I' for Inactive)
REMARK    1  A    between atoms: C1_2  and  C2_4 
REMARK    2  A    between atoms: C2_4  and  C3_5 
REMARK    3  A    between atoms: C3_5  and  C4_6 
REMARK    4  A    between atoms: C4_6  and  N1_7 
REMARK    5  A    between atoms: C4_6  and  C20_32 
REMARK       I    between atoms: N1_7  and  C5_9 
REMARK    6  A    between atoms: C5_9  and  C6_11 
REMARK       I    between atoms: N2_15  and  C10_16 
REMARK    7  A    between atoms: C10_16  and  C11_18 
REMARK       I    between atoms: N3_24  and  C17_25 
REMARK    8  A    between atoms: C17_25  and  C18_27 
ROOT
HETATM    1  C6  UNL     1       7.519  64.072   2.928  1.00  0.00     0.096 C 
HETATM    2  C7  UNL     1       6.787  64.542   4.146  1.00  0.00     0.017 C 
HETATM    3  C8  UNL     1       5.848  63.511   4.676  1.00  0.00     0.021 C 
HETATM    4  C9  UNL     1       5.754  62.272   3.810  1.00  0.00     0.126 C 
HETATM    5  N2  UNL     1       7.033  61.798   3.381  1.00  0.00    -0.351 N 
HETATM    6  C10 UNL     1       7.219  60.438   3.064  1.00  0.00     0.224 C 
HETATM    7  O4  UNL     1       8.375  60.043   2.691  1.00  0.00    -0.273 OA
HETATM    8  C19 UNL     1       8.139  62.713   3.274  1.00  0.00     0.139 C 
ENDROOT
BRANCH   6   9
HETATM    9  C11 UNL     1       6.127  59.427   3.140  1.00  0.00     0.080 C 
HETATM   10  C12 UNL     1       6.736  58.039   3.139  1.00  0.00     0.016 C 
HETATM   11  C13 UNL     1       5.641  56.984   3.146  1.00  0.00     0.028 C 
HETATM   12  C14 UNL     1       4.922  57.092   1.843  1.00  0.00     0.111 A 
HETATM   13  C15 UNL     1       4.837  58.369   1.250  1.00  0.00     0.111 A 
HETATM   14  N3  UNL     1       3.617  57.656   1.765  1.00  0.00    -0.334 N 
HETATM   15  C16 UNL     1       5.156  59.605   2.000  1.00  0.00     0.041 C 
HETATM   16  C17 UNL     1       2.225  57.646   1.962  1.00  0.00     0.292 C 
HETATM   17  O5  UNL     1       1.538  58.661   1.599  1.00  0.00    -0.267 OA
BRANCH  16  18
HETATM   18  C18 UNL     1       1.561  56.499   2.569  1.00  0.00     0.336 C 
HETATM   19  F1  UNL     1       2.451  55.722   3.323  1.00  0.00    -0.196 F 
HETATM   20 CL1  UNL     1       0.215  56.945   3.632  1.00  0.00    -0.056 Cl
HETATM   21 CL2  UNL     1       0.899  55.412   1.321  1.00  0.00    -0.056 Cl
ENDBRANCH  16  18
ENDBRANCH   6   9
BRANCH   1  22
HETATM   22  C5  UNL     1       8.503  65.028   2.437  1.00  0.00     0.224 C 
HETATM   23  N1  UNL     1       9.424  65.627   3.330  1.00  0.00    -0.346 N 
ATOM     24  H1  UNL     1       9.389  65.383   4.319  1.00  0.00     0.163 HD
HETATM   25  O3  UNL     1       8.542  65.326   1.222  1.00  0.00    -0.273 OA
BRANCH  23  26
HETATM   26  C4  UNL     1      10.427  66.591   2.865  1.00  0.00     0.186 C 
BRANCH  26  27
HETATM   27  C3  UNL     1      11.685  66.248   3.618  1.00  0.00     0.046 C 
BRANCH  27  28
HETATM   28  C2  UNL     1      12.635  65.388   2.862  1.00  0.00     0.116 C 
BRANCH  28  29
HETATM   29  C1  UNL     1      13.816  65.001   3.717  1.00  0.00     0.172 C 
HETATM   30  O1  UNL     1      13.613  64.826   4.937  1.00  0.00    -0.648 OA
HETATM   31  O2  UNL     1      15.057  64.856   3.113  1.00  0.00    -0.648 OA
ENDBRANCH  28  29
ENDBRANCH  27  28
ENDBRANCH  26  27
BRANCH  26  32
HETATM   32  C20 UNL     1       9.974  67.966   3.082  1.00  0.00     0.196 C 
HETATM   33  O6  UNL     1       9.579  68.636   2.075  1.00  0.00    -0.646 OA
HETATM   34  O7  UNL     1       9.937  68.604   4.287  1.00  0.00    -0.646 OA
ENDBRANCH  26  32
ENDBRANCH  23  26
ENDBRANCH   1  22
TORSDOF 8
ENDMDL
MODEL 3
REMARK VINA RESULT: -7.558754333      1.727      2.804
REMARK  8 active torsions:
REMARK  status: ('A' for Active; 'I' for Inactive)
REMARK    1  A    between atoms: C1_2  and  C2_4 
REMARK    2  A    between atoms: C2_4  and  C3_5 
REMARK    3  A    between atoms: C3_5  and  C4_6 
REMARK    4  A    between atoms: C4_6  and  N1_7 
REMARK    5  A    between atoms: C4_6  and  C20_32 
REMARK       I    between atoms: N1_7  and  C5_9 
REMARK    6  A    between atoms: C5_9  and  C6_11 
REMARK       I    between atoms: N2_15  and  C10_16 
REMARK    7  A    between atoms: C10_16  and  C11_18 
REMARK       I    between atoms: N3_24  and  C17_25 
REMARK    8  A    between atoms: C17_25  and  C18_27 
ROOT
HETATM    1  C6  UNL     1       9.132  62.635   1.189  1.00  0.00     0.096 C 
HETATM    2  C7  UNL     1       8.319  63.042  -0.001  1.00  0.00     0.017 C 
HETATM    3  C8  UNL     1       7.045  62.274  -0.107  1.00  0.00     0.021 C 
HETATM    4  C9  UNL     1       6.907  61.181   0.932  1.00  0.00     0.126 C 
HETATM    5  N2  UNL     1       7.273  61.615   2.244  1.00  0.00    -0.351 N 
HETATM    6  C10 UNL     1       6.724  60.988   3.381  1.00  0.00     0.224 C 
HETATM    7  O4  UNL     1       7.064  61.403   4.540  1.00  0.00    -0.273 OA
HETATM    8  C19 UNL     1       8.204  62.699   2.408  1.00  0.00     0.139 C 
ENDROOT
BRANCH   6   9
HETATM    9  C11 UNL     1       5.760  59.855   3.301  1.00  0.00     0.080 C 
HETATM   10  C12 UNL     1       6.502  58.599   2.888  1.00  0.00     0.016 C 
HETATM   11  C13 UNL     1       5.531  57.441   2.730  1.00  0.00     0.028 C 
HETATM   12  C14 UNL     1       4.648  57.766   1.573  1.00  0.00     0.111 A 
HETATM   13  C15 UNL     1       4.359  59.126   1.335  1.00  0.00     0.111 A 
HETATM   14  N3  UNL     1       3.293  58.156   1.766  1.00  0.00    -0.334 N 
HETATM   15  C16 UNL     1       4.640  60.175   2.342  1.00  0.00     0.041 C 
HETATM   16  C17 UNL     1       1.944  57.918   2.085  1.00  0.00     0.292 C 
HETATM   17  O5  UNL     1       1.117  58.892   2.060  1.00  0.00    -0.267 OA
BRANCH  16  18
HETATM   18  C18 UNL     1       1.483  56.582   2.441  1.00  0.00     0.336 C 
HETATM   19  F1  UNL     1       2.505  55.812   3.011  1.00  0.00    -0.196 F 
HETATM   20 CL1  UNL     1       0.124  56.585   3.579  1.00  0.00    -0.056 Cl
HETATM   21 CL2  UNL     1       0.946  55.688   0.995  1.00  0.00    -0.056 Cl
ENDBRANCH  16  18
ENDBRANCH   6   9
BRANCH   1  22
HETATM   22  C5  UNL     1      10.342  63.426   1.363  1.00  0.00     0.224 C 
HETATM   23  N1  UNL     1      10.353  64.530   2.249  1.00  0.00    -0.346 N 
ATOM     24  H1  UNL     1       9.503  64.765   2.762  1.00  0.00     0.163 HD
HETATM   25  O3  UNL     1      11.383  63.135   0.731  1.00  0.00    -0.273 OA
BRANCH  23  26
HETATM   26  C4  UNL     1      11.558  65.344   2.447  1.00  0.00     0.186 C 
BRANCH  26  27
HETATM   27  C3  UNL     1      12.336  64.643   3.528  1.00  0.00     0.046 C 
BRANCH  27  28
HETATM   28  C2  UNL     1      13.794  64.940   3.523  1.00  0.00     0.116 C 
BRANCH  28  29
HETATM   29  C1  UNL     1      14.325  65.086   4.927  1.00  0.00     0.172 C 
HETATM   30  O1  UNL     1      13.493  65.129   5.857  1.00  0.00    -0.648 OA
HETATM   31  O2  UNL     1      15.698  65.163   5.116  1.00  0.00    -0.648 OA
ENDBRANCH  28  29
ENDBRANCH  27  28
ENDBRANCH  26  27
BRANCH  26  32
HETATM   32  C20 UNL     1      11.208  66.725   2.782  1.00  0.00     0.196 C 
HETATM   33  O6  UNL     1      10.318  67.308   2.082  1.00  0.00    -0.646 OA
HETATM   34  O7  UNL     1      11.760  67.457   3.792  1.00  0.00    -0.646 OA
ENDBRANCH  26  32
ENDBRANCH  23  26
ENDBRANCH   1  22
TORSDOF 8
ENDMDL
MODEL 4
REMARK VINA RESULT: -7.488234862      4.246      6.391
REMARK  8 active torsions:
REMARK  status: ('A' for Active; 'I' for Inactive)
REMARK    1  A    between atoms: C1_2  and  C2_4 
REMARK    2  A    between atoms: C2_4  and  C3_5 
REMARK    3  A    between atoms: C3_5  and  C4_6 
REMARK    4  A    between atoms: C4_6  and  N1_7 
REMARK    5  A    between atoms: C4_6  and  C20_32 
REMARK       I    between atoms: N1_7  and  C5_9 
REMARK    6  A    between atoms: C5_9  and  C6_11 
REMARK       I    between atoms: N2_15  and  C10_16 
REMARK    7  A    between atoms: C10_16  and  C11_18 
REMARK       I    between atoms: N3_24  and  C17_25 
REMARK    8  A    between atoms: C17_25  and  C18_27 
ROOT
HETATM    1  C6  UNL     1       8.886  62.494   2.534  1.00  0.00     0.096 C 
HETATM    2  C7  UNL     1       8.317  61.207   2.023  1.00  0.00     0.017 C 
HETATM    3  C8  UNL     1       6.967  60.919   2.590  1.00  0.00     0.021 C 
HETATM    4  C9  UNL     1       6.522  61.920   3.636  1.00  0.00     0.126 C 
HETATM    5  N2  UNL     1       6.766  63.274   3.246  1.00  0.00    -0.351 N 
HETATM    6  C10 UNL     1       5.978  64.319   3.768  1.00  0.00     0.224 C 
HETATM    7  O4  UNL     1       6.214  65.517   3.394  1.00  0.00    -0.273 OA
HETATM    8  C19 UNL     1       7.820  63.574   2.314  1.00  0.00     0.139 C 
ENDROOT
BRANCH   6   9
HETATM    9  C11 UNL     1       4.872  64.097   4.742  1.00  0.00     0.080 C 
HETATM   10  C12 UNL     1       3.567  63.946   3.986  1.00  0.00     0.016 C 
HETATM   11  C13 UNL     1       2.410  63.788   4.959  1.00  0.00     0.028 C 
HETATM   12  C14 UNL     1       2.282  65.077   5.699  1.00  0.00     0.111 A 
HETATM   13  C15 UNL     1       3.461  65.817   5.928  1.00  0.00     0.111 A 
HETATM   14  N3  UNL     1       2.689  65.191   7.058  1.00  0.00    -0.334 N 
HETATM   15  C16 UNL     1       4.806  65.227   5.739  1.00  0.00     0.041 C 
HETATM   16  C17 UNL     1       2.555  64.963   8.439  1.00  0.00     0.292 C 
HETATM   17  O5  UNL     1       3.438  65.428   9.236  1.00  0.00    -0.267 OA
BRANCH  16  18
HETATM   18  C18 UNL     1       1.425  64.207   8.968  1.00  0.00     0.336 C 
HETATM   19  F1  UNL     1       1.568  63.945  10.336  1.00  0.00    -0.196 F 
HETATM   20 CL1  UNL     1      -0.133  65.021   8.744  1.00  0.00    -0.056 Cl
HETATM   21 CL2  UNL     1       1.298  62.616   8.175  1.00  0.00    -0.056 Cl
ENDBRANCH  16  18
ENDBRANCH   6   9
BRANCH   1  22
HETATM   22  C5  UNL     1      10.167  62.840   1.933  1.00  0.00     0.224 C 
HETATM   23  N1  UNL     1      10.972  63.856   2.502  1.00  0.00    -0.346 N 
ATOM     24  H1  UNL     1      10.643  64.343   3.336  1.00  0.00     0.163 HD
HETATM   25  O3  UNL     1      10.567  62.241   0.909  1.00  0.00    -0.273 OA
BRANCH  23  26
HETATM   26  C4  UNL     1      12.267  64.225   1.920  1.00  0.00     0.186 C 
BRANCH  26  27
HETATM   27  C3  UNL     1      12.918  65.122   2.939  1.00  0.00     0.046 C 
BRANCH  27  28
HETATM   28  C2  UNL     1      14.214  64.614   3.464  1.00  0.00     0.116 C 
BRANCH  28  29
HETATM   29  C1  UNL     1      14.406  65.000   4.909  1.00  0.00     0.172 C 
HETATM   30  O1  UNL     1      15.576  65.153   5.315  1.00  0.00    -0.648 OA
HETATM   31  O2  UNL     1      13.284  65.167   5.709  1.00  0.00    -0.648 OA
ENDBRANCH  28  29
ENDBRANCH  27  28
ENDBRANCH  26  27
BRANCH  26  32
HETATM   32  C20 UNL     1      12.094  64.858   0.613  1.00  0.00     0.196 C 
HETATM   33  O6  UNL     1      11.074  65.599   0.432  1.00  0.00    -0.646 OA
HETATM   34  O7  UNL     1      12.939  64.723  -0.449  1.00  0.00    -0.646 OA
ENDBRANCH  26  32
ENDBRANCH  23  26
ENDBRANCH   1  22
TORSDOF 8
ENDMDL
MODEL 5
REMARK VINA RESULT: -7.431486099      1.744      2.026
REMARK  8 active torsions:
REMARK  status: ('A' for Active; 'I' for Inactive)
REMARK    1  A    between atoms: C1_2  and  C2_4 
REMARK    2  A    between atoms: C2_4  and  C3_5 
REMARK    3  A    between atoms: C3_5  and  C4_6 
REMARK    4  A    between atoms: C4_6  and  N1_7 
REMARK    5  A    between atoms: C4_6  and  C20_32 
REMARK       I    between atoms: N1_7  and  C5_9 
REMARK    6  A    between atoms: C5_9  and  C6_11 
REMARK       I    between atoms: N2_15  and  C10_16 
REMARK    7  A    between atoms: C10_16  and  C11_18 
REMARK       I    between atoms: N3_24  and  C17_25 
REMARK    8  A    between atoms: C17_25  and  C18_27 
ROOT
HETATM    1  C6  UNL     1       8.465  64.516   2.290  1.00  0.00     0.096 C 
HETATM    2  C7  UNL     1       7.677  65.206   3.360  1.00  0.00     0.017 C 
HETATM    3  C8  UNL     1       6.423  64.475   3.701  1.00  0.00     0.021 C 
HETATM    4  C9  UNL     1       6.163  63.271   2.821  1.00  0.00     0.126 C 
HETATM    5  N2  UNL     1       7.328  62.465   2.627  1.00  0.00    -0.351 N 
HETATM    6  C10 UNL     1       7.205  61.092   2.336  1.00  0.00     0.224 C 
HETATM    7  O4  UNL     1       8.264  60.396   2.176  1.00  0.00    -0.273 OA
HETATM    8  C19 UNL     1       8.635  63.057   2.731  1.00  0.00     0.139 C 
ENDROOT
BRANCH   6   9
HETATM    9  C11 UNL     1       5.891  60.402   2.204  1.00  0.00     0.080 C 
HETATM   10  C12 UNL     1       6.028  58.974   2.692  1.00  0.00     0.016 C 
HETATM   11  C13 UNL     1       4.720  58.224   2.504  1.00  0.00     0.028 C 
HETATM   12  C14 UNL     1       4.488  58.110   1.034  1.00  0.00     0.111 A 
HETATM   13  C15 UNL     1       4.970  59.154   0.216  1.00  0.00     0.111 A 
HETATM   14  N3  UNL     1       3.497  58.894   0.380  1.00  0.00    -0.334 N 
HETATM   15  C16 UNL     1       5.403  60.454   0.777  1.00  0.00     0.041 C 
HETATM   16  C17 UNL     1       2.173  59.239   0.054  1.00  0.00     0.292 C 
HETATM   17  O5  UNL     1       1.961  60.232  -0.721  1.00  0.00    -0.267 OA
BRANCH  16  18
HETATM   18  C18 UNL     1       1.048  58.481   0.589  1.00  0.00     0.336 C 
HETATM   19  F1  UNL     1      -0.168  58.883   0.021  1.00  0.00    -0.196 F 
HETATM   20 CL1  UNL     1       1.197  56.732   0.341  1.00  0.00    -0.056 Cl
HETATM   21 CL2  UNL     1       0.880  58.744   2.344  1.00  0.00    -0.056 Cl
ENDBRANCH  16  18
ENDBRANCH   6   9
BRANCH   1  22
HETATM   22  C5  UNL     1       9.736  65.164   1.995  1.00  0.00     0.224 C 
HETATM   23  N1  UNL     1      10.955  64.478   2.208  1.00  0.00    -0.346 N 
ATOM     24  H1  UNL     1      10.933  63.525   2.572  1.00  0.00     0.163 HD
HETATM   25  O3  UNL     1       9.759  66.334   1.550  1.00  0.00    -0.273 OA
BRANCH  23  26
HETATM   26  C4  UNL     1      12.250  65.104   1.918  1.00  0.00     0.186 C 
BRANCH  26  27
HETATM   27  C3  UNL     1      12.787  64.367   0.721  1.00  0.00     0.046 C 
BRANCH  27  28
HETATM   28  C2  UNL     1      12.330  64.910  -0.587  1.00  0.00     0.116 C 
BRANCH  28  29
HETATM   29  C1  UNL     1      11.228  64.062  -1.173  1.00  0.00     0.172 C 
HETATM   30  O1  UNL     1      11.046  62.930  -0.679  1.00  0.00    -0.648 OA
HETATM   31  O2  UNL     1      10.477  64.576  -2.221  1.00  0.00    -0.648 OA
ENDBRANCH  28  29
ENDBRANCH  27  28
ENDBRANCH  26  27
BRANCH  26  32
HETATM   32  C20 UNL     1      13.133  65.045   3.084  1.00  0.00     0.196 C 
HETATM   33  O6  UNL     1      12.603  64.955   4.238  1.00  0.00    -0.646 OA
HETATM   34  O7  UNL     1      14.496  65.081   3.044  1.00  0.00    -0.646 OA
ENDBRANCH  26  32
ENDBRANCH  23  26
ENDBRANCH   1  22
TORSDOF 8
ENDMDL
