MODEL 1
REMARK VINA RESULT: -8.914902840      0.000      0.000
REMARK  8 active torsions:
REMARK  status: ('A' for Active; 'I' for Inactive)
REMARK    1  A    between atoms: N1_2  and  C2_5 
REMARK    2  A    between atoms: C2_5  and  C3_6 
REMARK    3  A    between atoms: C3_6  and  N2_7 
REMARK    4  A    between atoms: C6_10  and  C7_11 
REMARK    5  A    between atoms: C7_11  and  C8_12 
REMARK    6  A    between atoms: C8_12  and  N3_13 
REMARK    7  A    between atoms: N5_28  and  S1_29 
REMARK    8  A    between atoms: S1_29  and  C19_32 
ROOT
HETATM    1  N3  UNL     1       8.422  64.686   1.651  1.00  0.00     0.092 N 
HETATM    2  C9  UNL     1       7.174  64.887   1.053  1.00  0.00     0.318 C 
HETATM    3  C10 UNL     1       6.447  63.537   1.065  1.00  0.00     0.164 C 
HETATM    4  F1  UNL     1       5.130  63.840   1.385  1.00  0.00    -0.238 F 
HETATM    5  C11 UNL     1       6.531  62.942  -0.294  1.00  0.00     0.280 C 
HETATM    6  N4  UNL     1       6.397  61.513  -0.368  1.00  0.00    -0.050 N 
ATOM      7  H41 UNL     1       7.106  61.121  -0.988  1.00  0.00     0.279 HD
ATOM      8  H42 UNL     1       5.555  61.261  -0.885  1.00  0.00     0.279 HD
HETATM    9  C12 UNL     1       6.421  60.843   0.915  1.00  0.00     0.304 C 
HETATM   10  C13 UNL     1       7.620  61.461   1.630  1.00  0.00     0.051 C 
HETATM   11  C14 UNL     1       8.149  60.531   2.656  1.00  0.00     0.009 C 
HETATM   12  C15 UNL     1       7.500  60.568   3.993  1.00  0.00     0.001 C 
HETATM   13  C16 UNL     1       6.950  61.899   4.398  1.00  0.00     0.011 C 
HETATM   14  C17 UNL     1       6.161  62.462   3.239  1.00  0.00     0.039 C 
HETATM   15  C18 UNL     1       5.093  61.539   2.829  1.00  0.00     0.084 C 
HETATM   16  N5  UNL     1       5.230  60.838   1.624  1.00  0.00    -0.251 N 
HETATM   17  C20 UNL     1       7.153  62.798   2.143  1.00  0.00     0.041 C 
HETATM   18  C21 UNL     1       8.211  63.664   2.681  1.00  0.00     0.286 C 
ENDROOT
BRANCH   1  19
HETATM   19  C8  UNL     1       9.161  65.771   2.171  1.00  0.00     0.273 C 
BRANCH  19  20
HETATM   20  C7  UNL     1      10.605  65.885   1.975  1.00  0.00     0.035 C 
BRANCH  20  21
HETATM   21  C6  UNL     1      11.536  65.010   2.738  1.00  0.00    -0.010 C 
HETATM   22  C5  UNL     1      12.944  65.235   2.139  1.00  0.00     0.035 C 
HETATM   23  C4  UNL     1      13.865  64.448   3.053  1.00  0.00     0.273 C 
HETATM   24  N2  UNL     1      14.136  65.280   4.223  1.00  0.00     0.090 N 
HETATM   25  C23 UNL     1      12.946  66.022   4.588  1.00  0.00     0.273 C 
HETATM   26  C22 UNL     1      11.662  65.381   4.191  1.00  0.00     0.035 C 
BRANCH  24  27
HETATM   27  C3  UNL     1      14.754  64.549   5.273  1.00  0.00     0.299 C 
BRANCH  27  28
HETATM   28  C2  UNL     1      14.365  64.946   6.658  1.00  0.00     0.262 C 
BRANCH  28  29
HETATM   29  N1  UNL     1      15.411  64.583   7.626  1.00  0.00    -0.077 N 
HETATM   30  C1  UNL     1      16.159  63.434   7.166  1.00  0.00     0.267 C 
ATOM     31  H12 UNL     1      15.027  64.434   8.559  1.00  0.00     0.276 HD
ATOM     32  H11 UNL     1      16.022  65.372   7.836  1.00  0.00     0.276 HD
ENDBRANCH  28  29
ENDBRANCH  27  28
ENDBRANCH  24  27
ENDBRANCH  20  21
ENDBRANCH  19  20
ENDBRANCH   1  19
BRANCH  16  33
HETATM   33  S1  UNL     1       4.136  59.604   1.325  1.00  0.00     0.337 S 
HETATM   34  O1  UNL     1       4.103  59.347  -0.179  1.00  0.00    -0.196 OA
HETATM   35  O2  UNL     1       2.717  59.969   1.760  1.00  0.00    -0.196 OA
BRANCH  33  36
HETATM   36  C19 UNL     1       4.483  58.047   2.062  1.00  0.00     0.517 C 
HETATM   37  F2  UNL     1       3.374  57.329   2.413  1.00  0.00    -0.155 F 
HETATM   38  F3  UNL     1       5.271  57.236   1.275  1.00  0.00    -0.155 F 
HETATM   39  F4  UNL     1       5.219  58.219   3.243  1.00  0.00    -0.155 F 
ENDBRANCH  33  36
ENDBRANCH  16  33
TORSDOF 8
ENDMDL
MODEL 2
REMARK VINA RESULT: -8.774586067      0.628      1.021
REMARK  8 active torsions:
REMARK  status: ('A' for Active; 'I' for Inactive)
REMARK    1  A    between atoms: N1_2  and  C2_5 
REMARK    2  A    between atoms: C2_5  and  C3_6 
REMARK    3  A    between atoms: C3_6  and  N2_7 
REMARK    4  A    between atoms: C6_10  and  C7_11 
REMARK    5  A    between atoms: C7_11  and  C8_12 
REMARK    6  A    between atoms: C8_12  and  N3_13 
REMARK    7  A    between atoms: N5_28  and  S1_29 
REMARK    8  A    between atoms: S1_29  and  C19_32 
ROOT
HETATM    1  N3  UNL     1       8.728  64.376   1.743  1.00  0.00     0.092 N 
HETATM    2  C9  UNL     1       7.472  64.773   1.271  1.00  0.00     0.318 C 
HETATM    3  C10 UNL     1       6.591  63.518   1.228  1.00  0.00     0.164 C 
HETATM    4  F1  UNL     1       5.347  63.936   1.682  1.00  0.00    -0.238 F 
HETATM    5  C11 UNL     1       6.503  63.051  -0.181  1.00  0.00     0.280 C 
HETATM    6  N4  UNL     1       6.194  61.660  -0.367  1.00  0.00    -0.050 N 
ATOM      7  H41 UNL     1       6.803  61.251  -1.076  1.00  0.00     0.279 HD
ATOM      8  H42 UNL     1       5.292  61.556  -0.831  1.00  0.00     0.279 HD
HETATM    9  C12 UNL     1       6.232  60.871   0.847  1.00  0.00     0.304 C 
HETATM   10  C13 UNL     1       7.546  61.279   1.510  1.00  0.00     0.051 C 
HETATM   11  C14 UNL     1       8.033  60.201   2.403  1.00  0.00     0.009 C 
HETATM   12  C15 UNL     1       7.492  60.182   3.788  1.00  0.00     0.001 C 
HETATM   13  C16 UNL     1       7.137  61.522   4.351  1.00  0.00     0.011 C 
HETATM   14  C17 UNL     1       6.338  62.278   3.316  1.00  0.00     0.039 C 
HETATM   15  C18 UNL     1       5.140  61.526   2.918  1.00  0.00     0.084 C 
HETATM   16  N5  UNL     1       5.103  60.932   1.650  1.00  0.00    -0.251 N 
HETATM   17  C20 UNL     1       7.280  62.605   2.174  1.00  0.00     0.041 C 
HETATM   18  C21 UNL     1       8.471  63.290   2.694  1.00  0.00     0.286 C 
ENDROOT
BRANCH   1  19
HETATM   19  C8  UNL     1       9.627  65.316   2.292  1.00  0.00     0.273 C 
BRANCH  19  20
HETATM   20  C7  UNL     1      10.948  65.550   1.709  1.00  0.00     0.035 C 
BRANCH  20  21
HETATM   21  C6  UNL     1      12.081  65.977   2.573  1.00  0.00    -0.010 C 
HETATM   22  C5  UNL     1      11.674  65.648   4.029  1.00  0.00     0.035 C 
HETATM   23  C4  UNL     1      12.920  65.952   4.840  1.00  0.00     0.273 C 
HETATM   24  N2  UNL     1      13.805  64.794   4.734  1.00  0.00     0.090 N 
HETATM   25  C23 UNL     1      13.729  64.234   3.399  1.00  0.00     0.273 C 
HETATM   26  C22 UNL     1      13.350  65.204   2.334  1.00  0.00     0.035 C 
BRANCH  24  27
HETATM   27  C3  UNL     1      15.113  65.069   5.216  1.00  0.00     0.299 C 
BRANCH  27  28
HETATM   28  C2  UNL     1      15.460  64.464   6.535  1.00  0.00     0.262 C 
BRANCH  28  29
HETATM   29  N1  UNL     1      15.539  62.998   6.441  1.00  0.00    -0.077 N 
HETATM   30  C1  UNL     1      16.823  62.524   6.907  1.00  0.00     0.267 C 
ATOM     31  H12 UNL     1      15.335  62.669   5.498  1.00  0.00     0.276 HD
ATOM     32  H11 UNL     1      14.768  62.546   6.932  1.00  0.00     0.276 HD
ENDBRANCH  28  29
ENDBRANCH  27  28
ENDBRANCH  24  27
ENDBRANCH  20  21
ENDBRANCH  19  20
ENDBRANCH   1  19
BRANCH  16  33
HETATM   33  S1  UNL     1       3.851  59.864   1.338  1.00  0.00     0.337 S 
HETATM   34  O1  UNL     1       3.647  59.793  -0.173  1.00  0.00    -0.196 OA
HETATM   35  O2  UNL     1       2.530  60.321   1.958  1.00  0.00    -0.196 OA
BRANCH  33  36
HETATM   36  C19 UNL     1       4.083  58.203   1.861  1.00  0.00     0.517 C 
HETATM   37  F2  UNL     1       2.929  57.550   2.194  1.00  0.00    -0.155 F 
HETATM   38  F3  UNL     1       4.745  57.427   0.934  1.00  0.00    -0.155 F 
HETATM   39  F4  UNL     1       4.893  58.159   3.005  1.00  0.00    -0.155 F 
ENDBRANCH  33  36
ENDBRANCH  16  33
TORSDOF 8
ENDMDL
MODEL 3
REMARK VINA RESULT: -8.374265175      1.492      1.781
REMARK  8 active torsions:
REMARK  status: ('A' for Active; 'I' for Inactive)
REMARK    1  A    between atoms: N1_2  and  C2_5 
REMARK    2  A    between atoms: C2_5  and  C3_6 
REMARK    3  A    between atoms: C3_6  and  N2_7 
REMARK    4  A    between atoms: C6_10  and  C7_11 
REMARK    5  A    between atoms: C7_11  and  C8_12 
REMARK    6  A    between atoms: C8_12  and  N3_13 
REMARK    7  A    between atoms: N5_28  and  S1_29 
REMARK    8  A    between atoms: S1_29  and  C19_32 
ROOT
HETATM    1  N3  UNL     1       9.968  63.042   0.828  1.00  0.00     0.092 N 
HETATM    2  C9  UNL     1       8.991  63.917   0.341  1.00  0.00     0.318 C 
HETATM    3  C10 UNL     1       7.629  63.267   0.616  1.00  0.00     0.164 C 
HETATM    4  F1  UNL     1       6.809  64.310   1.027  1.00  0.00    -0.238 F 
HETATM    5  C11 UNL     1       7.125  62.673  -0.649  1.00  0.00     0.280 C 
HETATM    6  N4  UNL     1       6.175  61.604  -0.511  1.00  0.00    -0.050 N 
ATOM      7  H41 UNL     1       6.409  60.836  -1.142  1.00  0.00     0.279 HD
ATOM      8  H42 UNL     1       5.272  61.878  -0.898  1.00  0.00     0.279 HD
HETATM    9  C12 UNL     1       6.018  61.115   0.843  1.00  0.00     0.304 C 
HETATM   10  C13 UNL     1       7.452  60.932   1.336  1.00  0.00     0.051 C 
HETATM   11  C14 UNL     1       7.502  59.921   2.420  1.00  0.00     0.009 C 
HETATM   12  C15 UNL     1       7.229  60.404   3.799  1.00  0.00     0.001 C 
HETATM   13  C16 UNL     1       7.631  61.819   4.071  1.00  0.00     0.011 C 
HETATM   14  C17 UNL     1       7.137  62.682   2.935  1.00  0.00     0.039 C 
HETATM   15  C18 UNL     1       5.682  62.558   2.770  1.00  0.00     0.084 C 
HETATM   16  N5  UNL     1       5.184  61.855   1.666  1.00  0.00    -0.251 N 
HETATM   17  C20 UNL     1       7.941  62.308   1.705  1.00  0.00     0.041 C 
HETATM   18  C21 UNL     1       9.376  62.399   2.005  1.00  0.00     0.286 C 
ENDROOT
BRANCH   1  19
HETATM   19  C8  UNL     1      11.273  63.498   1.113  1.00  0.00     0.273 C 
BRANCH  19  20
HETATM   20  C7  UNL     1      11.646  64.905   0.973  1.00  0.00     0.035 C 
BRANCH  20  21
HETATM   21  C6  UNL     1      12.175  65.659   2.142  1.00  0.00    -0.010 C 
HETATM   22  C5  UNL     1      11.308  65.253   3.358  1.00  0.00     0.035 C 
HETATM   23  C4  UNL     1      11.990  65.920   4.538  1.00  0.00     0.273 C 
HETATM   24  N2  UNL     1      13.105  65.067   4.940  1.00  0.00     0.090 N 
HETATM   25  C23 UNL     1      13.729  64.485   3.768  1.00  0.00     0.273 C 
HETATM   26  C22 UNL     1      13.583  65.283   2.519  1.00  0.00     0.035 C 
BRANCH  24  27
HETATM   27  C3  UNL     1      13.983  65.719   5.847  1.00  0.00     0.299 C 
BRANCH  27  28
HETATM   28  C2  UNL     1      14.013  65.165   7.233  1.00  0.00     0.262 C 
BRANCH  28  29
HETATM   29  N1  UNL     1      15.375  64.756   7.610  1.00  0.00    -0.077 N 
HETATM   30  C1  UNL     1      15.795  63.605   6.842  1.00  0.00     0.267 C 
ATOM     31  H12 UNL     1      15.455  64.590   8.613  1.00  0.00     0.276 HD
ATOM     32  H11 UNL     1      16.037  65.527   7.528  1.00  0.00     0.276 HD
ENDBRANCH  28  29
ENDBRANCH  27  28
ENDBRANCH  24  27
ENDBRANCH  20  21
ENDBRANCH  19  20
ENDBRANCH   1  19
BRANCH  16  33
HETATM   33  S1  UNL     1       3.546  61.502   1.656  1.00  0.00     0.337 S 
HETATM   34  O1  UNL     1       2.947  62.038   0.358  1.00  0.00    -0.196 OA
HETATM   35  O2  UNL     1       2.801  62.166   2.814  1.00  0.00    -0.196 OA
BRANCH  33  36
HETATM   36  C19 UNL     1       3.106  59.802   1.710  1.00  0.00     0.517 C 
HETATM   37  F2  UNL     1       1.877  59.554   2.256  1.00  0.00    -0.155 F 
HETATM   38  F3  UNL     1       3.141  59.190   0.476  1.00  0.00    -0.155 F 
HETATM   39  F4  UNL     1       4.024  59.083   2.489  1.00  0.00    -0.155 F 
ENDBRANCH  33  36
ENDBRANCH  16  33
TORSDOF 8
ENDMDL
MODEL 4
REMARK VINA RESULT: -8.283767043      1.253      1.800
REMARK  8 active torsions:
REMARK  status: ('A' for Active; 'I' for Inactive)
REMARK    1  A    between atoms: N1_2  and  C2_5 
REMARK    2  A    between atoms: C2_5  and  C3_6 
REMARK    3  A    between atoms: C3_6  and  N2_7 
REMARK    4  A    between atoms: C6_10  and  C7_11 
REMARK    5  A    between atoms: C7_11  and  C8_12 
REMARK    6  A    between atoms: C8_12  and  N3_13 
REMARK    7  A    between atoms: N5_28  and  S1_29 
REMARK    8  A    between atoms: S1_29  and  C19_32 
ROOT
HETATM    1  N3  UNL     1       9.187  64.753   2.190  1.00  0.00     0.092 N 
HETATM    2  C9  UNL     1       9.077  64.070   0.974  1.00  0.00     0.318 C 
HETATM    3  C10 UNL     1       8.092  62.915   1.195  1.00  0.00     0.164 C 
HETATM    4  F1  UNL     1       7.318  62.875   0.042  1.00  0.00    -0.238 F 
HETATM    5  C11 UNL     1       8.867  61.656   1.348  1.00  0.00     0.280 C 
HETATM    6  N4  UNL     1       8.214  60.595   2.065  1.00  0.00    -0.050 N 
ATOM      7  H41 UNL     1       8.857  60.169   2.734  1.00  0.00     0.279 HD
ATOM      8  H42 UNL     1       8.050  59.799   1.450  1.00  0.00     0.279 HD
HETATM    9  C12 UNL     1       6.986  60.987   2.724  1.00  0.00     0.304 C 
HETATM   10  C13 UNL     1       7.351  62.283   3.444  1.00  0.00     0.051 C 
HETATM   11  C14 UNL     1       6.453  62.504   4.603  1.00  0.00     0.009 C 
HETATM   12  C15 UNL     1       5.157  63.177   4.327  1.00  0.00     0.001 C 
HETATM   13  C16 UNL     1       5.173  64.152   3.192  1.00  0.00     0.011 C 
HETATM   14  C17 UNL     1       5.870  63.506   2.018  1.00  0.00     0.039 C 
HETATM   15  C18 UNL     1       5.213  62.247   1.639  1.00  0.00     0.084 C 
HETATM   16  N5  UNL     1       5.853  61.036   1.926  1.00  0.00    -0.251 N 
HETATM   17  C20 UNL     1       7.333  63.360   2.391  1.00  0.00     0.041 C 
HETATM   18  C21 UNL     1       7.866  64.660   2.820  1.00  0.00     0.286 C 
ENDROOT
BRANCH   1  19
HETATM   19  C8  UNL     1       9.668  66.079   2.236  1.00  0.00     0.273 C 
BRANCH  19  20
HETATM   20  C7  UNL     1      11.024  66.393   2.683  1.00  0.00     0.035 C 
BRANCH  20  21
HETATM   21  C6  UNL     1      11.885  65.327   3.264  1.00  0.00    -0.010 C 
HETATM   22  C5  UNL     1      13.267  65.455   2.582  1.00  0.00     0.035 C 
HETATM   23  C4  UNL     1      14.140  64.459   3.323  1.00  0.00     0.273 C 
HETATM   24  N2  UNL     1      14.591  65.104   4.554  1.00  0.00     0.090 N 
HETATM   25  C23 UNL     1      13.532  65.931   5.096  1.00  0.00     0.273 C 
HETATM   26  C22 UNL     1      12.153  65.500   4.735  1.00  0.00     0.035 C 
BRANCH  24  27
HETATM   27  C3  UNL     1      15.180  64.182   5.461  1.00  0.00     0.299 C 
BRANCH  27  28
HETATM   28  C2  UNL     1      14.993  64.486   6.910  1.00  0.00     0.262 C 
BRANCH  28  29
HETATM   29  N1  UNL     1      16.111  63.962   7.710  1.00  0.00    -0.077 N 
HETATM   30  C1  UNL     1      16.661  62.771   7.103  1.00  0.00     0.267 C 
ATOM     31  H12 UNL     1      15.838  63.801   8.679  1.00  0.00     0.276 HD
ATOM     32  H11 UNL     1      16.827  64.671   7.868  1.00  0.00     0.276 HD
ENDBRANCH  28  29
ENDBRANCH  27  28
ENDBRANCH  24  27
ENDBRANCH  20  21
ENDBRANCH  19  20
ENDBRANCH   1  19
BRANCH  16  33
HETATM   33  S1  UNL     1       4.962  59.630   1.730  1.00  0.00     0.337 S 
HETATM   34  O1  UNL     1       4.981  59.252   0.251  1.00  0.00    -0.196 OA
HETATM   35  O2  UNL     1       3.499  59.809   2.139  1.00  0.00    -0.196 OA
BRANCH  33  36
HETATM   36  C19 UNL     1       5.534  58.208   2.588  1.00  0.00     0.517 C 
HETATM   37  F2  UNL     1       6.508  57.507   1.932  1.00  0.00    -0.155 F 
HETATM   38  F3  UNL     1       6.004  58.487   3.852  1.00  0.00    -0.155 F 
HETATM   39  F4  UNL     1       4.482  57.303   2.791  1.00  0.00    -0.155 F 
ENDBRANCH  33  36
ENDBRANCH  16  33
TORSDOF 8
ENDMDL
MODEL 5
REMARK VINA RESULT: -8.176417851      1.401      1.599
REMARK  8 active torsions:
REMARK  status: ('A' for Active; 'I' for Inactive)
REMARK    1  A    between atoms: N1_2  and  C2_5 
REMARK    2  A    between atoms: C2_5  and  C3_6 
REMARK    3  A    between atoms: C3_6  and  N2_7 
REMARK    4  A    between atoms: C6_10  and  C7_11 
REMARK    5  A    between atoms: C7_11  and  C8_12 
REMARK    6  A    between atoms: C8_12  and  N3_13 
REMARK    7  A    between atoms: N5_28  and  S1_29 
REMARK    8  A    between atoms: S1_29  and  C19_32 
ROOT
HETATM    1  N3  UNL     1       8.464  64.489   1.733  1.00  0.00     0.092 N 
HETATM    2  C9  UNL     1       7.212  64.797   1.189  1.00  0.00     0.318 C 
HETATM    3  C10 UNL     1       6.432  63.480   1.084  1.00  0.00     0.164 C 
HETATM    4  F1  UNL     1       5.135  63.799   1.465  1.00  0.00    -0.238 F 
HETATM    5  C11 UNL     1       6.464  63.024  -0.330  1.00  0.00     0.280 C 
HETATM    6  N4  UNL     1       6.271  61.616  -0.544  1.00  0.00    -0.050 N 
ATOM      7  H41 UNL     1       6.951  61.262  -1.217  1.00  0.00     0.279 HD
ATOM      8  H42 UNL     1       5.409  61.450  -1.062  1.00  0.00     0.279 HD
HETATM    9  C12 UNL     1       6.296  60.819   0.665  1.00  0.00     0.304 C 
HETATM   10  C13 UNL     1       7.533  61.315   1.408  1.00  0.00     0.051 C 
HETATM   11  C14 UNL     1       8.046  60.266   2.322  1.00  0.00     0.009 C 
HETATM   12  C15 UNL     1       7.427  60.192   3.672  1.00  0.00     0.001 C 
HETATM   13  C16 UNL     1       6.938  61.496   4.221  1.00  0.00     0.011 C 
HETATM   14  C17 UNL     1       6.149  62.202   3.145  1.00  0.00     0.039 C 
HETATM   15  C18 UNL     1       5.037  61.367   2.671  1.00  0.00     0.084 C 
HETATM   16  N5  UNL     1       5.120  60.786   1.399  1.00  0.00    -0.251 N 
HETATM   17  C20 UNL     1       7.130  62.610   2.064  1.00  0.00     0.041 C 
HETATM   18  C21 UNL     1       8.233  63.377   2.660  1.00  0.00     0.286 C 
ENDROOT
BRANCH   1  19
HETATM   19  C8  UNL     1       9.255  65.487   2.342  1.00  0.00     0.273 C 
BRANCH  19  20
HETATM   20  C7  UNL     1      10.685  65.615   2.061  1.00  0.00     0.035 C 
BRANCH  20  21
HETATM   21  C6  UNL     1      11.674  64.824   2.842  1.00  0.00    -0.010 C 
HETATM   22  C5  UNL     1      13.052  65.066   2.183  1.00  0.00     0.035 C 
HETATM   23  C4  UNL     1      14.033  64.372   3.109  1.00  0.00     0.273 C 
HETATM   24  N2  UNL     1      14.308  65.282   4.218  1.00  0.00     0.090 N 
HETATM   25  C23 UNL     1      13.101  65.999   4.580  1.00  0.00     0.273 C 
HETATM   26  C22 UNL     1      11.831  65.286   4.266  1.00  0.00     0.035 C 
BRANCH  24  27
HETATM   27  C3  UNL     1      14.988  64.640   5.287  1.00  0.00     0.299 C 
BRANCH  27  28
HETATM   28  C2  UNL     1      14.504  64.972   6.659  1.00  0.00     0.262 C 
BRANCH  28  29
HETATM   29  N1  UNL     1      15.460  64.522   7.682  1.00  0.00    -0.077 N 
HETATM   30  C1  UNL     1      16.237  63.402   7.200  1.00  0.00     0.267 C 
ATOM     31  H12 UNL     1      14.995  64.308   8.565  1.00  0.00     0.276 HD
ATOM     32  H11 UNL     1      16.056  65.285   8.004  1.00  0.00     0.276 HD
ENDBRANCH  28  29
ENDBRANCH  27  28
ENDBRANCH  24  27
ENDBRANCH  20  21
ENDBRANCH  19  20
ENDBRANCH   1  19
BRANCH  16  33
HETATM   33  S1  UNL     1       3.972  59.631   1.004  1.00  0.00     0.337 S 
HETATM   34  O1  UNL     1       2.762  59.826   1.915  1.00  0.00    -0.196 OA
HETATM   35  O2  UNL     1       4.485  58.207   1.220  1.00  0.00    -0.196 OA
BRANCH  33  36
HETATM   36  C19 UNL     1       3.341  59.675  -0.634  1.00  0.00     0.517 C 
HETATM   37  F2  UNL     1       2.273  58.849  -0.850  1.00  0.00    -0.155 F 
HETATM   38  F3  UNL     1       2.976  60.939  -1.044  1.00  0.00    -0.155 F 
HETATM   39  F4  UNL     1       4.326  59.276  -1.549  1.00  0.00    -0.155 F 
ENDBRANCH  33  36
ENDBRANCH  16  33
TORSDOF 8
ENDMDL
