MODEL 1
REMARK VINA RESULT: -9.036342563      0.000      0.000
REMARK  9 active torsions:
REMARK  status: ('A' for Active; 'I' for Inactive)
REMARK    1  A    between atoms: C3_3  and  C4_4 
REMARK    2  A    between atoms: C4_4  and  C5_5 
REMARK    3  A    between atoms: C5_5  and  N1_6 
REMARK    4  A    between atoms: N1_6  and  C6_8 
REMARK    5  A    between atoms: C7_11  and  N3_12 
REMARK    6  A    between atoms: C8_14  and  C9_15 
REMARK    7  A    between atoms: C16_23  and  O2_24 
REMARK    8  A    between atoms: C18_26  and  O3_27 
REMARK    9  A    between atoms: N5_35  and  C24_36 
ROOT
HETATM    1  C1  UNL     1       7.083  57.204   4.200  1.00  0.00     0.112 C 
HETATM    2  C2  UNL     1       7.077  58.596   3.725  1.00  0.00    -0.110 C 
HETATM    3  C3  UNL     1       7.062  59.734   3.321  1.00  0.00    -0.087 C 
ENDROOT
BRANCH   3   4
HETATM    4  C4  UNL     1       7.058  61.110   2.818  1.00  0.00     0.127 C 
HETATM    5  C22 UNL     1       7.292  61.056   1.330  1.00  0.00     0.052 C 
HETATM    6  C23 UNL     1       6.109  61.769   0.686  1.00  0.00     0.133 C 
HETATM    7  N5  UNL     1       5.132  61.943   1.722  1.00  0.00    -0.296 N 
HETATM    8  C25 UNL     1       5.711  61.771   3.028  1.00  0.00     0.345 C 
HETATM    9  F1  UNL     1       4.898  60.931   3.760  1.00  0.00    -0.180 F 
HETATM   10  F2  UNL     1       5.827  62.986   3.677  1.00  0.00    -0.180 F 
BRANCH   4  11
HETATM   11  C5  UNL     1       8.089  61.964   3.503  1.00  0.00     0.169 C 
BRANCH  11  12
HETATM   12  N1  UNL     1       8.857  62.761   2.579  1.00  0.00    -0.224 N 
ATOM     13  H1  UNL     1       9.104  62.412   1.653  1.00  0.00     0.177 HD
BRANCH  12  14
HETATM   14  C6  UNL     1       9.220  63.936   2.973  1.00  0.00     0.680 A 
HETATM   15  N2  UNL     1      10.441  64.111   3.424  1.00  0.00    -0.176 N 
HETATM   16  C7  UNL     1      10.976  65.285   3.877  1.00  0.00     0.133 A 
ATOM     17  H2  UNL     1      11.048  63.291   3.439  1.00  0.00     0.186 HD
HETATM   18  C14 UNL     1      10.093  66.370   3.829  1.00  0.00     0.039 A 
HETATM   19  C15 UNL     1      10.490  67.616   4.251  1.00  0.00     0.057 A 
HETATM   20  C21 UNL     1       8.808  66.223   3.362  1.00  0.00     0.066 A 
HETATM   21  C16 UNL     1       9.615  68.703   4.208  1.00  0.00     0.102 A 
HETATM   22  C18 UNL     1       8.334  68.538   3.738  1.00  0.00     0.103 A 
HETATM   23  C20 UNL     1       7.925  67.299   3.313  1.00  0.00     0.070 A 
HETATM   24  N4  UNL     1       8.397  64.993   2.939  1.00  0.00    -0.191 N 
ATOM     25  H4  UNL     1       7.445  64.874   2.591  1.00  0.00     0.184 HD
BRANCH  16  26
HETATM   26  N3  UNL     1      12.128  65.295   4.267  1.00  0.00    -0.354 N 
HETATM   27  C8  UNL     1      13.456  65.455   4.097  1.00  0.00     0.069 C 
ATOM     28  H3  UNL     1      12.045  65.052   5.254  1.00  0.00     0.166 HD
BRANCH  27  29
HETATM   29  C9  UNL     1      14.312  65.294   5.362  1.00  0.00     0.048 C 
HETATM   30  C10 UNL     1      14.852  63.877   5.319  1.00  0.00     0.014 C 
HETATM   31  C11 UNL     1      15.504  63.580   6.644  1.00  0.00     0.027 C 
HETATM   32  C12 UNL     1      15.246  64.634   7.678  1.00  0.00     0.167 C 
HETATM   33  O1  UNL     1      13.947  65.060   7.737  1.00  0.00    -0.390 OA
HETATM   34  C13 UNL     1      13.378  65.390   6.537  1.00  0.00     0.177 C 
ENDBRANCH  27  29
ENDBRANCH  16  26
BRANCH  21  35
HETATM   35  O2  UNL     1      10.084  69.926   4.648  1.00  0.00    -0.353 OA
HETATM   36  C17 UNL     1      10.540  70.894   3.733  1.00  0.00     0.210 C 
ENDBRANCH  21  35
BRANCH  22  37
HETATM   37  O3  UNL     1       7.447  69.592   3.682  1.00  0.00    -0.353 OA
HETATM   38  C19 UNL     1       7.050  70.158   2.457  1.00  0.00     0.210 C 
ENDBRANCH  22  37
ENDBRANCH  12  14
ENDBRANCH  11  12
ENDBRANCH   4  11
BRANCH   7  39
HETATM   39  C24 UNL     1       3.762  62.246   1.490  1.00  0.00     0.187 C 
HETATM   40  N6  UNL     1       3.187  63.477   1.889  1.00  0.00    -0.070 NA
HETATM   41  S1  UNL     1       2.758  61.180   0.740  1.00  0.00    -0.044 SA
ENDBRANCH   7  39
ENDBRANCH   3   4
TORSDOF 9
ENDMDL
MODEL 2
REMARK VINA RESULT: -8.948149583      1.582      1.685
REMARK  9 active torsions:
REMARK  status: ('A' for Active; 'I' for Inactive)
REMARK    1  A    between atoms: C3_3  and  C4_4 
REMARK    2  A    between atoms: C4_4  and  C5_5 
REMARK    3  A    between atoms: C5_5  and  N1_6 
REMARK    4  A    between atoms: N1_6  and  C6_8 
REMARK    5  A    between atoms: C7_11  and  N3_12 
REMARK    6  A    between atoms: C8_14  and  C9_15 
REMARK    7  A    between atoms: C16_23  and  O2_24 
REMARK    8  A    between atoms: C18_26  and  O3_27 
REMARK    9  A    between atoms: N5_35  and  C24_36 
ROOT
HETATM    1  C1  UNL     1       7.086  56.944   4.197  1.00  0.00     0.112 C 
HETATM    2  C2  UNL     1       7.179  58.343   3.753  1.00  0.00    -0.110 C 
HETATM    3  C3  UNL     1       7.273  59.492   3.395  1.00  0.00    -0.087 C 
ENDROOT
BRANCH   3   4
HETATM    4  C4  UNL     1       7.386  60.892   2.978  1.00  0.00     0.127 C 
HETATM    5  C22 UNL     1       6.438  61.106   1.826  1.00  0.00     0.052 C 
HETATM    6  C23 UNL     1       5.510  62.240   2.241  1.00  0.00     0.133 C 
HETATM    7  N5  UNL     1       5.725  62.442   3.645  1.00  0.00    -0.296 N 
HETATM    8  C25 UNL     1       6.954  61.834   4.083  1.00  0.00     0.345 C 
HETATM    9  F1  UNL     1       6.699  61.110   5.228  1.00  0.00    -0.180 F 
HETATM   10  F2  UNL     1       7.911  62.797   4.346  1.00  0.00    -0.180 F 
BRANCH   4  11
HETATM   11  C5  UNL     1       8.795  61.258   2.602  1.00  0.00     0.169 C 
BRANCH  11  12
HETATM   12  N1  UNL     1       8.855  62.250   1.558  1.00  0.00    -0.224 N 
ATOM     13  H1  UNL     1       8.688  62.005   0.582  1.00  0.00     0.177 HD
BRANCH  12  14
HETATM   14  C6  UNL     1       9.131  63.461   1.909  1.00  0.00     0.680 A 
HETATM   15  N2  UNL     1      10.317  63.730   2.405  1.00  0.00    -0.176 N 
HETATM   16  C7  UNL     1      10.762  64.954   2.823  1.00  0.00     0.133 A 
ATOM     17  H2  UNL     1      10.969  62.950   2.486  1.00  0.00     0.186 HD
HETATM   18  C14 UNL     1       9.821  65.980   2.684  1.00  0.00     0.039 A 
HETATM   19  C15 UNL     1      10.124  67.266   3.061  1.00  0.00     0.057 A 
HETATM   20  C21 UNL     1       8.569  65.735   2.168  1.00  0.00     0.066 A 
HETATM   21  C16 UNL     1       9.191  68.296   2.927  1.00  0.00     0.102 A 
HETATM   22  C18 UNL     1       7.945  68.032   2.410  1.00  0.00     0.103 A 
HETATM   23  C20 UNL     1       7.629  66.752   2.028  1.00  0.00     0.070 A 
HETATM   24  N4  UNL     1       8.251  64.464   1.788  1.00  0.00    -0.191 N 
ATOM     25  H4  UNL     1       7.325  64.273   1.404  1.00  0.00     0.184 HD
BRANCH  16  26
HETATM   26  N3  UNL     1      11.892  65.051   3.263  1.00  0.00    -0.354 N 
HETATM   27  C8  UNL     1      13.225  65.204   3.134  1.00  0.00     0.069 C 
ATOM     28  H3  UNL     1      11.760  64.976   4.271  1.00  0.00     0.166 HD
BRANCH  27  29
HETATM   29  C9  UNL     1      14.016  65.274   4.449  1.00  0.00     0.048 C 
HETATM   30  C10 UNL     1      14.677  63.919   4.608  1.00  0.00     0.014 C 
HETATM   31  C11 UNL     1      15.273  63.843   5.989  1.00  0.00     0.027 C 
HETATM   32  C12 UNL     1      14.864  64.984   6.871  1.00  0.00     0.167 C 
HETATM   33  O1  UNL     1      13.533  65.292   6.815  1.00  0.00    -0.390 OA
HETATM   34  C13 UNL     1      13.009  65.423   5.556  1.00  0.00     0.177 C 
ENDBRANCH  27  29
ENDBRANCH  16  26
BRANCH  21  35
HETATM   35  O2  UNL     1       9.567  69.563   3.327  1.00  0.00    -0.353 OA
HETATM   36  C17 UNL     1       9.472  69.951   4.677  1.00  0.00     0.210 C 
ENDBRANCH  21  35
BRANCH  22  37
HETATM   37  O3  UNL     1       7.002  69.028   2.264  1.00  0.00    -0.353 OA
HETATM   38  C19 UNL     1       6.037  69.280   3.255  1.00  0.00     0.210 C 
ENDBRANCH  22  37
ENDBRANCH  12  14
ENDBRANCH  11  12
ENDBRANCH   4  11
BRANCH   7  39
HETATM   39  C24 UNL     1       4.838  63.153   4.500  1.00  0.00     0.187 C 
HETATM   40  N6  UNL     1       5.270  63.730   5.719  1.00  0.00    -0.070 NA
HETATM   41  S1  UNL     1       3.250  63.351   4.120  1.00  0.00    -0.044 SA
ENDBRANCH   7  39
ENDBRANCH   3   4
TORSDOF 9
ENDMDL
MODEL 3
REMARK VINA RESULT: -8.779379499      3.738      4.316
REMARK  9 active torsions:
REMARK  status: ('A' for Active; 'I' for Inactive)
REMARK    1  A    between atoms: C3_3  and  C4_4 
REMARK    2  A    between atoms: C4_4  and  C5_5 
REMARK    3  A    between atoms: C5_5  and  N1_6 
REMARK    4  A    between atoms: N1_6  and  C6_8 
REMARK    5  A    between atoms: C7_11  and  N3_12 
REMARK    6  A    between atoms: C8_14  and  C9_15 
REMARK    7  A    between atoms: C16_23  and  O2_24 
REMARK    8  A    between atoms: C18_26  and  O3_27 
REMARK    9  A    between atoms: N5_35  and  C24_36 
ROOT
HETATM    1  C1  UNL     1       7.097  57.819   4.318  1.00  0.00     0.112 C 
HETATM    2  C2  UNL     1       6.771  59.175   3.851  1.00  0.00    -0.110 C 
HETATM    3  C3  UNL     1       6.492  60.281   3.455  1.00  0.00    -0.087 C 
ENDROOT
BRANCH   3   4
HETATM    4  C4  UNL     1       6.167  61.621   2.960  1.00  0.00     0.127 C 
HETATM    5  C22 UNL     1       4.685  61.663   2.686  1.00  0.00     0.052 C 
HETATM    6  C23 UNL     1       4.130  62.812   3.517  1.00  0.00     0.133 C 
HETATM    7  N5  UNL     1       5.173  63.194   4.425  1.00  0.00    -0.296 N 
HETATM    8  C25 UNL     1       6.451  62.680   4.005  1.00  0.00     0.345 C 
HETATM    9  F1  UNL     1       7.066  62.097   5.092  1.00  0.00    -0.180 F 
HETATM   10  F2  UNL     1       7.248  63.695   3.509  1.00  0.00    -0.180 F 
BRANCH   4  11
HETATM   11  C5  UNL     1       6.960  61.977   1.733  1.00  0.00     0.169 C 
BRANCH  11  12
HETATM   12  N1  UNL     1       8.377  61.776   1.906  1.00  0.00    -0.224 N 
ATOM     13  H1  UNL     1       8.740  61.010   2.473  1.00  0.00     0.177 HD
BRANCH  12  14
HETATM   14  C6  UNL     1       9.168  62.607   1.313  1.00  0.00     0.680 A 
HETATM   15  N2  UNL     1      10.210  63.073   1.963  1.00  0.00    -0.176 N 
HETATM   16  C7  UNL     1      11.137  63.955   1.480  1.00  0.00     0.133 A 
ATOM     17  H2  UNL     1      10.340  62.746   2.920  1.00  0.00     0.186 HD
HETATM   18  C14 UNL     1      10.903  64.363   0.162  1.00  0.00     0.039 A 
HETATM   19  C15 UNL     1      11.751  65.248  -0.459  1.00  0.00     0.057 A 
HETATM   20  C21 UNL     1       9.822  63.895  -0.548  1.00  0.00     0.066 A 
HETATM   21  C16 UNL     1      11.525  65.662  -1.773  1.00  0.00     0.102 A 
HETATM   22  C18 UNL     1      10.439  65.183  -2.468  1.00  0.00     0.103 A 
HETATM   23  C20 UNL     1       9.585  64.298  -1.860  1.00  0.00     0.070 A 
HETATM   24  N4  UNL     1       8.970  63.016   0.053  1.00  0.00    -0.191 N 
ATOM     25  H4  UNL     1       8.166  62.663  -0.466  1.00  0.00     0.184 HD
BRANCH  16  26
HETATM   26  N3  UNL     1      12.054  64.300   2.202  1.00  0.00    -0.354 N 
HETATM   27  C8  UNL     1      13.359  64.466   2.494  1.00  0.00     0.069 C 
ATOM     28  H3  UNL     1      11.580  64.653   3.033  1.00  0.00     0.166 HD
BRANCH  27  29
HETATM   29  C9  UNL     1      13.658  65.138   3.843  1.00  0.00     0.048 C 
HETATM   30  C10 UNL     1      14.595  64.197   4.576  1.00  0.00     0.014 C 
HETATM   31  C11 UNL     1      14.737  64.683   5.994  1.00  0.00     0.027 C 
HETATM   32  C12 UNL     1      13.774  65.777   6.343  1.00  0.00     0.167 C 
HETATM   33  O1  UNL     1      12.493  65.558   5.916  1.00  0.00    -0.390 OA
HETATM   34  C13 UNL     1      12.363  65.178   4.607  1.00  0.00     0.177 C 
ENDBRANCH  27  29
ENDBRANCH  16  26
BRANCH  21  35
HETATM   35  O2  UNL     1      12.420  66.552  -2.332  1.00  0.00    -0.353 OA
HETATM   36  C17 UNL     1      13.798  66.456  -2.060  1.00  0.00     0.210 C 
ENDBRANCH  21  35
BRANCH  22  37
HETATM   37  O3  UNL     1      10.189  65.572  -3.767  1.00  0.00    -0.353 OA
HETATM   38  C19 UNL     1       8.997  66.226  -4.124  1.00  0.00     0.210 C 
ENDBRANCH  22  37
ENDBRANCH  12  14
ENDBRANCH  11  12
ENDBRANCH   4  11
BRANCH   7  39
HETATM   39  C24 UNL     1       4.974  63.979   5.593  1.00  0.00     0.187 C 
HETATM   40  N6  UNL     1       4.287  63.480   6.726  1.00  0.00    -0.070 NA
HETATM   41  S1  UNL     1       5.535  65.522   5.699  1.00  0.00    -0.044 SA
ENDBRANCH   7  39
ENDBRANCH   3   4
TORSDOF 9
ENDMDL
MODEL 4
REMARK VINA RESULT: -8.778671162      3.647      4.362
REMARK  9 active torsions:
REMARK  status: ('A' for Active; 'I' for Inactive)
REMARK    1  A    between atoms: C3_3  and  C4_4 
REMARK    2  A    between atoms: C4_4  and  C5_5 
REMARK    3  A    between atoms: C5_5  and  N1_6 
REMARK    4  A    between atoms: N1_6  and  C6_8 
REMARK    5  A    between atoms: C7_11  and  N3_12 
REMARK    6  A    between atoms: C8_14  and  C9_15 
REMARK    7  A    between atoms: C16_23  and  O2_24 
REMARK    8  A    between atoms: C18_26  and  O3_27 
REMARK    9  A    between atoms: N5_35  and  C24_36 
ROOT
HETATM    1  C1  UNL     1       7.018  59.060   4.158  1.00  0.00     0.112 C 
HETATM    2  C2  UNL     1       6.604  60.470   4.111  1.00  0.00    -0.110 C 
HETATM    3  C3  UNL     1       6.275  61.631   4.058  1.00  0.00    -0.087 C 
ENDROOT
BRANCH   3   4
HETATM    4  C4  UNL     1       5.892  63.043   4.003  1.00  0.00     0.127 C 
HETATM    5  C22 UNL     1       4.608  63.142   3.221  1.00  0.00     0.052 C 
HETATM    6  C23 UNL     1       3.604  63.833   4.135  1.00  0.00     0.133 C 
HETATM    7  N5  UNL     1       4.193  63.847   5.442  1.00  0.00    -0.296 N 
HETATM    8  C25 UNL     1       5.609  63.594   5.385  1.00  0.00     0.345 C 
HETATM    9  F1  UNL     1       5.921  62.640   6.330  1.00  0.00    -0.180 F 
HETATM   10  F2  UNL     1       6.324  64.750   5.639  1.00  0.00    -0.180 F 
BRANCH   4  11
HETATM   11  C5  UNL     1       6.970  63.897   3.392  1.00  0.00     0.169 C 
BRANCH  11  12
HETATM   12  N1  UNL     1       8.296  63.482   3.779  1.00  0.00    -0.224 N 
ATOM     13  H1  UNL     1       8.460  62.957   4.637  1.00  0.00     0.177 HD
BRANCH  12  14
HETATM   14  C6  UNL     1       9.268  63.804   2.992  1.00  0.00     0.680 A 
HETATM   15  N2  UNL     1      10.436  64.108   3.510  1.00  0.00    -0.176 N 
HETATM   16  C7  UNL     1      11.560  64.468   2.817  1.00  0.00     0.133 A 
ATOM     17  H2  UNL     1      10.513  64.072   4.526  1.00  0.00     0.186 HD
HETATM   18  C14 UNL     1      11.389  64.496   1.429  1.00  0.00     0.039 A 
HETATM   19  C15 UNL     1      12.430  64.840   0.601  1.00  0.00     0.057 A 
HETATM   20  C21 UNL     1      10.179  64.184   0.852  1.00  0.00     0.066 A 
HETATM   21  C16 UNL     1      12.268  64.872  -0.785  1.00  0.00     0.102 A 
HETATM   22  C18 UNL     1      11.052  64.557  -1.344  1.00  0.00     0.103 A 
HETATM   23  C20 UNL     1      10.004  64.211  -0.528  1.00  0.00     0.070 A 
HETATM   24  N4  UNL     1       9.134  63.840   1.660  1.00  0.00    -0.191 N 
ATOM     25  H4  UNL     1       8.234  63.606   1.241  1.00  0.00     0.184 HD
BRANCH  16  26
HETATM   26  N3  UNL     1      12.576  64.723   3.436  1.00  0.00    -0.354 N 
HETATM   27  C8  UNL     1      13.843  65.173   3.537  1.00  0.00     0.069 C 
ATOM     28  H3  UNL     1      12.346  64.450   4.391  1.00  0.00     0.166 HD
BRANCH  27  29
HETATM   29  C9  UNL     1      14.433  65.181   4.955  1.00  0.00     0.048 C 
HETATM   30  C10 UNL     1      14.966  63.780   5.190  1.00  0.00     0.014 C 
HETATM   31  C11 UNL     1      15.345  63.656   6.643  1.00  0.00     0.027 C 
HETATM   32  C12 UNL     1      14.891  64.820   7.472  1.00  0.00     0.167 C 
HETATM   33  O1  UNL     1      13.608  65.223   7.224  1.00  0.00    -0.390 OA
HETATM   34  C13 UNL     1      13.287  65.397   5.905  1.00  0.00     0.177 C 
ENDBRANCH  27  29
ENDBRANCH  16  26
BRANCH  21  35
HETATM   35  O2  UNL     1      13.359  65.226  -1.554  1.00  0.00    -0.353 OA
HETATM   36  C17 UNL     1      13.559  66.562  -1.951  1.00  0.00     0.210 C 
ENDBRANCH  21  35
BRANCH  22  37
HETATM   37  O3  UNL     1      10.861  64.578  -2.709  1.00  0.00    -0.353 OA
HETATM   38  C19 UNL     1       9.868  63.798  -3.327  1.00  0.00     0.210 C 
ENDBRANCH  22  37
ENDBRANCH  12  14
ENDBRANCH  11  12
ENDBRANCH   4  11
BRANCH   7  39
HETATM   39  C24 UNL     1       3.473  64.080   6.646  1.00  0.00     0.187 C 
HETATM   40  N6  UNL     1       2.326  63.325   6.994  1.00  0.00    -0.070 NA
HETATM   41  S1  UNL     1       3.931  65.246   7.712  1.00  0.00    -0.044 SA
ENDBRANCH   7  39
ENDBRANCH   3   4
TORSDOF 9
ENDMDL
MODEL 5
REMARK VINA RESULT: -8.744904429      1.644      2.402
REMARK  9 active torsions:
REMARK  status: ('A' for Active; 'I' for Inactive)
REMARK    1  A    between atoms: C3_3  and  C4_4 
REMARK    2  A    between atoms: C4_4  and  C5_5 
REMARK    3  A    between atoms: C5_5  and  N1_6 
REMARK    4  A    between atoms: N1_6  and  C6_8 
REMARK    5  A    between atoms: C7_11  and  N3_12 
REMARK    6  A    between atoms: C8_14  and  C9_15 
REMARK    7  A    between atoms: C16_23  and  O2_24 
REMARK    8  A    between atoms: C18_26  and  O3_27 
REMARK    9  A    between atoms: N5_35  and  C24_36 
ROOT
HETATM    1  C1  UNL     1       4.949  63.933   5.869  1.00  0.00     0.112 C 
HETATM    2  C2  UNL     1       5.635  63.096   4.874  1.00  0.00    -0.110 C 
HETATM    3  C3  UNL     1       6.194  62.421   4.043  1.00  0.00    -0.087 C 
ENDROOT
BRANCH   3   4
HETATM    4  C4  UNL     1       6.855  61.595   3.030  1.00  0.00     0.127 C 
HETATM    5  C22 UNL     1       7.824  60.684   3.740  1.00  0.00     0.052 C 
HETATM    6  C23 UNL     1       7.437  59.263   3.352  1.00  0.00     0.133 C 
HETATM    7  N5  UNL     1       6.155  59.356   2.714  1.00  0.00    -0.296 N 
HETATM    8  C25 UNL     1       5.864  60.706   2.309  1.00  0.00     0.345 C 
HETATM    9  F1  UNL     1       4.585  61.019   2.718  1.00  0.00    -0.180 F 
HETATM   10  F2  UNL     1       5.956  60.836   0.935  1.00  0.00    -0.180 F 
BRANCH   4  11
HETATM   11  C5  UNL     1       7.551  62.429   1.989  1.00  0.00     0.169 C 
BRANCH  11  12
HETATM   12  N1  UNL     1       8.942  62.654   2.292  1.00  0.00    -0.224 N 
ATOM     13  H1  UNL     1       9.639  61.921   2.164  1.00  0.00     0.177 HD
BRANCH  12  14
HETATM   14  C6  UNL     1       9.269  63.823   2.731  1.00  0.00     0.680 A 
HETATM   15  N2  UNL     1      10.478  64.012   3.209  1.00  0.00    -0.176 N 
HETATM   16  C7  UNL     1      10.977  65.183   3.710  1.00  0.00     0.133 A 
ATOM     17  H2  UNL     1      11.105  63.207   3.207  1.00  0.00     0.186 HD
HETATM   18  C14 UNL     1      10.069  66.247   3.684  1.00  0.00     0.039 A 
HETATM   19  C15 UNL     1      10.427  67.487   4.154  1.00  0.00     0.057 A 
HETATM   20  C21 UNL     1       8.795  66.085   3.190  1.00  0.00     0.066 A 
HETATM   21  C16 UNL     1       9.527  68.554   4.133  1.00  0.00     0.102 A 
HETATM   22  C18 UNL     1       8.258  68.374   3.635  1.00  0.00     0.103 A 
HETATM   23  C20 UNL     1       7.887  67.140   3.162  1.00  0.00     0.070 A 
HETATM   24  N4  UNL     1       8.422  64.860   2.719  1.00  0.00    -0.191 N 
ATOM     25  H4  UNL     1       7.479  64.731   2.350  1.00  0.00     0.184 HD
BRANCH  16  26
HETATM   26  N3  UNL     1      12.122  65.207   4.121  1.00  0.00    -0.354 N 
HETATM   27  C8  UNL     1      13.453  65.357   3.968  1.00  0.00     0.069 C 
ATOM     28  H3  UNL     1      12.020  65.006   5.115  1.00  0.00     0.166 HD
BRANCH  27  29
HETATM   29  C9  UNL     1      14.286  65.247   5.253  1.00  0.00     0.048 C 
HETATM   30  C10 UNL     1      14.850  63.840   5.263  1.00  0.00     0.014 C 
HETATM   31  C11 UNL     1      15.481  63.593   6.609  1.00  0.00     0.027 C 
HETATM   32  C12 UNL     1      15.183  64.671   7.606  1.00  0.00     0.167 C 
HETATM   33  O1  UNL     1      13.877  65.076   7.627  1.00  0.00    -0.390 OA
HETATM   34  C13 UNL     1      13.327  65.361   6.406  1.00  0.00     0.177 C 
ENDBRANCH  27  29
ENDBRANCH  16  26
BRANCH  21  35
HETATM   35  O2  UNL     1       9.958  69.771   4.622  1.00  0.00    -0.353 OA
HETATM   36  C17 UNL     1      10.384  70.789   3.747  1.00  0.00     0.210 C 
ENDBRANCH  21  35
BRANCH  22  37
HETATM   37  O3  UNL     1       7.347  69.408   3.600  1.00  0.00    -0.353 OA
HETATM   38  C19 UNL     1       6.994  70.039   2.393  1.00  0.00     0.210 C 
ENDBRANCH  22  37
ENDBRANCH  12  14
ENDBRANCH  11  12
ENDBRANCH   4  11
BRANCH   7  39
HETATM   39  C24 UNL     1       5.279  58.255   2.508  1.00  0.00     0.187 C 
HETATM   40  N6  UNL     1       4.120  58.357   1.701  1.00  0.00    -0.070 NA
HETATM   41  S1  UNL     1       5.563  56.787   3.195  1.00  0.00    -0.044 SA
ENDBRANCH   7  39
ENDBRANCH   3   4
TORSDOF 9
ENDMDL
