MODEL 1
REMARK VINA RESULT: -7.164968695      0.000      0.000
REMARK  9 active torsions:
REMARK  status: ('A' for Active; 'I' for Inactive)
REMARK    1  A    between atoms: C2_2  and  C4_5 
REMARK       I    between atoms: C4_5  and  N1_7 
REMARK    2  A    between atoms: C8_11  and  C9_12 
REMARK       I    between atoms: C9_12  and  N2_14 
REMARK    3  A    between atoms: N2_14  and  C10_16 
REMARK    4  A    between atoms: C10_16  and  C11_17 
REMARK    5  A    between atoms: C11_17  and  O3_18 
REMARK    6  A    between atoms: C11_17  and  N3_20 
REMARK    7  A    between atoms: C14_23  and  C15_24 
REMARK    8  A    between atoms: C14_23  and  C16_27 
REMARK    9  A    between atoms: C15_24  and  O4_25 
ROOT
HETATM    1  C10 UNL     1       7.731  65.780   1.961  1.00  0.00     0.128 C 
HETATM    2  C22 UNL     1       7.891  67.297   2.210  1.00  0.00     0.043 C 
HETATM    3  C23 UNL     1       7.006  67.984   1.234  1.00  0.00     0.006 C 
HETATM    4  C24 UNL     1       5.959  67.009   0.813  1.00  0.00     0.040 C 
HETATM    5  C25 UNL     1       6.415  65.637   1.296  1.00  0.00     0.206 C 
HETATM    6  F2  UNL     1       6.498  64.835   0.143  1.00  0.00    -0.246 F 
ENDROOT
BRANCH   1   7
HETATM    7  N2  UNL     1       8.804  65.395   1.039  1.00  0.00    -0.340 N 
HETATM    8  C9  UNL     1      10.178  65.474   1.318  1.00  0.00     0.241 C 
HETATM    9  O2  UNL     1      10.685  65.879   2.376  1.00  0.00    -0.271 OA
ATOM     10  H2  UNL     1       8.531  65.042   0.122  1.00  0.00     0.163 HD
BRANCH   8  11
HETATM   11  C8  UNL     1      11.142  65.038   0.258  1.00  0.00     0.179 C 
HETATM   12  N1  UNL     1      10.467  64.439  -0.878  1.00  0.00    -0.337 N 
HETATM   13  C4  UNL     1      10.184  65.085  -2.111  1.00  0.00     0.239 C 
HETATM   14  C5  UNL     1      10.166  63.081  -0.466  1.00  0.00     0.127 C 
HETATM   15  O1  UNL     1      10.531  66.286  -2.271  1.00  0.00    -0.272 OA
HETATM   16  C6  UNL     1      11.155  62.718   0.623  1.00  0.00     0.022 C 
HETATM   17  C7  UNL     1      12.037  63.926   0.799  1.00  0.00     0.037 C 
BRANCH  13  18
HETATM   18  C2  UNL     1       9.495  64.421  -3.242  1.00  0.00     0.092 C 
HETATM   19  C1  UNL     1       9.435  65.323  -4.461  1.00  0.00     0.038 C 
HETATM   20  C3  UNL     1      10.301  63.199  -3.628  1.00  0.00     0.038 C 
HETATM   21  S1  UNL     1       7.825  63.909  -2.847  1.00  0.00    -0.077 SA
ENDBRANCH  13  18
ENDBRANCH   8  11
ENDBRANCH   1   7
BRANCH   1  22
HETATM   22  C11 UNL     1       7.931  65.058   3.225  1.00  0.00     0.145 C 
BRANCH  22  23
HETATM   23  O3  UNL     1       8.518  65.689   4.200  1.00  0.00    -0.347 OA
ATOM     24  H3  UNL     1       8.130  66.502   4.499  1.00  0.00     0.219 HD
ENDBRANCH  22  23
BRANCH  22  25
HETATM   25  N3  UNL     1       7.573  63.746   3.552  1.00  0.00    -0.361 N 
HETATM   26  C12 UNL     1       6.364  63.496   4.370  1.00  0.00     0.126 C 
HETATM   27  C13 UNL     1       6.153  62.029   4.566  1.00  0.00     0.037 C 
HETATM   28  C14 UNL     1       6.115  61.272   3.258  1.00  0.00     0.041 C 
HETATM   29  C20 UNL     1       7.300  61.614   2.431  1.00  0.00     0.201 C 
HETATM   30  F1  UNL     1       8.038  60.563   1.975  1.00  0.00    -0.247 F 
HETATM   31  C21 UNL     1       8.274  62.572   3.152  1.00  0.00     0.162 C 
BRANCH  28  32
HETATM   32  C15 UNL     1       4.865  61.768   2.513  1.00  0.00     0.179 C 
BRANCH  32  33
HETATM   33  O4  UNL     1       5.112  61.931   1.155  1.00  0.00    -0.400 OA
ATOM     34  H4  UNL     1       4.407  61.574   0.628  1.00  0.00     0.209 HD
ENDBRANCH  32  33
ENDBRANCH  28  32
BRANCH  28  35
HETATM   35  C16 UNL     1       5.893  59.830   3.540  1.00  0.00     0.135 C 
HETATM   36  C17 UNL     1       7.062  59.092   4.110  1.00  0.00     0.035 C 
HETATM   37  C18 UNL     1       6.661  57.646   3.785  1.00  0.00     0.029 C 
HETATM   38  C19 UNL     1       5.978  57.859   2.456  1.00  0.00     0.168 C 
HETATM   39  O5  UNL     1       5.438  59.111   2.444  1.00  0.00    -0.385 OA
ENDBRANCH  28  35
ENDBRANCH  22  25
ENDBRANCH   1  22
TORSDOF 9
ENDMDL
MODEL 2
REMARK VINA RESULT: -7.067707298      2.600      4.912
REMARK  9 active torsions:
REMARK  status: ('A' for Active; 'I' for Inactive)
REMARK    1  A    between atoms: C2_2  and  C4_5 
REMARK       I    between atoms: C4_5  and  N1_7 
REMARK    2  A    between atoms: C8_11  and  C9_12 
REMARK       I    between atoms: C9_12  and  N2_14 
REMARK    3  A    between atoms: N2_14  and  C10_16 
REMARK    4  A    between atoms: C10_16  and  C11_17 
REMARK    5  A    between atoms: C11_17  and  O3_18 
REMARK    6  A    between atoms: C11_17  and  N3_20 
REMARK    7  A    between atoms: C14_23  and  C15_24 
REMARK    8  A    between atoms: C14_23  and  C16_27 
REMARK    9  A    between atoms: C15_24  and  O4_25 
ROOT
HETATM    1  C10 UNL     1       9.370  64.342   1.617  1.00  0.00     0.128 C 
HETATM    2  C22 UNL     1       8.816  63.606   0.376  1.00  0.00     0.043 C 
HETATM    3  C23 UNL     1       9.570  64.122  -0.797  1.00  0.00     0.006 C 
HETATM    4  C24 UNL     1      10.856  64.683  -0.292  1.00  0.00     0.040 C 
HETATM    5  C25 UNL     1      10.725  64.792   1.223  1.00  0.00     0.206 C 
HETATM    6  F2  UNL     1      10.932  66.151   1.526  1.00  0.00    -0.246 F 
ENDROOT
BRANCH   1   7
HETATM    7  N2  UNL     1       8.499  65.501   1.835  1.00  0.00    -0.340 N 
HETATM    8  C9  UNL     1       7.099  65.493   1.725  1.00  0.00     0.241 C 
HETATM    9  O2  UNL     1       6.397  64.514   1.428  1.00  0.00    -0.271 OA
ATOM     10  H2  UNL     1       8.945  66.383   2.086  1.00  0.00     0.163 HD
BRANCH   8  11
HETATM   11  C8  UNL     1       6.362  66.772   1.983  1.00  0.00     0.179 C 
HETATM   12  N1  UNL     1       7.035  67.599   2.966  1.00  0.00    -0.337 N 
HETATM   13  C4  UNL     1       7.860  68.721   2.683  1.00  0.00     0.239 C 
HETATM   14  C5  UNL     1       6.676  67.028   4.250  1.00  0.00     0.127 C 
HETATM   15  O1  UNL     1       8.051  69.057   1.483  1.00  0.00    -0.272 OA
HETATM   16  C6  UNL     1       5.372  66.281   4.055  1.00  0.00     0.022 C 
HETATM   17  C7  UNL     1       5.002  66.468   2.607  1.00  0.00     0.037 C 
BRANCH  13  18
HETATM   18  C2  UNL     1       8.519  69.534   3.730  1.00  0.00     0.092 C 
HETATM   19  C1  UNL     1       9.126  70.799   3.148  1.00  0.00     0.038 C 
HETATM   20  C3  UNL     1       7.461  69.962   4.724  1.00  0.00     0.038 C 
HETATM   21  S1  UNL     1       9.808  68.650   4.603  1.00  0.00    -0.077 SA
ENDBRANCH  13  18
ENDBRANCH   8  11
ENDBRANCH   1   7
BRANCH   1  22
HETATM   22  C11 UNL     1       9.265  63.462   2.789  1.00  0.00     0.145 C 
BRANCH  22  23
HETATM   23  O3  UNL     1      10.009  63.733   3.822  1.00  0.00    -0.347 OA
ATOM     24  H3  UNL     1       9.762  63.356   4.658  1.00  0.00     0.219 HD
ENDBRANCH  22  23
BRANCH  22  25
HETATM   25  N3  UNL     1       8.456  62.335   2.970  1.00  0.00    -0.361 N 
HETATM   26  C12 UNL     1       7.803  62.101   4.278  1.00  0.00     0.126 C 
HETATM   27  C13 UNL     1       6.963  60.866   4.234  1.00  0.00     0.037 C 
HETATM   28  C14 UNL     1       5.963  60.888   3.101  1.00  0.00     0.041 C 
HETATM   29  C20 UNL     1       6.643  61.208   1.821  1.00  0.00     0.201 C 
HETATM   30  F1  UNL     1       6.428  60.342   0.792  1.00  0.00    -0.247 F 
HETATM   31  C21 UNL     1       8.173  61.351   1.978  1.00  0.00     0.162 C 
BRANCH  28  32
HETATM   32  C15 UNL     1       4.987  62.034   3.414  1.00  0.00     0.179 C 
BRANCH  32  33
HETATM   33  O4  UNL     1       4.422  62.552   2.254  1.00  0.00    -0.400 OA
ATOM     34  H4  UNL     1       4.069  61.865   1.702  1.00  0.00     0.209 HD
ENDBRANCH  32  33
ENDBRANCH  28  32
BRANCH  28  35
HETATM   35  C16 UNL     1       5.165  59.634   3.135  1.00  0.00     0.135 C 
HETATM   36  C17 UNL     1       5.952  58.364   3.193  1.00  0.00     0.035 C 
HETATM   37  C18 UNL     1       4.895  57.362   2.707  1.00  0.00     0.029 C 
HETATM   38  C19 UNL     1       4.173  58.217   1.694  1.00  0.00     0.168 C 
HETATM   39  O5  UNL     1       4.261  59.520   2.088  1.00  0.00    -0.385 OA
ENDBRANCH  28  35
ENDBRANCH  22  25
ENDBRANCH   1  22
TORSDOF 9
ENDMDL
MODEL 3
REMARK VINA RESULT: -7.034497975      2.890      5.568
REMARK  9 active torsions:
REMARK  status: ('A' for Active; 'I' for Inactive)
REMARK    1  A    between atoms: C2_2  and  C4_5 
REMARK       I    between atoms: C4_5  and  N1_7 
REMARK    2  A    between atoms: C8_11  and  C9_12 
REMARK       I    between atoms: C9_12  and  N2_14 
REMARK    3  A    between atoms: N2_14  and  C10_16 
REMARK    4  A    between atoms: C10_16  and  C11_17 
REMARK    5  A    between atoms: C11_17  and  O3_18 
REMARK    6  A    between atoms: C11_17  and  N3_20 
REMARK    7  A    between atoms: C14_23  and  C15_24 
REMARK    8  A    between atoms: C14_23  and  C16_27 
REMARK    9  A    between atoms: C15_24  and  O4_25 
ROOT
HETATM    1  C10 UNL     1       9.521  64.424   1.381  1.00  0.00     0.128 C 
HETATM    2  C22 UNL     1      10.286  64.923   0.135  1.00  0.00     0.043 C 
HETATM    3  C23 UNL     1      11.727  64.938   0.498  1.00  0.00     0.006 C 
HETATM    4  C24 UNL     1      11.912  63.997   1.640  1.00  0.00     0.040 C 
HETATM    5  C25 UNL     1      10.521  63.664   2.167  1.00  0.00     0.206 C 
HETATM    6  F2  UNL     1      10.523  64.052   3.521  1.00  0.00    -0.246 F 
ENDROOT
BRANCH   1   7
HETATM    7  N2  UNL     1       9.104  65.620   2.119  1.00  0.00    -0.340 N 
HETATM    8  C9  UNL     1       8.059  65.669   3.056  1.00  0.00     0.241 C 
HETATM    9  O2  UNL     1       7.338  64.719   3.395  1.00  0.00    -0.271 OA
ATOM     10  H2  UNL     1       9.613  66.484   1.938  1.00  0.00     0.163 HD
BRANCH   8  11
HETATM   11  C8  UNL     1       7.765  66.980   3.720  1.00  0.00     0.179 C 
HETATM   12  N1  UNL     1       6.343  67.262   3.763  1.00  0.00    -0.337 N 
HETATM   13  C4  UNL     1       5.493  67.077   4.887  1.00  0.00     0.239 C 
HETATM   14  C5  UNL     1       6.015  67.756   2.439  1.00  0.00     0.127 C 
HETATM   15  O1  UNL     1       5.979  66.627   5.959  1.00  0.00    -0.272 OA
HETATM   16  C6  UNL     1       7.294  68.312   1.844  1.00  0.00     0.022 C 
HETATM   17  C7  UNL     1       8.355  68.122   2.895  1.00  0.00     0.037 C 
BRANCH  13  18
HETATM   18  C2  UNL     1       4.045  67.388   4.875  1.00  0.00     0.092 C 
HETATM   19  C1  UNL     1       3.312  66.567   3.829  1.00  0.00     0.038 C 
HETATM   20  C3  UNL     1       3.474  67.007   6.223  1.00  0.00     0.038 C 
HETATM   21  S1  UNL     1       3.697  69.117   4.569  1.00  0.00    -0.077 SA
ENDBRANCH  13  18
ENDBRANCH   8  11
ENDBRANCH   1   7
BRANCH   1  22
HETATM   22  C11 UNL     1       8.312  63.705   0.952  1.00  0.00     0.145 C 
BRANCH  22  23
HETATM   23  O3  UNL     1       7.527  64.293   0.096  1.00  0.00    -0.347 OA
ATOM     24  H3  UNL     1       7.103  63.753  -0.560  1.00  0.00     0.219 HD
ENDBRANCH  22  23
BRANCH  22  25
HETATM   25  N3  UNL     1       7.862  62.438   1.337  1.00  0.00    -0.361 N 
HETATM   26  C12 UNL     1       8.753  61.547   2.114  1.00  0.00     0.126 C 
HETATM   27  C13 UNL     1       8.057  60.265   2.446  1.00  0.00     0.037 C 
HETATM   28  C14 UNL     1       6.736  60.490   3.145  1.00  0.00     0.041 C 
HETATM   29  C20 UNL     1       5.907  61.454   2.379  1.00  0.00     0.201 C 
HETATM   30  F1  UNL     1       4.643  61.048   2.071  1.00  0.00    -0.247 F 
HETATM   31  C21 UNL     1       6.574  61.897   1.058  1.00  0.00     0.162 C 
BRANCH  28  32
HETATM   32  C15 UNL     1       7.073  61.134   4.499  1.00  0.00     0.179 C 
BRANCH  32  33
HETATM   33  O4  UNL     1       6.372  62.320   4.688  1.00  0.00    -0.400 OA
ATOM     34  H4  UNL     1       6.849  62.921   5.248  1.00  0.00     0.209 HD
ENDBRANCH  32  33
ENDBRANCH  28  32
BRANCH  28  35
HETATM   35  C16 UNL     1       6.117  59.173   3.447  1.00  0.00     0.135 C 
HETATM   36  C17 UNL     1       6.965  58.220   4.229  1.00  0.00     0.035 C 
HETATM   37  C18 UNL     1       6.262  56.895   3.903  1.00  0.00     0.029 C 
HETATM   38  C19 UNL     1       5.857  57.160   2.473  1.00  0.00     0.168 C 
HETATM   39  O5  UNL     1       5.660  58.501   2.322  1.00  0.00    -0.385 OA
ENDBRANCH  28  35
ENDBRANCH  22  25
ENDBRANCH   1  22
TORSDOF 9
ENDMDL
MODEL 4
REMARK VINA RESULT: -6.889230675      3.060      5.047
REMARK  9 active torsions:
REMARK  status: ('A' for Active; 'I' for Inactive)
REMARK    1  A    between atoms: C2_2  and  C4_5 
REMARK       I    between atoms: C4_5  and  N1_7 
REMARK    2  A    between atoms: C8_11  and  C9_12 
REMARK       I    between atoms: C9_12  and  N2_14 
REMARK    3  A    between atoms: N2_14  and  C10_16 
REMARK    4  A    between atoms: C10_16  and  C11_17 
REMARK    5  A    between atoms: C11_17  and  O3_18 
REMARK    6  A    between atoms: C11_17  and  N3_20 
REMARK    7  A    between atoms: C14_23  and  C15_24 
REMARK    8  A    between atoms: C14_23  and  C16_27 
REMARK    9  A    between atoms: C15_24  and  O4_25 
ROOT
HETATM    1  C10 UNL     1       6.816  64.463   0.401  1.00  0.00     0.128 C 
HETATM    2  C22 UNL     1       5.298  64.176   0.435  1.00  0.00     0.043 C 
HETATM    3  C23 UNL     1       4.627  65.363  -0.155  1.00  0.00     0.006 C 
HETATM    4  C24 UNL     1       5.628  66.067  -1.007  1.00  0.00     0.040 C 
HETATM    5  C25 UNL     1       6.991  65.476  -0.666  1.00  0.00     0.206 C 
HETATM    6  F2  UNL     1       7.778  66.559  -0.232  1.00  0.00    -0.246 F 
ENDROOT
BRANCH   1   7
HETATM    7  N2  UNL     1       7.159  65.041   1.704  1.00  0.00    -0.340 N 
HETATM    8  C9  UNL     1       8.465  65.225   2.189  1.00  0.00     0.241 C 
HETATM    9  O2  UNL     1       9.512  64.929   1.594  1.00  0.00    -0.271 OA
ATOM     10  H2  UNL     1       6.389  65.332   2.306  1.00  0.00     0.163 HD
BRANCH   8  11
HETATM   11  C8  UNL     1       8.635  65.832   3.548  1.00  0.00     0.179 C 
HETATM   12  N1  UNL     1       7.503  66.659   3.921  1.00  0.00    -0.337 N 
HETATM   13  C4  UNL     1       6.440  66.273   4.780  1.00  0.00     0.239 C 
HETATM   14  C5  UNL     1       7.712  67.919   3.232  1.00  0.00     0.127 C 
HETATM   15  O1  UNL     1       6.442  65.117   5.282  1.00  0.00    -0.272 OA
HETATM   16  C6  UNL     1       9.199  68.036   2.962  1.00  0.00     0.022 C 
HETATM   17  C7  UNL     1       9.822  66.793   3.540  1.00  0.00     0.037 C 
BRANCH  13  18
HETATM   18  C2  UNL     1       5.309  67.163   5.131  1.00  0.00     0.092 C 
HETATM   19  C1  UNL     1       5.791  68.564   5.468  1.00  0.00     0.038 C 
HETATM   20  C3  UNL     1       4.411  67.278   3.919  1.00  0.00     0.038 C 
HETATM   21  S1  UNL     1       4.340  66.563   6.511  1.00  0.00    -0.077 SA
ENDBRANCH  13  18
ENDBRANCH   8  11
ENDBRANCH   1   7
BRANCH   1  22
HETATM   22  C11 UNL     1       7.546  63.195   0.254  1.00  0.00     0.145 C 
BRANCH  22  23
HETATM   23  O3  UNL     1       8.505  63.144  -0.624  1.00  0.00    -0.347 OA
ATOM     24  H3  UNL     1       8.848  63.965  -0.955  1.00  0.00     0.219 HD
ENDBRANCH  22  23
BRANCH  22  25
HETATM   25  N3  UNL     1       7.358  61.992   0.941  1.00  0.00    -0.361 N 
HETATM   26  C12 UNL     1       8.391  61.519   1.891  1.00  0.00     0.126 C 
HETATM   27  C13 UNL     1       7.969  60.237   2.534  1.00  0.00     0.037 C 
HETATM   28  C14 UNL     1       6.609  60.339   3.185  1.00  0.00     0.041 C 
HETATM   29  C20 UNL     1       5.620  60.895   2.227  1.00  0.00     0.201 C 
HETATM   30  F1  UNL     1       4.480  60.172   2.051  1.00  0.00    -0.247 F 
HETATM   31  C21 UNL     1       6.221  61.141   0.825  1.00  0.00     0.162 C 
BRANCH  28  32
HETATM   32  C15 UNL     1       6.760  61.344   4.338  1.00  0.00     0.179 C 
BRANCH  32  33
HETATM   33  O4  UNL     1       5.924  62.441   4.172  1.00  0.00    -0.400 OA
ATOM     34  H4  UNL     1       5.811  62.919   4.985  1.00  0.00     0.209 HD
ENDBRANCH  32  33
ENDBRANCH  28  32
BRANCH  28  35
HETATM   35  C16 UNL     1       6.269  59.032   3.806  1.00  0.00     0.135 C 
HETATM   36  C17 UNL     1       7.420  58.107   4.044  1.00  0.00     0.035 C 
HETATM   37  C18 UNL     1       6.677  56.770   4.179  1.00  0.00     0.029 C 
HETATM   38  C19 UNL     1       5.569  56.987   3.177  1.00  0.00     0.168 C 
HETATM   39  O5  UNL     1       5.297  58.323   3.116  1.00  0.00    -0.385 OA
ENDBRANCH  28  35
ENDBRANCH  22  25
ENDBRANCH   1  22
TORSDOF 9
ENDMDL
MODEL 5
REMARK VINA RESULT: -6.861958114      2.269      6.326
REMARK  9 active torsions:
REMARK  status: ('A' for Active; 'I' for Inactive)
REMARK    1  A    between atoms: C2_2  and  C4_5 
REMARK       I    between atoms: C4_5  and  N1_7 
REMARK    2  A    between atoms: C8_11  and  C9_12 
REMARK       I    between atoms: C9_12  and  N2_14 
REMARK    3  A    between atoms: N2_14  and  C10_16 
REMARK    4  A    between atoms: C10_16  and  C11_17 
REMARK    5  A    between atoms: C11_17  and  O3_18 
REMARK    6  A    between atoms: C11_17  and  N3_20 
REMARK    7  A    between atoms: C14_23  and  C15_24 
REMARK    8  A    between atoms: C14_23  and  C16_27 
REMARK    9  A    between atoms: C15_24  and  O4_25 
ROOT
HETATM    1  C10 UNL     1       6.170  64.065   3.985  1.00  0.00     0.128 C 
HETATM    2  C22 UNL     1       4.887  64.765   3.483  1.00  0.00     0.043 C 
HETATM    3  C23 UNL     1       3.786  64.332   4.382  1.00  0.00     0.006 C 
HETATM    4  C24 UNL     1       4.404  63.880   5.662  1.00  0.00     0.040 C 
HETATM    5  C25 UNL     1       5.900  63.741   5.405  1.00  0.00     0.206 C 
HETATM    6  F2  UNL     1       6.215  62.401   5.702  1.00  0.00    -0.246 F 
ENDROOT
BRANCH   1   7
HETATM    7  N2  UNL     1       6.303  62.832   3.204  1.00  0.00    -0.340 N 
HETATM    8  C9  UNL     1       7.389  61.944   3.271  1.00  0.00     0.241 C 
HETATM    9  O2  UNL     1       8.390  62.070   3.994  1.00  0.00    -0.271 OA
ATOM     10  H2  UNL     1       5.547  62.601   2.560  1.00  0.00     0.163 HD
BRANCH   8  11
HETATM   11  C8  UNL     1       7.363  60.726   2.399  1.00  0.00     0.179 C 
HETATM   12  N1  UNL     1       6.009  60.289   2.116  1.00  0.00    -0.337 N 
HETATM   13  C4  UNL     1       5.288  60.544   0.918  1.00  0.00     0.239 C 
HETATM   14  C5  UNL     1       5.591  59.562   3.299  1.00  0.00     0.127 C 
HETATM   15  O1  UNL     1       5.836  61.207  -0.002  1.00  0.00    -0.272 OA
HETATM   16  C6  UNL     1       6.850  59.076   3.989  1.00  0.00     0.022 C 
HETATM   17  C7  UNL     1       7.997  59.549   3.136  1.00  0.00     0.037 C 
BRANCH  13  18
HETATM   18  C2  UNL     1       3.906  60.067   0.681  1.00  0.00     0.092 C 
HETATM   19  C1  UNL     1       3.758  58.598   1.038  1.00  0.00     0.038 C 
HETATM   20  C3  UNL     1       2.980  60.844   1.591  1.00  0.00     0.038 C 
HETATM   21  S1  UNL     1       3.366  60.284  -1.012  1.00  0.00    -0.077 SA
ENDBRANCH  13  18
ENDBRANCH   8  11
ENDBRANCH   1   7
BRANCH   1  22
HETATM   22  C11 UNL     1       7.332  64.919   3.697  1.00  0.00     0.145 C 
BRANCH  22  23
HETATM   23  O3  UNL     1       7.795  65.661   4.660  1.00  0.00    -0.347 OA
ATOM     24  H3  UNL     1       8.669  66.021   4.562  1.00  0.00     0.219 HD
ENDBRANCH  22  23
BRANCH  22  25
HETATM   25  N3  UNL     1       8.041  65.059   2.500  1.00  0.00    -0.361 N 
HETATM   26  C12 UNL     1       9.519  65.134   2.525  1.00  0.00     0.126 C 
HETATM   27  C13 UNL     1      10.066  65.246   1.138  1.00  0.00     0.037 C 
HETATM   28  C14 UNL     1       9.574  64.141   0.233  1.00  0.00     0.041 C 
HETATM   29  C20 UNL     1       8.094  64.043   0.299  1.00  0.00     0.201 C 
HETATM   30  F1  UNL     1       7.435  64.080  -0.892  1.00  0.00    -0.247 F 
HETATM   31  C21 UNL     1       7.463  65.129   1.198  1.00  0.00     0.162 C 
BRANCH  28  32
HETATM   32  C15 UNL     1      10.156  62.834   0.797  1.00  0.00     0.179 C 
BRANCH  32  33
HETATM   33  O4  UNL     1      11.503  62.698   0.481  1.00  0.00    -0.400 OA
ATOM     34  H4  UNL     1      11.643  62.006  -0.154  1.00  0.00     0.209 HD
ENDBRANCH  32  33
ENDBRANCH  28  32
BRANCH  28  35
HETATM   35  C16 UNL     1      10.169  64.319  -1.117  1.00  0.00     0.135 C 
HETATM   36  C17 UNL     1       9.767  65.562  -1.846  1.00  0.00     0.035 C 
HETATM   37  C18 UNL     1      10.118  65.164  -3.286  1.00  0.00     0.029 C 
HETATM   38  C19 UNL     1       9.765  63.697  -3.243  1.00  0.00     0.168 C 
HETATM   39  O5  UNL     1       9.950  63.246  -1.969  1.00  0.00    -0.385 OA
ENDBRANCH  28  35
ENDBRANCH  22  25
ENDBRANCH   1  22
TORSDOF 9
ENDMDL
