MODEL 1
REMARK VINA RESULT: -8.305587387      0.000      0.000
REMARK  9 active torsions:
REMARK  status: ('A' for Active; 'I' for Inactive)
REMARK    1  A    between atoms: N2_8  and  C5_9 
REMARK    2  A    between atoms: C5_9  and  C6_10 
REMARK    3  A    between atoms: C6_10  and  C7_11 
REMARK    4  A    between atoms: C7_11  and  N3_12 
REMARK    5  A    between atoms: N3_12  and  C8_14 
REMARK    6  A    between atoms: C8_14  and  N4_16 
REMARK    7  A    between atoms: N4_16  and  N5_18 
REMARK    8  A    between atoms: C9_20  and  C10_21 
REMARK    9  A    between atoms: C16_29  and  O2_30 
ROOT
HETATM    1  C8  UNL     1       8.966  63.592   3.010  1.00  0.00     0.186 C 
HETATM    2  S1  UNL     1       8.312  63.876   1.524  1.00  0.00    -0.040 SA
ENDROOT
BRANCH   1   3
HETATM    3  N3  UNL     1      10.041  64.391   3.460  1.00  0.00    -0.366 N 
ATOM      4  H3  UNL     1      10.075  64.668   4.441  1.00  0.00     0.161 HD
BRANCH   3   5
HETATM    5  C7  UNL     1      11.088  64.827   2.579  1.00  0.00     0.123 C 
BRANCH   5   6
HETATM    6  C6  UNL     1      12.399  64.099   2.770  1.00  0.00     0.040 C 
BRANCH   6   7
HETATM    7  C5  UNL     1      13.442  65.132   3.134  1.00  0.00     0.137 C 
BRANCH   7   8
HETATM    8  N2  UNL     1      13.775  65.066   4.561  1.00  0.00    -0.282 N 
HETATM    9  C4  UNL     1      13.109  65.940   5.452  1.00  0.00     0.244 A 
HETATM   10  C3  UNL     1      13.440  65.875   6.891  1.00  0.00     0.223 A 
HETATM   11  O1  UNL     1      12.234  66.779   5.043  1.00  0.00    -0.271 OA
HETATM   12  N1  UNL     1      14.417  64.915   7.251  1.00  0.00    -0.380 N 
HETATM   13  C2  UNL     1      15.054  64.098   6.500  1.00  0.00     0.070 A 
ATOM     14  H1  UNL     1      14.644  64.868   8.244  1.00  0.00     0.160 HD
HETATM   15  C1  UNL     1      16.061  63.142   7.044  1.00  0.00     0.074 C 
HETATM   16  C17 UNL     1      14.735  64.154   5.070  1.00  0.00     0.272 A 
HETATM   17  O3  UNL     1      15.339  63.368   4.300  1.00  0.00    -0.266 OA
ENDBRANCH   7   8
ENDBRANCH   6   7
ENDBRANCH   5   6
ENDBRANCH   3   5
ENDBRANCH   1   3
BRANCH   1  18
HETATM   18  N4  UNL     1       8.468  62.560   3.838  1.00  0.00    -0.277 N 
ATOM     19  H4  UNL     1       8.965  62.336   4.701  1.00  0.00     0.189 HD
BRANCH  18  20
HETATM   20  N5  UNL     1       7.312  61.833   3.513  1.00  0.00    -0.309 N 
HETATM   21  C9  UNL     1       7.344  60.619   3.141  1.00  0.00     0.122 C 
ATOM     22  H5  UNL     1       6.407  62.299   3.579  1.00  0.00     0.186 HD
BRANCH  21  23
HETATM   23  C10 UNL     1       6.207  59.811   2.793  1.00  0.00     0.022 A 
HETATM   24  C11 UNL     1       6.193  58.510   3.295  1.00  0.00    -0.030 A 
HETATM   25  C12 UNL     1       7.348  58.045   4.141  1.00  0.00     0.050 C 
HETATM   26  C13 UNL     1       5.150  57.662   3.025  1.00  0.00     0.019 A 
HETATM   27 BR1  UNL     1       5.168  55.901   3.725  1.00  0.00    -0.051 Br
HETATM   28  C14 UNL     1       4.107  58.108   2.249  1.00  0.00     0.041 A 
HETATM   29  C15 UNL     1       4.096  59.378   1.744  1.00  0.00     0.046 A 
HETATM   30 BR2  UNL     1       2.651  60.005   0.664  1.00  0.00    -0.048 Br
HETATM   31  C16 UNL     1       5.156  60.265   2.007  1.00  0.00     0.095 A 
BRANCH  31  32
HETATM   32  O2  UNL     1       5.099  61.513   1.486  1.00  0.00    -0.358 OA
ATOM     33  H2  UNL     1       4.772  62.266   1.964  1.00  0.00     0.217 HD
ENDBRANCH  31  32
ENDBRANCH  21  23
ENDBRANCH  18  20
ENDBRANCH   1  18
TORSDOF 9
ENDMDL
MODEL 2
REMARK VINA RESULT: -8.305226508      2.186      2.586
REMARK  9 active torsions:
REMARK  status: ('A' for Active; 'I' for Inactive)
REMARK    1  A    between atoms: N2_8  and  C5_9 
REMARK    2  A    between atoms: C5_9  and  C6_10 
REMARK    3  A    between atoms: C6_10  and  C7_11 
REMARK    4  A    between atoms: C7_11  and  N3_12 
REMARK    5  A    between atoms: N3_12  and  C8_14 
REMARK    6  A    between atoms: C8_14  and  N4_16 
REMARK    7  A    between atoms: N4_16  and  N5_18 
REMARK    8  A    between atoms: C9_20  and  C10_21 
REMARK    9  A    between atoms: C16_29  and  O2_30 
ROOT
HETATM    1  C8  UNL     1       8.329  63.670  -0.432  1.00  0.00     0.186 C 
HETATM    2  S1  UNL     1       8.471  64.691  -1.718  1.00  0.00    -0.040 SA
ENDROOT
BRANCH   1   3
HETATM    3  N3  UNL     1       9.476  63.004   0.056  1.00  0.00    -0.366 N 
ATOM      4  H3  UNL     1       9.358  62.137   0.580  1.00  0.00     0.161 HD
BRANCH   3   5
HETATM    5  C7  UNL     1      10.801  63.510  -0.162  1.00  0.00     0.123 C 
BRANCH   5   6
HETATM    6  C6  UNL     1      11.676  63.504   1.071  1.00  0.00     0.040 C 
BRANCH   6   7
HETATM    7  C5  UNL     1      12.284  64.882   1.203  1.00  0.00     0.137 C 
BRANCH   7   8
HETATM    8  N2  UNL     1      12.261  65.337   2.597  1.00  0.00    -0.282 N 
HETATM    9  C4  UNL     1      11.175  66.134   3.032  1.00  0.00     0.244 A 
HETATM   10  C3  UNL     1      11.148  66.592   4.436  1.00  0.00     0.223 A 
HETATM   11  O1  UNL     1      10.225  66.463   2.242  1.00  0.00    -0.271 OA
HETATM   12  N1  UNL     1      12.240  66.176   5.237  1.00  0.00    -0.380 N 
HETATM   13  C2  UNL     1      13.248  65.460   4.909  1.00  0.00     0.070 A 
ATOM     14  H1  UNL     1      12.220  66.490   6.207  1.00  0.00     0.160 HD
HETATM   15  C1  UNL     1      14.322  65.109   5.883  1.00  0.00     0.074 C 
HETATM   16  C17 UNL     1      13.288  65.000   3.518  1.00  0.00     0.272 A 
HETATM   17  O3  UNL     1      14.261  64.295   3.156  1.00  0.00    -0.266 OA
ENDBRANCH   7   8
ENDBRANCH   6   7
ENDBRANCH   5   6
ENDBRANCH   3   5
ENDBRANCH   1   3
BRANCH   1  18
HETATM   18  N4  UNL     1       7.076  63.450   0.187  1.00  0.00    -0.277 N 
ATOM     19  H4  UNL     1       6.540  64.254   0.515  1.00  0.00     0.189 HD
BRANCH  18  20
HETATM   20  N5  UNL     1       6.546  62.163   0.365  1.00  0.00    -0.309 N 
HETATM   21  C9  UNL     1       6.348  61.652   1.511  1.00  0.00     0.122 C 
ATOM     22  H5  UNL     1       6.309  61.613  -0.461  1.00  0.00     0.186 HD
BRANCH  21  23
HETATM   23  C10 UNL     1       5.810  60.345   1.773  1.00  0.00     0.022 A 
HETATM   24  C11 UNL     1       6.523  59.549   2.669  1.00  0.00    -0.030 A 
HETATM   25  C12 UNL     1       7.785  60.095   3.282  1.00  0.00     0.050 C 
HETATM   26  C13 UNL     1       6.089  58.289   2.991  1.00  0.00     0.019 A 
HETATM   27 BR1  UNL     1       7.086  57.237   4.212  1.00  0.00    -0.051 Br
HETATM   28  C14 UNL     1       4.934  57.810   2.418  1.00  0.00     0.041 A 
HETATM   29  C15 UNL     1       4.217  58.570   1.536  1.00  0.00     0.046 A 
HETATM   30 BR2  UNL     1       2.613  57.912   0.735  1.00  0.00    -0.048 Br
HETATM   31  C16 UNL     1       4.644  59.865   1.192  1.00  0.00     0.095 A 
BRANCH  31  32
HETATM   32  O2  UNL     1       3.900  60.579   0.314  1.00  0.00    -0.358 OA
ATOM     33  H2  UNL     1       4.264  61.233  -0.270  1.00  0.00     0.217 HD
ENDBRANCH  31  32
ENDBRANCH  21  23
ENDBRANCH  18  20
ENDBRANCH   1  18
TORSDOF 9
ENDMDL
MODEL 3
REMARK VINA RESULT: -8.187255572      2.433      3.454
REMARK  9 active torsions:
REMARK  status: ('A' for Active; 'I' for Inactive)
REMARK    1  A    between atoms: N2_8  and  C5_9 
REMARK    2  A    between atoms: C5_9  and  C6_10 
REMARK    3  A    between atoms: C6_10  and  C7_11 
REMARK    4  A    between atoms: C7_11  and  N3_12 
REMARK    5  A    between atoms: N3_12  and  C8_14 
REMARK    6  A    between atoms: C8_14  and  N4_16 
REMARK    7  A    between atoms: N4_16  and  N5_18 
REMARK    8  A    between atoms: C9_20  and  C10_21 
REMARK    9  A    between atoms: C16_29  and  O2_30 
ROOT
HETATM    1  C8  UNL     1       8.299  64.373  -0.384  1.00  0.00     0.186 C 
HETATM    2  S1  UNL     1       7.213  65.557  -0.017  1.00  0.00    -0.040 SA
ENDROOT
BRANCH   1   3
HETATM    3  N3  UNL     1       9.640  64.504   0.043  1.00  0.00    -0.366 N 
ATOM      4  H3  UNL     1       9.955  65.399   0.416  1.00  0.00     0.161 HD
BRANCH   3   5
HETATM    5  C7  UNL     1      10.573  63.415  -0.033  1.00  0.00     0.123 C 
BRANCH   5   6
HETATM    6  C6  UNL     1      11.555  63.362   1.115  1.00  0.00     0.040 C 
BRANCH   6   7
HETATM    7  C5  UNL     1      12.249  64.703   1.180  1.00  0.00     0.137 C 
BRANCH   7   8
HETATM    8  N2  UNL     1      12.144  65.287   2.522  1.00  0.00    -0.282 N 
HETATM    9  C4  UNL     1      13.164  65.010   3.463  1.00  0.00     0.244 A 
HETATM   10  C3  UNL     1      13.062  65.597   4.815  1.00  0.00     0.223 A 
HETATM   11  O1  UNL     1      14.164  64.267   3.171  1.00  0.00    -0.271 OA
HETATM   12  N1  UNL     1      11.923  66.407   5.045  1.00  0.00    -0.380 N 
HETATM   13  C2  UNL     1      10.969  66.697   4.244  1.00  0.00     0.070 A 
ATOM     14  H1  UNL     1      11.854  66.815   5.978  1.00  0.00     0.160 HD
HETATM   15  C1  UNL     1       9.832  67.573   4.649  1.00  0.00     0.074 C 
HETATM   16  C17 UNL     1      11.058  66.119   2.900  1.00  0.00     0.272 A 
HETATM   17  O3  UNL     1      10.141  66.380   2.083  1.00  0.00    -0.266 OA
ENDBRANCH   7   8
ENDBRANCH   6   7
ENDBRANCH   5   6
ENDBRANCH   3   5
ENDBRANCH   1   3
BRANCH   1  18
HETATM   18  N4  UNL     1       7.907  63.230  -1.118  1.00  0.00    -0.277 N 
ATOM     19  H4  UNL     1       8.237  63.123  -2.078  1.00  0.00     0.189 HD
BRANCH  18  20
HETATM   20  N5  UNL     1       7.078  62.237  -0.572  1.00  0.00    -0.309 N 
HETATM   21  C9  UNL     1       7.009  62.008   0.675  1.00  0.00     0.122 C 
ATOM     22  H5  UNL     1       6.507  61.676  -1.204  1.00  0.00     0.186 HD
BRANCH  21  23
HETATM   23  C10 UNL     1       6.187  61.012   1.307  1.00  0.00     0.022 A 
HETATM   24  C11 UNL     1       6.812  60.199   2.252  1.00  0.00    -0.030 A 
HETATM   25  C12 UNL     1       8.276  60.406   2.534  1.00  0.00     0.050 C 
HETATM   26  C13 UNL     1       6.113  59.224   2.915  1.00  0.00     0.019 A 
HETATM   27 BR1  UNL     1       6.999  58.138   4.191  1.00  0.00    -0.051 Br
HETATM   28  C14 UNL     1       4.777  59.052   2.640  1.00  0.00     0.041 A 
HETATM   29  C15 UNL     1       4.140  59.835   1.718  1.00  0.00     0.046 A 
HETATM   30 BR2  UNL     1       2.284  59.602   1.330  1.00  0.00    -0.048 Br
HETATM   31  C16 UNL     1       4.837  60.841   1.026  1.00  0.00     0.095 A 
BRANCH  31  32
HETATM   32  O2  UNL     1       4.163  61.591   0.123  1.00  0.00    -0.358 OA
ATOM     33  H2  UNL     1       3.652  62.357   0.357  1.00  0.00     0.217 HD
ENDBRANCH  31  32
ENDBRANCH  21  23
ENDBRANCH  18  20
ENDBRANCH   1  18
TORSDOF 9
ENDMDL
MODEL 4
REMARK VINA RESULT: -8.102590035      2.120      3.142
REMARK  9 active torsions:
REMARK  status: ('A' for Active; 'I' for Inactive)
REMARK    1  A    between atoms: N2_8  and  C5_9 
REMARK    2  A    between atoms: C5_9  and  C6_10 
REMARK    3  A    between atoms: C6_10  and  C7_11 
REMARK    4  A    between atoms: C7_11  and  N3_12 
REMARK    5  A    between atoms: N3_12  and  C8_14 
REMARK    6  A    between atoms: C8_14  and  N4_16 
REMARK    7  A    between atoms: N4_16  and  N5_18 
REMARK    8  A    between atoms: C9_20  and  C10_21 
REMARK    9  A    between atoms: C16_29  and  O2_30 
ROOT
HETATM    1  C8  UNL     1       8.543  64.076   0.312  1.00  0.00     0.186 C 
HETATM    2  S1  UNL     1       7.857  65.215  -0.662  1.00  0.00    -0.040 SA
ENDROOT
BRANCH   1   3
HETATM    3  N3  UNL     1       9.514  63.199  -0.222  1.00  0.00    -0.366 N 
ATOM      4  H3  UNL     1       9.217  62.290  -0.578  1.00  0.00     0.161 HD
BRANCH   3   5
HETATM    5  C7  UNL     1      10.906  63.547  -0.280  1.00  0.00     0.123 C 
BRANCH   5   6
HETATM    6  C6  UNL     1      11.600  63.545   1.063  1.00  0.00     0.040 C 
BRANCH   6   7
HETATM    7  C5  UNL     1      12.292  64.880   1.218  1.00  0.00     0.137 C 
BRANCH   7   8
HETATM    8  N2  UNL     1      12.261  65.332   2.613  1.00  0.00    -0.282 N 
HETATM    9  C4  UNL     1      11.157  66.103   3.050  1.00  0.00     0.244 A 
HETATM   10  C3  UNL     1      11.122  66.558   4.456  1.00  0.00     0.223 A 
HETATM   11  O1  UNL     1      10.200  66.413   2.262  1.00  0.00    -0.271 OA
HETATM   12  N1  UNL     1      12.224  66.164   5.254  1.00  0.00    -0.380 N 
HETATM   13  C2  UNL     1      13.246  65.471   4.924  1.00  0.00     0.070 A 
ATOM     14  H1  UNL     1      12.197  66.476   6.225  1.00  0.00     0.160 HD
HETATM   15  C1  UNL     1      14.329  65.143   5.897  1.00  0.00     0.074 C 
HETATM   16  C17 UNL     1      13.295  65.015   3.532  1.00  0.00     0.272 A 
HETATM   17  O3  UNL     1      14.284  64.332   3.168  1.00  0.00    -0.266 OA
ENDBRANCH   7   8
ENDBRANCH   6   7
ENDBRANCH   5   6
ENDBRANCH   3   5
ENDBRANCH   1   3
BRANCH   1  18
HETATM   18  N4  UNL     1       8.174  63.965   1.673  1.00  0.00    -0.277 N 
ATOM     19  H4  UNL     1       8.334  64.759   2.294  1.00  0.00     0.189 HD
BRANCH  18  20
HETATM   20  N5  UNL     1       7.595  62.799   2.198  1.00  0.00    -0.309 N 
HETATM   21  C9  UNL     1       6.828  62.047   1.522  1.00  0.00     0.122 C 
ATOM     22  H5  UNL     1       7.800  62.545   3.165  1.00  0.00     0.186 HD
BRANCH  21  23
HETATM   23  C10 UNL     1       6.199  60.840   1.989  1.00  0.00     0.022 A 
HETATM   24  C11 UNL     1       4.849  60.684   1.679  1.00  0.00    -0.030 A 
HETATM   25  C12 UNL     1       4.151  61.768   0.901  1.00  0.00     0.050 C 
HETATM   26  C13 UNL     1       4.161  59.566   2.072  1.00  0.00     0.019 A 
HETATM   27 BR1  UNL     1       2.326  59.390   1.632  1.00  0.00    -0.051 Br
HETATM   28  C14 UNL     1       4.818  58.589   2.784  1.00  0.00     0.041 A 
HETATM   29  C15 UNL     1       6.141  58.718   3.102  1.00  0.00     0.046 A 
HETATM   30 BR2  UNL     1       7.061  57.367   4.090  1.00  0.00    -0.048 Br
HETATM   31  C16 UNL     1       6.867  59.857   2.708  1.00  0.00     0.095 A 
BRANCH  31  32
HETATM   32  O2  UNL     1       8.175  59.939   3.046  1.00  0.00    -0.358 OA
ATOM     33  H2  UNL     1       8.560  59.461   3.771  1.00  0.00     0.217 HD
ENDBRANCH  31  32
ENDBRANCH  21  23
ENDBRANCH  18  20
ENDBRANCH   1  18
TORSDOF 9
ENDMDL
MODEL 5
REMARK VINA RESULT: -7.932939556      2.295      3.837
REMARK  9 active torsions:
REMARK  status: ('A' for Active; 'I' for Inactive)
REMARK    1  A    between atoms: N2_8  and  C5_9 
REMARK    2  A    between atoms: C5_9  and  C6_10 
REMARK    3  A    between atoms: C6_10  and  C7_11 
REMARK    4  A    between atoms: C7_11  and  N3_12 
REMARK    5  A    between atoms: N3_12  and  C8_14 
REMARK    6  A    between atoms: C8_14  and  N4_16 
REMARK    7  A    between atoms: N4_16  and  N5_18 
REMARK    8  A    between atoms: C9_20  and  C10_21 
REMARK    9  A    between atoms: C16_29  and  O2_30 
ROOT
HETATM    1  C8  UNL     1       8.423  63.851   0.130  1.00  0.00     0.186 C 
HETATM    2  S1  UNL     1       7.671  64.849  -0.946  1.00  0.00    -0.040 SA
ENDROOT
BRANCH   1   3
HETATM    3  N3  UNL     1       9.520  63.070  -0.298  1.00  0.00    -0.366 N 
ATOM      4  H3  UNL     1       9.362  62.098  -0.560  1.00  0.00     0.161 HD
BRANCH   3   5
HETATM    5  C7  UNL     1      10.851  63.604  -0.375  1.00  0.00     0.123 C 
BRANCH   5   6
HETATM    6  C6  UNL     1      11.613  63.555   0.929  1.00  0.00     0.040 C 
BRANCH   6   7
HETATM    7  C5  UNL     1      12.246  64.913   1.136  1.00  0.00     0.137 C 
BRANCH   7   8
HETATM    8  N2  UNL     1      12.007  65.404   2.497  1.00  0.00    -0.282 N 
HETATM    9  C4  UNL     1      13.002  65.186   3.480  1.00  0.00     0.244 A 
HETATM   10  C3  UNL     1      12.766  65.681   4.852  1.00  0.00     0.223 A 
HETATM   11  O1  UNL     1      14.092  64.574   3.208  1.00  0.00    -0.271 OA
HETATM   12  N1  UNL     1      11.534  66.348   5.057  1.00  0.00    -0.380 N 
HETATM   13  C2  UNL     1      10.597  66.579   4.219  1.00  0.00     0.070 A 
ATOM     14  H1  UNL     1      11.372  66.692   6.004  1.00  0.00     0.160 HD
HETATM   15  C1  UNL     1       9.350  67.303   4.602  1.00  0.00     0.074 C 
HETATM   16  C17 UNL     1      10.818  66.091   2.854  1.00  0.00     0.272 A 
HETATM   17  O3  UNL     1       9.920  66.297   2.000  1.00  0.00    -0.266 OA
ENDBRANCH   7   8
ENDBRANCH   6   7
ENDBRANCH   5   6
ENDBRANCH   3   5
ENDBRANCH   1   3
BRANCH   1  18
HETATM   18  N4  UNL     1       7.985  63.767   1.471  1.00  0.00    -0.277 N 
ATOM     19  H4  UNL     1       8.035  64.598   2.060  1.00  0.00     0.189 HD
BRANCH  18  20
HETATM   20  N5  UNL     1       7.485  62.576   2.021  1.00  0.00    -0.309 N 
HETATM   21  C9  UNL     1       6.642  61.841   1.420  1.00  0.00     0.122 C 
ATOM     22  H5  UNL     1       7.813  62.288   2.943  1.00  0.00     0.186 HD
BRANCH  21  23
HETATM   23  C10 UNL     1       6.085  60.611   1.917  1.00  0.00     0.022 A 
HETATM   24  C11 UNL     1       4.761  60.346   1.573  1.00  0.00    -0.030 A 
HETATM   25  C12 UNL     1       4.013  61.346   0.731  1.00  0.00     0.050 C 
HETATM   26  C13 UNL     1       4.141  59.197   1.991  1.00  0.00     0.019 A 
HETATM   27 BR1  UNL     1       2.338  58.873   1.504  1.00  0.00    -0.051 Br
HETATM   28  C14 UNL     1       4.842  58.299   2.761  1.00  0.00     0.041 A 
HETATM   29  C15 UNL     1       6.141  58.535   3.113  1.00  0.00     0.046 A 
HETATM   30 BR2  UNL     1       7.122  57.292   4.181  1.00  0.00    -0.048 Br
HETATM   31  C16 UNL     1       6.797  59.707   2.694  1.00  0.00     0.095 A 
BRANCH  31  32
HETATM   32  O2  UNL     1       8.085  59.896   3.067  1.00  0.00    -0.358 OA
ATOM     33  H2  UNL     1       8.339  60.348   3.863  1.00  0.00     0.217 HD
ENDBRANCH  31  32
ENDBRANCH  21  23
ENDBRANCH  18  20
ENDBRANCH   1  18
TORSDOF 9
ENDMDL
