MODEL 1
REMARK VINA RESULT: -8.449115335      0.000      0.000
REMARK  10 active torsions:
REMARK  status: ('A' for Active; 'I' for Inactive)
REMARK    1  A    between atoms: C2_2  and  O2_4 
REMARK    2  A    between atoms: O2_4  and  C3_5 
REMARK    3  A    between atoms: C3_5  and  C4_6 
REMARK       I    between atoms: N1_7  and  C5_8 
REMARK    4  A    between atoms: C5_8  and  C6_10 
REMARK    5  A    between atoms: C12_16  and  N2_17 
REMARK       I    between atoms: N3_25  and  C17_26 
REMARK    6  A    between atoms: C17_26  and  O5_28 
REMARK    7  A    between atoms: O5_28  and  C18_29 
REMARK    8  A    between atoms: C18_29  and  C19_30 
REMARK    9  A    between atoms: C25_38  and  C26_39 
REMARK   10  A    between atoms: C26_39  and  O6_40 
ROOT
HETATM    1  C4  UNL     1       7.775  63.161   1.900  1.00  0.00     0.123 C 
HETATM    2  N1  UNL     1       6.615  63.992   1.830  1.00  0.00    -0.344 N 
HETATM    3  C5  UNL     1       5.507  64.386   2.578  1.00  0.00     0.226 C 
HETATM    4  O3  UNL     1       4.709  65.209   1.968  1.00  0.00    -0.273 OA
HETATM    5  C13 UNL     1       6.818  64.624   0.454  1.00  0.00     0.127 C 
HETATM    6  C14 UNL     1       8.250  65.126   0.578  1.00  0.00     0.035 C 
HETATM    7  C15 UNL     1       8.903  64.070   1.401  1.00  0.00     0.023 C 
HETATM    8  C16 UNL     1      10.018  63.322   0.732  1.00  0.00     0.142 C 
HETATM    9  N3  UNL     1      10.970  64.077   1.509  1.00  0.00    -0.319 N 
HETATM   10  C17 UNL     1      12.383  64.270   1.391  1.00  0.00     0.363 C 
HETATM   11  O4  UNL     1      12.967  63.681   0.418  1.00  0.00    -0.238 OA
HETATM   12  C25 UNL     1       9.907  64.495   2.373  1.00  0.00     0.125 C 
ENDROOT
BRANCH   1  13
HETATM   13  C3  UNL     1       8.026  62.427   3.117  1.00  0.00     0.205 C 
BRANCH  13  14
HETATM   14  O2  UNL     1       8.072  61.048   2.960  1.00  0.00    -0.320 OA
BRANCH  14  15
HETATM   15  C2  UNL     1       7.042  60.218   3.287  1.00  0.00     0.254 C 
HETATM   16  C1  UNL     1       7.257  58.731   3.492  1.00  0.00     0.126 C 
HETATM   17  O1  UNL     1       5.873  60.635   3.437  1.00  0.00    -0.266 OA
ENDBRANCH  14  15
ENDBRANCH  13  14
ENDBRANCH   1  13
BRANCH  12  18
HETATM   18  C26 UNL     1       9.906  65.945   2.805  1.00  0.00     0.190 C 
BRANCH  18  19
HETATM   19  O6  UNL     1       9.853  66.084   4.192  1.00  0.00    -0.399 OA
ATOM     20  H6  UNL     1       9.292  66.802   4.461  1.00  0.00     0.209 HD
ENDBRANCH  18  19
ENDBRANCH  12  18
BRANCH   3  21
HETATM   21  C6  UNL     1       5.074  64.044   3.928  1.00  0.00     0.113 C 
HETATM   22  C7  UNL     1       3.630  64.385   4.232  1.00  0.00     0.001 C 
HETATM   23  C8  UNL     1       3.270  63.692   5.515  1.00  0.00     0.006 C 
HETATM   24  C11 UNL     1       3.789  65.824   4.722  1.00  0.00     0.012 C 
HETATM   25  C9  UNL     1       4.001  64.488   6.593  1.00  0.00     0.007 C 
HETATM   26  C10 UNL     1       4.802  65.508   5.810  1.00  0.00     0.017 C 
HETATM   27  C12 UNL     1       5.842  64.745   5.042  1.00  0.00     0.201 C 
BRANCH  27  28
HETATM   28  N2  UNL     1       6.857  65.640   4.591  1.00  0.00    -0.074 N 
ATOM     29  H23 UNL     1       6.826  65.729   3.576  1.00  0.00     0.274 HD
ATOM     30  H22 UNL     1       6.629  66.598   4.859  1.00  0.00     0.274 HD
ATOM     31  H21 UNL     1       7.800  65.402   4.897  1.00  0.00     0.274 HD
ENDBRANCH  27  28
ENDBRANCH   3  21
BRANCH  10  32
HETATM   32  O5  UNL     1      13.144  65.005   2.201  1.00  0.00    -0.304 OA
BRANCH  32  33
HETATM   33  C18 UNL     1      14.279  64.835   2.942  1.00  0.00     0.185 C 
BRANCH  33  34
HETATM   34  C19 UNL     1      14.367  65.379   4.328  1.00  0.00     0.010 C 
HETATM   35  C20 UNL     1      13.170  65.426   5.171  1.00  0.00     0.013 C 
HETATM   36  C21 UNL     1      13.479  65.520   6.663  1.00  0.00     0.079 C 
HETATM   37  C22 UNL     1      14.476  64.535   7.142  1.00  0.00     0.243 C 
HETATM   38  F1  UNL     1      13.893  63.703   8.086  1.00  0.00    -0.206 F 
HETATM   39  F2  UNL     1      15.583  65.161   7.723  1.00  0.00    -0.206 F 
HETATM   40  C23 UNL     1      15.039  63.716   5.972  1.00  0.00     0.079 C 
HETATM   41  C24 UNL     1      15.571  64.747   5.000  1.00  0.00     0.013 C 
ENDBRANCH  33  34
ENDBRANCH  32  33
ENDBRANCH  10  32
TORSDOF 10
ENDMDL
MODEL 2
REMARK VINA RESULT: -8.411132208      0.697      1.229
REMARK  10 active torsions:
REMARK  status: ('A' for Active; 'I' for Inactive)
REMARK    1  A    between atoms: C2_2  and  O2_4 
REMARK    2  A    between atoms: O2_4  and  C3_5 
REMARK    3  A    between atoms: C3_5  and  C4_6 
REMARK       I    between atoms: N1_7  and  C5_8 
REMARK    4  A    between atoms: C5_8  and  C6_10 
REMARK    5  A    between atoms: C12_16  and  N2_17 
REMARK       I    between atoms: N3_25  and  C17_26 
REMARK    6  A    between atoms: C17_26  and  O5_28 
REMARK    7  A    between atoms: O5_28  and  C18_29 
REMARK    8  A    between atoms: C18_29  and  C19_30 
REMARK    9  A    between atoms: C25_38  and  C26_39 
REMARK   10  A    between atoms: C26_39  and  O6_40 
ROOT
HETATM    1  C4  UNL     1       7.800  62.857   2.236  1.00  0.00     0.123 C 
HETATM    2  N1  UNL     1       6.543  63.520   2.087  1.00  0.00    -0.344 N 
HETATM    3  C5  UNL     1       5.433  63.933   2.821  1.00  0.00     0.226 C 
HETATM    4  O3  UNL     1       4.509  64.518   2.119  1.00  0.00    -0.273 OA
HETATM    5  C13 UNL     1       6.600  63.874   0.602  1.00  0.00     0.127 C 
HETATM    6  C14 UNL     1       7.963  64.548   0.520  1.00  0.00     0.035 C 
HETATM    7  C15 UNL     1       8.781  63.764   1.487  1.00  0.00     0.023 C 
HETATM    8  C16 UNL     1       9.946  63.025   0.900  1.00  0.00     0.142 C 
HETATM    9  N3  UNL     1      10.833  64.026   1.441  1.00  0.00    -0.319 N 
HETATM   10  C17 UNL     1      12.204  64.348   1.184  1.00  0.00     0.363 C 
HETATM   11  O4  UNL     1      12.809  63.640   0.308  1.00  0.00    -0.238 OA
HETATM   12  C25 UNL     1       9.770  64.490   2.279  1.00  0.00     0.125 C 
ENDROOT
BRANCH   1  13
HETATM   13  C3  UNL     1       8.199  62.422   3.554  1.00  0.00     0.205 C 
BRANCH  13  14
HETATM   14  O2  UNL     1       7.494  61.327   4.037  1.00  0.00    -0.320 OA
BRANCH  14  15
HETATM   15  C2  UNL     1       7.227  60.216   3.294  1.00  0.00     0.254 C 
HETATM   16  C1  UNL     1       5.803  59.796   2.983  1.00  0.00     0.126 C 
HETATM   17  O1  UNL     1       8.134  59.491   2.832  1.00  0.00    -0.266 OA
ENDBRANCH  14  15
ENDBRANCH  13  14
ENDBRANCH   1  13
BRANCH  12  18
HETATM   18  C26 UNL     1       9.609  65.989   2.414  1.00  0.00     0.190 C 
BRANCH  18  19
HETATM   19  O6  UNL     1       9.639  66.407   3.744  1.00  0.00    -0.399 OA
ATOM     20  H6  UNL     1      10.509  66.345   4.122  1.00  0.00     0.209 HD
ENDBRANCH  18  19
ENDBRANCH  12  18
BRANCH   3  21
HETATM   21  C6  UNL     1       5.111  63.829   4.239  1.00  0.00     0.113 C 
HETATM   22  C7  UNL     1       3.659  64.097   4.578  1.00  0.00     0.001 C 
HETATM   23  C8  UNL     1       3.442  63.644   5.994  1.00  0.00     0.006 C 
HETATM   24  C11 UNL     1       3.700  65.613   4.769  1.00  0.00     0.012 C 
HETATM   25  C9  UNL     1       4.149  64.698   6.841  1.00  0.00     0.007 C 
HETATM   26  C10 UNL     1       4.799  65.609   5.820  1.00  0.00     0.017 C 
HETATM   27  C12 UNL     1       5.866  64.803   5.138  1.00  0.00     0.201 C 
BRANCH  27  28
HETATM   28  N2  UNL     1       6.759  65.675   4.450  1.00  0.00    -0.074 N 
ATOM     29  H23 UNL     1       7.695  65.272   4.418  1.00  0.00     0.274 HD
ATOM     30  H22 UNL     1       6.541  65.691   3.453  1.00  0.00     0.274 HD
ATOM     31  H21 UNL     1       6.796  66.624   4.820  1.00  0.00     0.274 HD
ENDBRANCH  27  28
ENDBRANCH   3  21
BRANCH  10  32
HETATM   32  O5  UNL     1      12.906  65.314   1.775  1.00  0.00    -0.304 OA
BRANCH  32  33
HETATM   33  C18 UNL     1      13.151  65.742   3.048  1.00  0.00     0.185 C 
BRANCH  33  34
HETATM   34  C19 UNL     1      13.470  64.764   4.129  1.00  0.00     0.010 C 
HETATM   35  C20 UNL     1      14.842  64.278   4.292  1.00  0.00     0.013 C 
HETATM   36  C21 UNL     1      15.126  63.708   5.679  1.00  0.00     0.079 C 
HETATM   37  C22 UNL     1      14.693  64.580   6.796  1.00  0.00     0.243 C 
HETATM   38  F1  UNL     1      15.795  64.951   7.552  1.00  0.00    -0.206 F 
HETATM   39  F2  UNL     1      13.778  63.932   7.631  1.00  0.00    -0.206 F 
HETATM   40  C23 UNL     1      13.957  65.818   6.267  1.00  0.00     0.079 C 
HETATM   41  C24 UNL     1      12.836  65.266   5.413  1.00  0.00     0.013 C 
ENDBRANCH  33  34
ENDBRANCH  32  33
ENDBRANCH  10  32
TORSDOF 10
ENDMDL
MODEL 3
REMARK VINA RESULT: -8.315263016      1.219      1.530
REMARK  10 active torsions:
REMARK  status: ('A' for Active; 'I' for Inactive)
REMARK    1  A    between atoms: C2_2  and  O2_4 
REMARK    2  A    between atoms: O2_4  and  C3_5 
REMARK    3  A    between atoms: C3_5  and  C4_6 
REMARK       I    between atoms: N1_7  and  C5_8 
REMARK    4  A    between atoms: C5_8  and  C6_10 
REMARK    5  A    between atoms: C12_16  and  N2_17 
REMARK       I    between atoms: N3_25  and  C17_26 
REMARK    6  A    between atoms: C17_26  and  O5_28 
REMARK    7  A    between atoms: O5_28  and  C18_29 
REMARK    8  A    between atoms: C18_29  and  C19_30 
REMARK    9  A    between atoms: C25_38  and  C26_39 
REMARK   10  A    between atoms: C26_39  and  O6_40 
ROOT
HETATM    1  C4  UNL     1       6.612  62.667   2.475  1.00  0.00     0.123 C 
HETATM    2  N1  UNL     1       5.535  63.605   2.499  1.00  0.00    -0.344 N 
HETATM    3  C5  UNL     1       4.608  64.181   3.367  1.00  0.00     0.226 C 
HETATM    4  O3  UNL     1       3.794  65.023   2.804  1.00  0.00    -0.273 OA
HETATM    5  C13 UNL     1       5.558  64.080   1.048  1.00  0.00     0.127 C 
HETATM    6  C14 UNL     1       7.029  64.438   0.887  1.00  0.00     0.035 C 
HETATM    7  C15 UNL     1       7.715  63.401   1.707  1.00  0.00     0.023 C 
HETATM    8  C16 UNL     1       8.631  62.481   0.955  1.00  0.00     0.142 C 
HETATM    9  N3  UNL     1       9.763  63.202   1.484  1.00  0.00    -0.319 N 
HETATM   10  C17 UNL     1      11.148  63.233   1.122  1.00  0.00     0.363 C 
HETATM   11  O4  UNL     1      11.505  62.498   0.139  1.00  0.00    -0.238 OA
HETATM   12  C25 UNL     1       8.903  63.807   2.454  1.00  0.00     0.125 C 
ENDROOT
BRANCH   1  13
HETATM   13  C3  UNL     1       6.999  62.027   3.710  1.00  0.00     0.205 C 
BRANCH  13  14
HETATM   14  O2  UNL     1       6.581  60.709   3.832  1.00  0.00    -0.320 OA
BRANCH  14  15
HETATM   15  C2  UNL     1       7.317  59.643   3.407  1.00  0.00     0.254 C 
HETATM   16  C1  UNL     1       6.999  58.231   3.858  1.00  0.00     0.126 C 
HETATM   17  O1  UNL     1       8.285  59.772   2.627  1.00  0.00    -0.266 OA
ENDBRANCH  14  15
ENDBRANCH  13  14
ENDBRANCH   1  13
BRANCH  12  18
HETATM   18  C26 UNL     1       9.103  65.284   2.720  1.00  0.00     0.190 C 
BRANCH  18  19
HETATM   19  O6  UNL     1       8.488  65.697   3.901  1.00  0.00    -0.399 OA
ATOM     20  H6  UNL     1       7.559  65.501   3.912  1.00  0.00     0.209 HD
ENDBRANCH  18  19
ENDBRANCH  12  18
BRANCH   3  21
HETATM   21  C6  UNL     1       4.380  64.014   4.797  1.00  0.00     0.113 C 
HETATM   22  C7  UNL     1       2.926  64.075   5.215  1.00  0.00     0.001 C 
HETATM   23  C8  UNL     1       2.849  63.577   6.630  1.00  0.00     0.006 C 
HETATM   24  C11 UNL     1       2.770  65.580   5.436  1.00  0.00     0.012 C 
HETATM   25  C9  UNL     1       3.450  64.706   7.463  1.00  0.00     0.007 C 
HETATM   26  C10 UNL     1       3.914  65.711   6.429  1.00  0.00     0.017 C 
HETATM   27  C12 UNL     1       5.043  65.069   5.677  1.00  0.00     0.201 C 
BRANCH  27  28
HETATM   28  N2  UNL     1       5.771  66.066   4.962  1.00  0.00    -0.074 N 
ATOM     29  H23 UNL     1       6.751  65.797   4.878  1.00  0.00     0.274 HD
ATOM     30  H22 UNL     1       5.503  66.062   3.978  1.00  0.00     0.274 HD
ATOM     31  H21 UNL     1       5.693  67.006   5.348  1.00  0.00     0.274 HD
ENDBRANCH  27  28
ENDBRANCH   3  21
BRANCH  10  32
HETATM   32  O5  UNL     1      12.096  63.956   1.715  1.00  0.00    -0.304 OA
BRANCH  32  33
HETATM   33  C18 UNL     1      12.356  65.277   1.946  1.00  0.00     0.185 C 
BRANCH  33  34
HETATM   34  C19 UNL     1      13.140  65.696   3.144  1.00  0.00     0.010 C 
HETATM   35  C20 UNL     1      12.557  65.559   4.482  1.00  0.00     0.013 C 
HETATM   36  C21 UNL     1      13.596  65.542   5.600  1.00  0.00     0.079 C 
HETATM   37  C22 UNL     1      14.723  64.608   5.370  1.00  0.00     0.243 C 
HETATM   38  F1  UNL     1      14.741  63.644   6.368  1.00  0.00    -0.206 F 
HETATM   39  F2  UNL     1      15.953  65.273   5.371  1.00  0.00    -0.206 F 
HETATM   40  C23 UNL     1      14.615  63.953   3.986  1.00  0.00     0.079 C 
HETATM   41  C24 UNL     1      14.535  65.112   3.016  1.00  0.00     0.013 C 
ENDBRANCH  33  34
ENDBRANCH  32  33
ENDBRANCH  10  32
TORSDOF 10
ENDMDL
MODEL 4
REMARK VINA RESULT: -8.019199888      0.954      1.156
REMARK  10 active torsions:
REMARK  status: ('A' for Active; 'I' for Inactive)
REMARK    1  A    between atoms: C2_2  and  O2_4 
REMARK    2  A    between atoms: O2_4  and  C3_5 
REMARK    3  A    between atoms: C3_5  and  C4_6 
REMARK       I    between atoms: N1_7  and  C5_8 
REMARK    4  A    between atoms: C5_8  and  C6_10 
REMARK    5  A    between atoms: C12_16  and  N2_17 
REMARK       I    between atoms: N3_25  and  C17_26 
REMARK    6  A    between atoms: C17_26  and  O5_28 
REMARK    7  A    between atoms: O5_28  and  C18_29 
REMARK    8  A    between atoms: C18_29  and  C19_30 
REMARK    9  A    between atoms: C25_38  and  C26_39 
REMARK   10  A    between atoms: C26_39  and  O6_40 
ROOT
HETATM    1  C4  UNL     1       7.990  63.331   2.138  1.00  0.00     0.123 C 
HETATM    2  N1  UNL     1       6.806  64.044   1.777  1.00  0.00    -0.344 N 
HETATM    3  C5  UNL     1       5.537  64.368   2.257  1.00  0.00     0.226 C 
HETATM    4  O3  UNL     1       4.819  65.081   1.443  1.00  0.00    -0.273 OA
HETATM    5  C13 UNL     1       7.239  64.626   0.433  1.00  0.00     0.127 C 
HETATM    6  C14 UNL     1       8.567  65.267   0.813  1.00  0.00     0.035 C 
HETATM    7  C15 UNL     1       9.118  64.318   1.820  1.00  0.00     0.023 C 
HETATM    8  C16 UNL     1      10.406  63.647   1.444  1.00  0.00     0.142 C 
HETATM    9  N3  UNL     1      11.109  64.526   2.347  1.00  0.00    -0.319 N 
HETATM   10  C17 UNL     1      12.495  64.846   2.507  1.00  0.00     0.363 C 
HETATM   11  O4  UNL     1      13.316  64.269   1.714  1.00  0.00    -0.238 OA
HETATM   12  C25 UNL     1       9.858  64.882   2.946  1.00  0.00     0.125 C 
ENDROOT
BRANCH   1  13
HETATM   13  C3  UNL     1       8.040  62.683   3.427  1.00  0.00     0.205 C 
BRANCH  13  14
HETATM   14  O2  UNL     1       8.183  61.303   3.374  1.00  0.00    -0.320 OA
BRANCH  14  15
HETATM   15  C2  UNL     1       7.132  60.436   3.407  1.00  0.00     0.254 C 
HETATM   16  C1  UNL     1       7.344  58.935   3.423  1.00  0.00     0.126 C 
HETATM   17  O1  UNL     1       5.945  60.829   3.427  1.00  0.00    -0.266 OA
ENDBRANCH  14  15
ENDBRANCH  13  14
ENDBRANCH   1  13
BRANCH  12  18
HETATM   18  C26 UNL     1       9.647  66.345   3.271  1.00  0.00     0.190 C 
BRANCH  18  19
HETATM   19  O6  UNL     1       9.359  66.551   4.620  1.00  0.00    -0.399 OA
ATOM     20  H6  UNL     1      10.092  66.330   5.183  1.00  0.00     0.209 HD
ENDBRANCH  18  19
ENDBRANCH  12  18
BRANCH   3  21
HETATM   21  C6  UNL     1       4.861  64.051   3.509  1.00  0.00     0.113 C 
HETATM   22  C7  UNL     1       3.360  64.251   3.483  1.00  0.00     0.001 C 
HETATM   23  C8  UNL     1       2.803  63.591   4.712  1.00  0.00     0.006 C 
HETATM   24  C11 UNL     1       3.275  65.723   3.890  1.00  0.00     0.012 C 
HETATM   25  C9  UNL     1       3.210  64.515   5.856  1.00  0.00     0.007 C 
HETATM   26  C10 UNL     1       4.060  65.573   5.183  1.00  0.00     0.017 C 
HETATM   27  C12 UNL     1       5.306  64.887   4.704  1.00  0.00     0.201 C 
BRANCH  27  28
HETATM   28  N2  UNL     1       6.305  65.861   4.408  1.00  0.00    -0.074 N 
ATOM     29  H23 UNL     1       7.064  65.440   3.873  1.00  0.00     0.274 HD
ATOM     30  H22 UNL     1       5.955  66.529   3.720  1.00  0.00     0.274 HD
ATOM     31  H21 UNL     1       6.675  66.351   5.222  1.00  0.00     0.274 HD
ENDBRANCH  27  28
ENDBRANCH   3  21
BRANCH  10  32
HETATM   32  O5  UNL     1      13.006  65.687   3.404  1.00  0.00    -0.304 OA
BRANCH  32  33
HETATM   33  C18 UNL     1      12.880  65.927   4.743  1.00  0.00     0.185 C 
BRANCH  33  34
HETATM   34  C19 UNL     1      14.019  65.662   5.670  1.00  0.00     0.010 C 
HETATM   35  C20 UNL     1      13.776  64.993   6.951  1.00  0.00     0.013 C 
HETATM   36  C21 UNL     1      15.025  64.351   7.550  1.00  0.00     0.079 C 
HETATM   37  C22 UNL     1      15.790  63.508   6.602  1.00  0.00     0.243 C 
HETATM   38  F1  UNL     1      15.818  62.199   7.061  1.00  0.00    -0.206 F 
HETATM   39  F2  UNL     1      17.105  63.957   6.457  1.00  0.00    -0.206 F 
HETATM   40  C23 UNL     1      15.178  63.575   5.196  1.00  0.00     0.079 C 
HETATM   41  C24 UNL     1      15.147  65.050   4.859  1.00  0.00     0.013 C 
ENDBRANCH  33  34
ENDBRANCH  32  33
ENDBRANCH  10  32
TORSDOF 10
ENDMDL
MODEL 5
REMARK VINA RESULT: -7.733890789      4.879      8.025
REMARK  10 active torsions:
REMARK  status: ('A' for Active; 'I' for Inactive)
REMARK    1  A    between atoms: C2_2  and  O2_4 
REMARK    2  A    between atoms: O2_4  and  C3_5 
REMARK    3  A    between atoms: C3_5  and  C4_6 
REMARK       I    between atoms: N1_7  and  C5_8 
REMARK    4  A    between atoms: C5_8  and  C6_10 
REMARK    5  A    between atoms: C12_16  and  N2_17 
REMARK       I    between atoms: N3_25  and  C17_26 
REMARK    6  A    between atoms: C17_26  and  O5_28 
REMARK    7  A    between atoms: O5_28  and  C18_29 
REMARK    8  A    between atoms: C18_29  and  C19_30 
REMARK    9  A    between atoms: C25_38  and  C26_39 
REMARK   10  A    between atoms: C26_39  and  O6_40 
ROOT
HETATM    1  C4  UNL     1       8.545  67.599   1.614  1.00  0.00     0.123 C 
HETATM    2  N1  UNL     1       8.844  68.678   2.501  1.00  0.00    -0.344 N 
HETATM    3  C5  UNL     1       8.336  69.896   2.950  1.00  0.00     0.226 C 
HETATM    4  O3  UNL     1       9.090  70.510   3.811  1.00  0.00    -0.273 OA
HETATM    5  C13 UNL     1      10.142  68.164   3.123  1.00  0.00     0.127 C 
HETATM    6  C14 UNL     1       9.718  66.766   3.553  1.00  0.00     0.035 C 
HETATM    7  C15 UNL     1       8.790  66.350   2.466  1.00  0.00     0.023 C 
HETATM    8  C16 UNL     1       9.222  65.158   1.664  1.00  0.00     0.142 C 
HETATM    9  N3  UNL     1       8.256  64.352   2.371  1.00  0.00    -0.319 N 
HETATM   10  C17 UNL     1       8.078  62.937   2.493  1.00  0.00     0.363 C 
HETATM   11  O4  UNL     1       8.916  62.194   1.877  1.00  0.00    -0.238 OA
HETATM   12  C25 UNL     1       7.627  65.549   2.840  1.00  0.00     0.125 C 
ENDROOT
BRANCH   1  13
HETATM   13  C3  UNL     1       7.310  67.642   0.867  1.00  0.00     0.205 C 
BRANCH  13  14
HETATM   14  O2  UNL     1       7.427  68.170  -0.412  1.00  0.00    -0.320 OA
BRANCH  14  15
HETATM   15  C2  UNL     1       7.097  69.454  -0.729  1.00  0.00     0.254 C 
HETATM   16  C1  UNL     1       5.651  69.904  -0.806  1.00  0.00     0.126 C 
HETATM   17  O1  UNL     1       7.963  70.323  -0.970  1.00  0.00    -0.266 OA
ENDBRANCH  14  15
ENDBRANCH  13  14
ENDBRANCH   1  13
BRANCH  12  18
HETATM   18  C26 UNL     1       7.188  65.569   4.288  1.00  0.00     0.190 C 
BRANCH  18  19
HETATM   19  O6  UNL     1       6.455  66.713   4.603  1.00  0.00    -0.399 OA
ATOM     20  H6  UNL     1       5.678  66.514   5.112  1.00  0.00     0.209 HD
ENDBRANCH  18  19
ENDBRANCH  12  18
BRANCH   3  21
HETATM   21  C6  UNL     1       7.110  70.616   2.628  1.00  0.00     0.113 C 
HETATM   22  C7  UNL     1       7.285  72.107   2.436  1.00  0.00     0.001 C 
HETATM   23  C8  UNL     1       6.022  72.627   1.812  1.00  0.00     0.006 C 
HETATM   24  C11 UNL     1       7.109  72.589   3.876  1.00  0.00     0.012 C 
HETATM   25  C9  UNL     1       4.997  72.587   2.943  1.00  0.00     0.007 C 
HETATM   26  C10 UNL     1       5.748  71.946   4.091  1.00  0.00     0.017 C 
HETATM   27  C12 UNL     1       6.019  70.525   3.691  1.00  0.00     0.201 C 
BRANCH  27  28
HETATM   28  N2  UNL     1       6.375  69.762   4.842  1.00  0.00    -0.074 N 
ATOM     29  H23 UNL     1       5.612  69.765   5.519  1.00  0.00     0.274 HD
ATOM     30  H22 UNL     1       6.404  68.769   4.614  1.00  0.00     0.274 HD
ATOM     31  H21 UNL     1       7.246  70.049   5.289  1.00  0.00     0.274 HD
ENDBRANCH  27  28
ENDBRANCH   3  21
BRANCH  10  32
HETATM   32  O5  UNL     1       7.120  62.326   3.188  1.00  0.00    -0.304 OA
BRANCH  32  33
HETATM   33  C18 UNL     1       6.234  61.305   2.995  1.00  0.00     0.185 C 
BRANCH  33  34
HETATM   34  C19 UNL     1       6.721  59.916   2.752  1.00  0.00     0.010 C 
HETATM   35  C20 UNL     1       7.051  59.049   3.886  1.00  0.00     0.013 C 
HETATM   36  C21 UNL     1       7.046  57.562   3.539  1.00  0.00     0.079 C 
HETATM   37  C22 UNL     1       5.837  57.112   2.809  1.00  0.00     0.243 C 
HETATM   38  F1  UNL     1       5.163  56.164   3.565  1.00  0.00    -0.206 F 
HETATM   39  F2  UNL     1       6.162  56.547   1.573  1.00  0.00    -0.206 F 
HETATM   40  C23 UNL     1       4.921  58.300   2.487  1.00  0.00     0.079 C 
HETATM   41  C24 UNL     1       5.800  59.272   1.731  1.00  0.00     0.013 C 
ENDBRANCH  33  34
ENDBRANCH  32  33
ENDBRANCH  10  32
TORSDOF 10
ENDMDL
