MODEL 1
REMARK VINA RESULT: -7.954398149      0.000      0.000
REMARK  9 active torsions:
REMARK  status: ('A' for Active; 'I' for Inactive)
REMARK    1  A    between atoms: C1_2  and  C2_3 
REMARK       I    between atoms: C1_2  and  N1_10 
REMARK    2  A    between atoms: C2_3  and  C3_4 
REMARK    3  A    between atoms: N1_10  and  C7_12 
REMARK    4  A    between atoms: C10_16  and  C11_17 
REMARK    5  A    between atoms: C11_17  and  C12_18 
REMARK    6  A    between atoms: C12_18  and  C13_19 
REMARK    7  A    between atoms: C13_19  and  C14_20 
REMARK    8  A    between atoms: C14_20  and  C15_21 
REMARK       I    between atoms: N4_27  and  C17_29 
REMARK    9  A    between atoms: C17_29  and  C18_31 
ROOT
HETATM    1  C7  UNL     1      10.078  66.947   3.670  1.00  0.00     0.123 A 
HETATM    2  C8  UNL     1       9.305  68.007   4.138  1.00  0.00     0.071 A 
HETATM    3  C9  UNL     1       8.504  68.770   3.319  1.00  0.00     0.038 A 
HETATM    4 BR1  UNL     1       7.486  70.200   4.067  1.00  0.00    -0.049 Br
HETATM    5  C10 UNL     1       8.483  68.456   1.977  1.00  0.00     0.043 A 
HETATM    6  N5  UNL     1       9.240  67.428   1.562  1.00  0.00    -0.302 N 
ATOM      7  H5  UNL     1       9.223  67.194   0.569  1.00  0.00     0.186 HD
HETATM    8  N6  UNL     1      10.004  66.701   2.351  1.00  0.00    -0.285 N 
ATOM      9  H6  UNL     1      10.549  65.936   1.954  1.00  0.00     0.188 HD
ENDROOT
BRANCH   5  10
HETATM   10  C11 UNL     1       7.641  69.253   1.079  1.00  0.00     0.060 C 
BRANCH  10  11
HETATM   11  C12 UNL     1       6.421  68.558   0.571  1.00  0.00     0.006 C 
BRANCH  11  12
HETATM   12  C13 UNL     1       5.339  68.434   1.616  1.00  0.00     0.007 C 
BRANCH  12  13
HETATM   13  C14 UNL     1       4.781  67.037   1.723  1.00  0.00     0.066 C 
BRANCH  13  14
HETATM   14  C15 UNL     1       5.810  66.089   2.288  1.00  0.00     0.069 A 
HETATM   15  N2  UNL     1       6.260  65.963   3.527  1.00  0.00    -0.296 N 
HETATM   16  N3  UNL     1       7.138  65.095   3.807  1.00  0.00    -0.279 N 
ATOM     17  H2  UNL     1       5.896  66.570   4.262  1.00  0.00     0.187 HD
HETATM   18  C16 UNL     1       7.600  64.312   2.829  1.00  0.00     0.168 A 
ATOM     19  H3  UNL     1       7.485  64.997   4.760  1.00  0.00     0.189 HD
HETATM   20  N4  UNL     1       8.501  63.359   2.902  1.00  0.00    -0.297 N 
HETATM   21  S1  UNL     1       6.712  64.880   1.482  1.00  0.00    -0.038 SA
HETATM   22  C17 UNL     1       8.858  62.635   1.733  1.00  0.00     0.324 C 
ATOM     23  H4  UNL     1       8.943  63.140   3.795  1.00  0.00     0.171 HD
HETATM   24  O3  UNL     1       8.634  61.398   1.700  1.00  0.00    -0.260 OA
BRANCH  22  25
HETATM   25  C18 UNL     1       9.473  63.305   0.585  1.00  0.00     0.270 C 
HETATM   26  O4  UNL     1       9.269  62.957  -0.585  1.00  0.00    -0.640 OA
HETATM   27  O5  UNL     1      10.324  64.381   0.801  1.00  0.00    -0.640 OA
ENDBRANCH  22  25
ENDBRANCH  13  14
ENDBRANCH  12  13
ENDBRANCH  11  12
ENDBRANCH  10  11
ENDBRANCH   5  10
BRANCH   1  28
HETATM   28  N1  UNL     1      10.821  66.259   4.471  1.00  0.00    -0.312 N 
HETATM   29  C1  UNL     1      11.819  65.360   4.028  1.00  0.00     0.229 C 
HETATM   30  O1  UNL     1      11.445  64.218   3.647  1.00  0.00    -0.273 OA
ATOM     31  H1  UNL     1      10.680  66.370   5.474  1.00  0.00     0.170 HD
BRANCH  29  32
HETATM   32  C2  UNL     1      13.255  65.705   4.000  1.00  0.00     0.168 C 
BRANCH  32  33
HETATM   33  C3  UNL     1      13.963  65.049   5.130  1.00  0.00     0.063 A 
HETATM   34  C4  UNL     1      15.030  64.182   5.016  1.00  0.00     0.059 A 
HETATM   35  C5  UNL     1      15.392  63.799   6.300  1.00  0.00     0.058 A 
HETATM   36 CL1  UNL     1      16.657  62.727   6.810  1.00  0.00    -0.082 Cl
HETATM   37  C6  UNL     1      14.525  64.455   7.135  1.00  0.00     0.166 A 
HETATM   38  O2  UNL     1      13.707  65.174   6.405  1.00  0.00    -0.325 OA
ENDBRANCH  32  33
ENDBRANCH  29  32
ENDBRANCH   1  28
TORSDOF 9
ENDMDL
MODEL 2
REMARK VINA RESULT: -7.926495780      3.688      5.973
REMARK  9 active torsions:
REMARK  status: ('A' for Active; 'I' for Inactive)
REMARK    1  A    between atoms: C1_2  and  C2_3 
REMARK       I    between atoms: C1_2  and  N1_10 
REMARK    2  A    between atoms: C2_3  and  C3_4 
REMARK    3  A    between atoms: N1_10  and  C7_12 
REMARK    4  A    between atoms: C10_16  and  C11_17 
REMARK    5  A    between atoms: C11_17  and  C12_18 
REMARK    6  A    between atoms: C12_18  and  C13_19 
REMARK    7  A    between atoms: C13_19  and  C14_20 
REMARK    8  A    between atoms: C14_20  and  C15_21 
REMARK       I    between atoms: N4_27  and  C17_29 
REMARK    9  A    between atoms: C17_29  and  C18_31 
ROOT
HETATM    1  C7  UNL     1       7.124  64.422   2.740  1.00  0.00     0.123 A 
HETATM    2  C8  UNL     1       6.709  65.224   1.679  1.00  0.00     0.071 A 
HETATM    3  C9  UNL     1       6.528  66.583   1.794  1.00  0.00     0.038 A 
HETATM    4 BR1  UNL     1       5.957  67.586   0.275  1.00  0.00    -0.049 Br
HETATM    5  C10 UNL     1       6.772  67.157   3.023  1.00  0.00     0.043 A 
HETATM    6  N5  UNL     1       7.171  66.353   4.022  1.00  0.00    -0.302 N 
ATOM      7  H5  UNL     1       7.353  66.778   4.931  1.00  0.00     0.186 HD
HETATM    8  N6  UNL     1       7.343  65.052   3.905  1.00  0.00    -0.285 N 
ATOM      9  H6  UNL     1       7.648  64.514   4.716  1.00  0.00     0.188 HD
ENDROOT
BRANCH   5  10
HETATM   10  C11 UNL     1       6.586  68.603   3.177  1.00  0.00     0.060 C 
BRANCH  10  11
HETATM   11  C12 UNL     1       7.794  69.354   3.631  1.00  0.00     0.006 C 
BRANCH  11  12
HETATM   12  C13 UNL     1       8.955  69.233   2.673  1.00  0.00     0.007 C 
BRANCH  12  13
HETATM   13  C14 UNL     1      10.241  68.838   3.353  1.00  0.00     0.066 C 
BRANCH  13  14
HETATM   14  C15 UNL     1      10.455  67.347   3.275  1.00  0.00     0.069 A 
HETATM   15  N2  UNL     1      10.749  66.479   4.230  1.00  0.00    -0.296 N 
HETATM   16  N3  UNL     1      10.891  65.250   3.961  1.00  0.00    -0.279 N 
ATOM     17  H2  UNL     1      10.861  66.802   5.191  1.00  0.00     0.187 HD
HETATM   18  C16 UNL     1      10.740  64.849   2.696  1.00  0.00     0.168 A 
ATOM     19  H3  UNL     1      11.116  64.580   4.695  1.00  0.00     0.189 HD
HETATM   20  N4  UNL     1      10.843  63.635   2.206  1.00  0.00    -0.297 N 
HETATM   21  S1  UNL     1      10.381  66.323   1.907  1.00  0.00    -0.038 SA
HETATM   22  C17 UNL     1      10.644  63.416   0.816  1.00  0.00     0.324 C 
ATOM     23  H4  UNL     1      11.065  62.852   2.820  1.00  0.00     0.171 HD
HETATM   24  O3  UNL     1       9.691  62.680   0.453  1.00  0.00    -0.260 OA
BRANCH  22  25
HETATM   25  C18 UNL     1      11.522  64.032  -0.182  1.00  0.00     0.270 C 
HETATM   26  O4  UNL     1      12.756  64.014  -0.095  1.00  0.00    -0.640 OA
HETATM   27  O5  UNL     1      10.960  64.669  -1.281  1.00  0.00    -0.640 OA
ENDBRANCH  22  25
ENDBRANCH  13  14
ENDBRANCH  12  13
ENDBRANCH  11  12
ENDBRANCH  10  11
ENDBRANCH   5  10
BRANCH   1  28
HETATM   28  N1  UNL     1       7.276  63.148   2.592  1.00  0.00    -0.312 N 
HETATM   29  C1  UNL     1       7.739  62.294   3.622  1.00  0.00     0.229 C 
HETATM   30  O1  UNL     1       8.980  62.260   3.834  1.00  0.00    -0.273 OA
ATOM     31  H1  UNL     1       7.052  62.737   1.687  1.00  0.00     0.170 HD
BRANCH  29  32
HETATM   32  C2  UNL     1       6.834  61.459   4.438  1.00  0.00     0.168 C 
BRANCH  32  33
HETATM   33  C3  UNL     1       6.319  60.322   3.631  1.00  0.00     0.063 A 
HETATM   34  C4  UNL     1       6.652  58.996   3.806  1.00  0.00     0.059 A 
HETATM   35  C5  UNL     1       5.956  58.263   2.853  1.00  0.00     0.058 A 
HETATM   36 CL1  UNL     1       5.958  56.553   2.567  1.00  0.00    -0.082 Cl
HETATM   37  C6  UNL     1       5.231  59.186   2.143  1.00  0.00     0.166 A 
HETATM   38  O2  UNL     1       5.475  60.376   2.634  1.00  0.00    -0.325 OA
ENDBRANCH  32  33
ENDBRANCH  29  32
ENDBRANCH   1  28
TORSDOF 9
ENDMDL
MODEL 3
REMARK VINA RESULT: -7.855356731      3.161      4.972
REMARK  9 active torsions:
REMARK  status: ('A' for Active; 'I' for Inactive)
REMARK    1  A    between atoms: C1_2  and  C2_3 
REMARK       I    between atoms: C1_2  and  N1_10 
REMARK    2  A    between atoms: C2_3  and  C3_4 
REMARK    3  A    between atoms: N1_10  and  C7_12 
REMARK    4  A    between atoms: C10_16  and  C11_17 
REMARK    5  A    between atoms: C11_17  and  C12_18 
REMARK    6  A    between atoms: C12_18  and  C13_19 
REMARK    7  A    between atoms: C13_19  and  C14_20 
REMARK    8  A    between atoms: C14_20  and  C15_21 
REMARK       I    between atoms: N4_27  and  C17_29 
REMARK    9  A    between atoms: C17_29  and  C18_31 
ROOT
HETATM    1  C7  UNL     1      10.178  62.692   0.862  1.00  0.00     0.123 A 
HETATM    2  C8  UNL     1       9.367  61.920   1.690  1.00  0.00     0.071 A 
HETATM    3  C9  UNL     1       8.045  61.660   1.414  1.00  0.00     0.038 A 
HETATM    4 BR1  UNL     1       7.026  60.589   2.620  1.00  0.00    -0.049 Br
HETATM    5  C10 UNL     1       7.517  62.198   0.260  1.00  0.00     0.043 A 
HETATM    6  N5  UNL     1       8.328  62.936  -0.515  1.00  0.00    -0.302 N 
ATOM      7  H5  UNL     1       7.938  63.334  -1.370  1.00  0.00     0.186 HD
HETATM    8  N6  UNL     1       9.594  63.181  -0.244  1.00  0.00    -0.285 N 
ATOM      9  H6  UNL     1      10.141  63.754  -0.888  1.00  0.00     0.188 HD
ENDROOT
BRANCH   5  10
HETATM   10  C11 UNL     1       6.110  61.940  -0.061  1.00  0.00     0.060 C 
BRANCH  10  11
HETATM   11  C12 UNL     1       5.322  63.141  -0.470  1.00  0.00     0.006 C 
BRANCH  11  12
HETATM   12  C13 UNL     1       4.941  64.019   0.698  1.00  0.00     0.007 C 
BRANCH  12  13
HETATM   13  C14 UNL     1       5.592  65.378   0.649  1.00  0.00     0.066 C 
BRANCH  13  14
HETATM   14  C15 UNL     1       6.591  65.537   1.769  1.00  0.00     0.069 A 
HETATM   15  N2  UNL     1       6.808  64.774   2.829  1.00  0.00    -0.296 N 
HETATM   16  N3  UNL     1       7.705  65.079   3.668  1.00  0.00    -0.279 N 
ATOM     17  H2  UNL     1       6.248  63.932   2.970  1.00  0.00     0.187 HD
HETATM   18  C16 UNL     1       8.425  66.185   3.463  1.00  0.00     0.168 A 
ATOM     19  H3  UNL     1       7.874  64.492   4.484  1.00  0.00     0.189 HD
HETATM   20  N4  UNL     1       9.392  66.679   4.202  1.00  0.00    -0.297 N 
HETATM   21  S1  UNL     1       7.753  66.769   2.003  1.00  0.00    -0.038 SA
HETATM   22  C17 UNL     1      10.039  67.881   3.806  1.00  0.00     0.324 C 
ATOM     23  H4  UNL     1       9.678  66.201   5.056  1.00  0.00     0.171 HD
HETATM   24  O3  UNL     1      11.267  67.843   3.540  1.00  0.00    -0.260 OA
BRANCH  22  25
HETATM   25  C18 UNL     1       9.299  69.141   3.704  1.00  0.00     0.270 C 
HETATM   26  O4  UNL     1       8.414  69.468   4.505  1.00  0.00    -0.640 OA
HETATM   27  O5  UNL     1       9.593  70.020   2.670  1.00  0.00    -0.640 OA
ENDBRANCH  22  25
ENDBRANCH  13  14
ENDBRANCH  12  13
ENDBRANCH  11  12
ENDBRANCH  10  11
ENDBRANCH   5  10
BRANCH   1  28
HETATM   28  N1  UNL     1      11.414  62.917   1.160  1.00  0.00    -0.312 N 
HETATM   29  C1  UNL     1      12.111  64.084   0.765  1.00  0.00     0.229 C 
HETATM   30  O1  UNL     1      12.552  64.126  -0.415  1.00  0.00    -0.273 OA
ATOM     31  H1  UNL     1      11.913  62.218   1.709  1.00  0.00     0.170 HD
BRANCH  29  32
HETATM   32  C2  UNL     1      12.335  65.229   1.670  1.00  0.00     0.168 C 
BRANCH  32  33
HETATM   33  C3  UNL     1      13.330  64.871   2.714  1.00  0.00     0.063 A 
HETATM   34  C4  UNL     1      13.195  65.103   4.067  1.00  0.00     0.059 A 
HETATM   35  C5  UNL     1      14.339  64.619   4.688  1.00  0.00     0.058 A 
HETATM   36 CL1  UNL     1      14.759  64.622   6.370  1.00  0.00    -0.082 Cl
HETATM   37  C6  UNL     1      15.115  64.113   3.677  1.00  0.00     0.166 A 
HETATM   38  O2  UNL     1      14.484  64.283   2.541  1.00  0.00    -0.325 OA
ENDBRANCH  32  33
ENDBRANCH  29  32
ENDBRANCH   1  28
TORSDOF 9
ENDMDL
MODEL 4
REMARK VINA RESULT: -7.844390197      1.524      1.863
REMARK  9 active torsions:
REMARK  status: ('A' for Active; 'I' for Inactive)
REMARK    1  A    between atoms: C1_2  and  C2_3 
REMARK       I    between atoms: C1_2  and  N1_10 
REMARK    2  A    between atoms: C2_3  and  C3_4 
REMARK    3  A    between atoms: N1_10  and  C7_12 
REMARK    4  A    between atoms: C10_16  and  C11_17 
REMARK    5  A    between atoms: C11_17  and  C12_18 
REMARK    6  A    between atoms: C12_18  and  C13_19 
REMARK    7  A    between atoms: C13_19  and  C14_20 
REMARK    8  A    between atoms: C14_20  and  C15_21 
REMARK       I    between atoms: N4_27  and  C17_29 
REMARK    9  A    between atoms: C17_29  and  C18_31 
ROOT
HETATM    1  C7  UNL     1       9.920  67.064   3.828  1.00  0.00     0.123 A 
HETATM    2  C8  UNL     1       8.849  67.836   4.273  1.00  0.00     0.071 A 
HETATM    3  C9  UNL     1       8.071  68.596   3.429  1.00  0.00     0.038 A 
HETATM    4 BR1  UNL     1       6.628  69.617   4.146  1.00  0.00    -0.049 Br
HETATM    5  C10 UNL     1       8.384  68.578   2.087  1.00  0.00     0.043 A 
HETATM    6  N5  UNL     1       9.422  67.822   1.695  1.00  0.00    -0.302 N 
ATOM      7  H5  UNL     1       9.652  67.808   0.701  1.00  0.00     0.186 HD
HETATM    8  N6  UNL     1      10.162  67.097   2.508  1.00  0.00    -0.285 N 
ATOM      9  H6  UNL     1      10.934  66.550   2.127  1.00  0.00     0.188 HD
ENDROOT
BRANCH   5  10
HETATM   10  C11 UNL     1       7.574  69.379   1.163  1.00  0.00     0.060 C 
BRANCH  10  11
HETATM   11  C12 UNL     1       6.435  68.655   0.526  1.00  0.00     0.006 C 
BRANCH  11  12
HETATM   12  C13 UNL     1       6.830  67.944  -0.747  1.00  0.00     0.007 C 
BRANCH  12  13
HETATM   13  C14 UNL     1       6.362  66.512  -0.790  1.00  0.00     0.066 C 
BRANCH  13  14
HETATM   14  C15 UNL     1       7.268  65.625   0.029  1.00  0.00     0.069 A 
HETATM   15  N2  UNL     1       7.090  65.112   1.236  1.00  0.00    -0.296 N 
HETATM   16  N3  UNL     1       7.980  64.382   1.761  1.00  0.00    -0.279 N 
ATOM     17  H2  UNL     1       6.229  65.307   1.747  1.00  0.00     0.187 HD
HETATM   18  C16 UNL     1       9.100  64.140   1.075  1.00  0.00     0.168 A 
ATOM     19  H3  UNL     1       7.844  63.985   2.691  1.00  0.00     0.189 HD
HETATM   20  N4  UNL     1      10.137  63.418   1.431  1.00  0.00    -0.297 N 
HETATM   21  S1  UNL     1       8.815  65.014  -0.368  1.00  0.00    -0.038 SA
HETATM   22  C17 UNL     1      11.241  63.285   0.546  1.00  0.00     0.324 C 
ATOM     23  H4  UNL     1      10.150  62.954   2.339  1.00  0.00     0.171 HD
HETATM   24  O3  UNL     1      11.531  62.140   0.114  1.00  0.00    -0.260 OA
BRANCH  22  25
HETATM   25  C18 UNL     1      12.030  64.450   0.139  1.00  0.00     0.270 C 
HETATM   26  O4  UNL     1      12.192  65.440   0.863  1.00  0.00    -0.640 OA
HETATM   27  O5  UNL     1      12.631  64.459  -1.114  1.00  0.00    -0.640 OA
ENDBRANCH  22  25
ENDBRANCH  13  14
ENDBRANCH  12  13
ENDBRANCH  11  12
ENDBRANCH  10  11
ENDBRANCH   5  10
BRANCH   1  28
HETATM   28  N1  UNL     1      10.629  66.370   4.654  1.00  0.00    -0.312 N 
HETATM   29  C1  UNL     1      11.699  65.536   4.252  1.00  0.00     0.229 C 
HETATM   30  O1  UNL     1      11.410  64.400   3.790  1.00  0.00    -0.273 OA
ATOM     31  H1  UNL     1      10.405  66.425   5.647  1.00  0.00     0.170 HD
BRANCH  29  32
HETATM   32  C2  UNL     1      13.115  65.944   4.355  1.00  0.00     0.168 C 
BRANCH  32  33
HETATM   33  C3  UNL     1      13.783  65.206   5.459  1.00  0.00     0.063 A 
HETATM   34  C4  UNL     1      14.926  64.444   5.341  1.00  0.00     0.059 A 
HETATM   35  C5  UNL     1      15.215  63.930   6.598  1.00  0.00     0.058 A 
HETATM   36 CL1  UNL     1      16.521  62.902   7.090  1.00  0.00    -0.082 Cl
HETATM   37  C6  UNL     1      14.229  64.409   7.422  1.00  0.00     0.166 A 
HETATM   38  O2  UNL     1      13.414  65.150   6.711  1.00  0.00    -0.325 OA
ENDBRANCH  32  33
ENDBRANCH  29  32
ENDBRANCH   1  28
TORSDOF 9
ENDMDL
MODEL 5
REMARK VINA RESULT: -7.727962102      1.062      1.239
REMARK  9 active torsions:
REMARK  status: ('A' for Active; 'I' for Inactive)
REMARK    1  A    between atoms: C1_2  and  C2_3 
REMARK       I    between atoms: C1_2  and  N1_10 
REMARK    2  A    between atoms: C2_3  and  C3_4 
REMARK    3  A    between atoms: N1_10  and  C7_12 
REMARK    4  A    between atoms: C10_16  and  C11_17 
REMARK    5  A    between atoms: C11_17  and  C12_18 
REMARK    6  A    between atoms: C12_18  and  C13_19 
REMARK    7  A    between atoms: C13_19  and  C14_20 
REMARK    8  A    between atoms: C14_20  and  C15_21 
REMARK       I    between atoms: N4_27  and  C17_29 
REMARK    9  A    between atoms: C17_29  and  C18_31 
ROOT
HETATM    1  C7  UNL     1      10.319  65.989   3.000  1.00  0.00     0.123 A 
HETATM    2  C8  UNL     1       9.950  67.128   3.712  1.00  0.00     0.071 A 
HETATM    3  C9  UNL     1       9.105  68.088   3.205  1.00  0.00     0.038 A 
HETATM    4 BR1  UNL     1       8.666  69.611   4.268  1.00  0.00    -0.049 Br
HETATM    5  C10 UNL     1       8.614  67.896   1.931  1.00  0.00     0.043 A 
HETATM    6  N5  UNL     1       8.991  66.787   1.275  1.00  0.00    -0.302 N 
ATOM      7  H5  UNL     1       8.626  66.644   0.333  1.00  0.00     0.186 HD
HETATM    8  N6  UNL     1       9.800  65.871   1.767  1.00  0.00    -0.285 N 
ATOM      9  H6  UNL     1      10.036  65.057   1.200  1.00  0.00     0.188 HD
ENDROOT
BRANCH   5  10
HETATM   10  C11 UNL     1       7.713  68.904   1.362  1.00  0.00     0.060 C 
BRANCH  10  11
HETATM   11  C12 UNL     1       6.314  68.441   1.125  1.00  0.00     0.006 C 
BRANCH  11  12
HETATM   12  C13 UNL     1       5.463  68.481   2.372  1.00  0.00     0.007 C 
BRANCH  12  13
HETATM   13  C14 UNL     1       4.713  67.196   2.614  1.00  0.00     0.066 C 
BRANCH  13  14
HETATM   14  C15 UNL     1       5.655  66.096   3.041  1.00  0.00     0.069 A 
HETATM   15  N2  UNL     1       6.380  65.978   4.142  1.00  0.00    -0.296 N 
HETATM   16  N3  UNL     1       7.119  64.966   4.319  1.00  0.00    -0.279 N 
ATOM     17  H2  UNL     1       6.343  66.708   4.854  1.00  0.00     0.187 HD
HETATM   18  C16 UNL     1       7.153  64.023   3.374  1.00  0.00     0.168 A 
ATOM     19  H3  UNL     1       7.678  64.873   5.167  1.00  0.00     0.189 HD
HETATM   20  N4  UNL     1       7.844  62.906   3.358  1.00  0.00    -0.297 N 
HETATM   21  S1  UNL     1       6.069  64.658   2.214  1.00  0.00    -0.038 SA
HETATM   22  C17 UNL     1       7.740  62.028   2.247  1.00  0.00     0.324 C 
ATOM     23  H4  UNL     1       8.454  62.671   4.141  1.00  0.00     0.171 HD
HETATM   24  O3  UNL     1       7.284  60.871   2.435  1.00  0.00    -0.260 OA
BRANCH  22  25
HETATM   25  C18 UNL     1       8.149  62.451   0.905  1.00  0.00     0.270 C 
HETATM   26  O4  UNL     1       9.176  63.108   0.691  1.00  0.00    -0.640 OA
HETATM   27  O5  UNL     1       7.361  62.108  -0.186  1.00  0.00    -0.640 OA
ENDBRANCH  22  25
ENDBRANCH  13  14
ENDBRANCH  12  13
ENDBRANCH  11  12
ENDBRANCH  10  11
ENDBRANCH   5  10
BRANCH   1  28
HETATM   28  N1  UNL     1      11.119  65.115   3.510  1.00  0.00    -0.312 N 
HETATM   29  C1  UNL     1      12.249  64.601   2.829  1.00  0.00     0.229 C 
HETATM   30  O1  UNL     1      12.051  63.693   1.978  1.00  0.00    -0.273 OA
ATOM     31  H1  UNL     1      10.928  64.776   4.452  1.00  0.00     0.170 HD
BRANCH  29  32
HETATM   32  C2  UNL     1      13.623  65.082   3.078  1.00  0.00     0.168 C 
BRANCH  32  33
HETATM   33  C3  UNL     1      14.006  64.832   4.493  1.00  0.00     0.063 A 
HETATM   34  C4  UNL     1      15.112  64.124   4.912  1.00  0.00     0.059 A 
HETATM   35  C5  UNL     1      15.103  64.124   6.301  1.00  0.00     0.058 A 
HETATM   36 CL1  UNL     1      16.226  63.401   7.406  1.00  0.00    -0.082 Cl
HETATM   37  C6  UNL     1      13.987  64.837   6.658  1.00  0.00     0.166 A 
HETATM   38  O2  UNL     1      13.376  65.231   5.566  1.00  0.00    -0.325 OA
ENDBRANCH  32  33
ENDBRANCH  29  32
ENDBRANCH   1  28
TORSDOF 9
ENDMDL
