MODEL 1
REMARK VINA RESULT: -8.355232329      0.000      0.000
REMARK  9 active torsions:
REMARK  status: ('A' for Active; 'I' for Inactive)
REMARK    1  A    between atoms: N1_1  and  C1_4 
REMARK    2  A    between atoms: C2_5  and  C3_6 
REMARK    3  A    between atoms: C4_7  and  C5_8 
REMARK    4  A    between atoms: C5_8  and  N2_9 
REMARK    5  A    between atoms: N2_9  and  S1_11 
REMARK    6  A    between atoms: S1_11  and  N3_12 
REMARK    7  A    between atoms: C9_22  and  O3_23 
REMARK    8  A    between atoms: O3_23  and  C10_24 
REMARK    9  A    between atoms: C10_24  and  C11_25 
ROOT
HETATM    1  C3  UNL     1      -4.922  10.777  20.978  1.00  0.00     0.064 A 
HETATM    2  C4  UNL     1      -5.334  11.709  21.939  1.00  0.00    -0.001 A 
HETATM    3  C6  UNL     1      -6.639  12.086  21.935  1.00  0.00     0.021 A 
HETATM    4 BR1  UNL     1      -7.298  13.308  23.239  1.00  0.00    -0.050 Br
HETATM    5  C7  UNL     1      -7.504  11.548  20.994  1.00  0.00     0.042 A 
HETATM    6  C8  UNL     1      -7.071  10.627  20.051  1.00  0.00     0.047 A 
HETATM    7 BR2  UNL     1      -8.401   9.954  18.872  1.00  0.00    -0.048 Br
HETATM    8  C9  UNL     1      -5.763  10.230  20.035  1.00  0.00     0.111 A 
ENDROOT
BRANCH   8   9
HETATM    9  O3  UNL     1      -5.297   9.335  19.139  1.00  0.00    -0.319 OA
BRANCH   9  10
HETATM   10  C10 UNL     1      -5.018   7.991  19.226  1.00  0.00     0.154 C 
BRANCH  10  11
HETATM   11  C11 UNL     1      -5.666   7.056  18.328  1.00  0.00    -0.008 A 
HETATM   12  C12 UNL     1      -5.753   5.718  18.687  1.00  0.00     0.059 A 
HETATM   13  C13 UNL     1      -6.341   4.766  17.886  1.00  0.00     0.158 A 
HETATM   14  F1  UNL     1      -6.436   3.461  18.219  1.00  0.00    -0.203 F 
HETATM   15  C14 UNL     1      -6.855   5.196  16.679  1.00  0.00     0.193 A 
HETATM   16  F2  UNL     1      -7.440   4.285  15.870  1.00  0.00    -0.200 F 
HETATM   17  C15 UNL     1      -6.771   6.526  16.317  1.00  0.00     0.158 A 
HETATM   18  F3  UNL     1      -7.291   6.912  15.118  1.00  0.00    -0.203 F 
HETATM   19  C16 UNL     1      -6.182   7.479  17.121  1.00  0.00     0.059 A 
ENDBRANCH  10  11
ENDBRANCH   9  10
ENDBRANCH   8   9
BRANCH   1  20
HETATM   20  C2  UNL     1      -3.550  10.350  20.950  1.00  0.00    -0.041 C 
HETATM   21  C1  UNL     1      -2.385   9.968  20.941  1.00  0.00     0.009 C 
BRANCH  21  22
HETATM   22  N1  UNL     1      -1.058   9.524  20.950  1.00  0.00    -0.359 N 
ATOM     23  H12 UNL     1      -1.994   9.244  21.245  1.00  0.00     0.166 HD
ATOM     24  H11 UNL     1      -0.086   9.214  20.950  1.00  0.00     0.166 HD
ENDBRANCH  21  22
ENDBRANCH   1  20
BRANCH   2  25
HETATM   25  C5  UNL     1      -4.294  12.158  22.874  1.00  0.00     0.175 C 
BRANCH  25  26
HETATM   26  N2  UNL     1      -4.318  11.584  24.182  1.00  0.00    -0.299 N 
ATOM     27  H2  UNL     1      -5.141  11.385  24.752  1.00  0.00     0.174 HD
BRANCH  26  28
HETATM   28  S1  UNL     1      -2.619  11.288  24.610  1.00  0.00     0.313 S 
HETATM   29  O1  UNL     1      -2.386  11.802  26.009  1.00  0.00    -0.183 OA
HETATM   30  O2  UNL     1      -2.422   9.807  24.524  1.00  0.00    -0.183 OA
BRANCH  28  31
HETATM   31  N3  UNL     1      -1.581  12.131  23.530  1.00  0.00    -0.312 N 
ATOM     32  H32 UNL     1      -1.866  12.939  22.976  1.00  0.00     0.170 HD
ATOM     33  H31 UNL     1      -0.654  11.705  23.528  1.00  0.00     0.170 HD
ENDBRANCH  28  31
ENDBRANCH  26  28
ENDBRANCH  25  26
ENDBRANCH   2  25
TORSDOF 9
ENDMDL
MODEL 2
REMARK VINA RESULT: -8.233840043      0.060      1.553
REMARK  9 active torsions:
REMARK  status: ('A' for Active; 'I' for Inactive)
REMARK    1  A    between atoms: N1_1  and  C1_4 
REMARK    2  A    between atoms: C2_5  and  C3_6 
REMARK    3  A    between atoms: C4_7  and  C5_8 
REMARK    4  A    between atoms: C5_8  and  N2_9 
REMARK    5  A    between atoms: N2_9  and  S1_11 
REMARK    6  A    between atoms: S1_11  and  N3_12 
REMARK    7  A    between atoms: C9_22  and  O3_23 
REMARK    8  A    between atoms: O3_23  and  C10_24 
REMARK    9  A    between atoms: C10_24  and  C11_25 
ROOT
HETATM    1  C3  UNL     1      -4.922  10.767  20.952  1.00  0.00     0.064 A 
HETATM    2  C4  UNL     1      -5.328  11.703  21.911  1.00  0.00    -0.001 A 
HETATM    3  C6  UNL     1      -6.629  12.092  21.904  1.00  0.00     0.021 A 
HETATM    4 BR1  UNL     1      -7.280  13.321  23.205  1.00  0.00    -0.050 Br
HETATM    5  C7  UNL     1      -7.497  11.561  20.962  1.00  0.00     0.042 A 
HETATM    6  C8  UNL     1      -7.070  10.634  20.021  1.00  0.00     0.047 A 
HETATM    7 BR2  UNL     1      -8.404   9.972  18.840  1.00  0.00    -0.048 Br
HETATM    8  C9  UNL     1      -5.766  10.226  20.009  1.00  0.00     0.111 A 
ENDROOT
BRANCH   8   9
HETATM    9  O3  UNL     1      -5.306   9.326  19.114  1.00  0.00    -0.319 OA
BRANCH   9  10
HETATM   10  C10 UNL     1      -4.994   7.990  19.216  1.00  0.00     0.154 C 
BRANCH  10  11
HETATM   11  C11 UNL     1      -5.642   7.025  18.350  1.00  0.00    -0.008 A 
HETATM   12  C12 UNL     1      -6.186   7.449  17.146  1.00  0.00     0.059 A 
HETATM   13  C13 UNL     1      -6.827   6.600  16.274  1.00  0.00     0.158 A 
HETATM   14  F1  UNL     1      -7.360   6.994  15.099  1.00  0.00    -0.203 F 
HETATM   15  C14 UNL     1      -6.915   5.273  16.647  1.00  0.00     0.193 A 
HETATM   16  F2  UNL     1      -7.538   4.412  15.812  1.00  0.00    -0.200 F 
HETATM   17  C15 UNL     1      -6.376   4.846  17.844  1.00  0.00     0.158 A 
HETATM   18  F3  UNL     1      -6.482   3.528  18.176  1.00  0.00    -0.203 F 
HETATM   19  C16 UNL     1      -5.733   5.698  18.716  1.00  0.00     0.059 A 
ENDBRANCH  10  11
ENDBRANCH   9  10
ENDBRANCH   8   9
BRANCH   1  20
HETATM   20  C2  UNL     1      -3.554  10.327  20.928  1.00  0.00    -0.041 C 
HETATM   21  C1  UNL     1      -2.384   9.959  20.929  1.00  0.00     0.009 C 
BRANCH  21  22
HETATM   22  N1  UNL     1      -1.045   9.554  20.945  1.00  0.00    -0.359 N 
ATOM     23  H12 UNL     1      -1.716  10.109  21.476  1.00  0.00     0.166 HD
ATOM     24  H11 UNL     1      -0.071   9.250  20.943  1.00  0.00     0.166 HD
ENDBRANCH  21  22
ENDBRANCH   1  20
BRANCH   2  25
HETATM   25  C5  UNL     1      -4.285  12.144  22.847  1.00  0.00     0.175 C 
BRANCH  25  26
HETATM   26  N2  UNL     1      -4.318  11.573  24.157  1.00  0.00    -0.299 N 
ATOM     27  H2  UNL     1      -5.144  11.373  24.721  1.00  0.00     0.174 HD
BRANCH  26  28
HETATM   28  S1  UNL     1      -2.621  11.283  24.599  1.00  0.00     0.313 S 
HETATM   29  O1  UNL     1      -2.402  11.795  26.001  1.00  0.00    -0.183 OA
HETATM   30  O2  UNL     1      -2.418   9.803  24.512  1.00  0.00    -0.183 OA
BRANCH  28  31
HETATM   31  N3  UNL     1      -1.577  12.132  23.529  1.00  0.00    -0.312 N 
ATOM     32  H32 UNL     1      -0.977  12.908  23.810  1.00  0.00     0.170 HD
ATOM     33  H31 UNL     1      -1.651  11.747  22.587  1.00  0.00     0.170 HD
ENDBRANCH  28  31
ENDBRANCH  26  28
ENDBRANCH  25  26
ENDBRANCH   2  25
TORSDOF 9
ENDMDL
MODEL 3
REMARK VINA RESULT: -7.952594045      0.753      1.855
REMARK  9 active torsions:
REMARK  status: ('A' for Active; 'I' for Inactive)
REMARK    1  A    between atoms: N1_1  and  C1_4 
REMARK    2  A    between atoms: C2_5  and  C3_6 
REMARK    3  A    between atoms: C4_7  and  C5_8 
REMARK    4  A    between atoms: C5_8  and  N2_9 
REMARK    5  A    between atoms: N2_9  and  S1_11 
REMARK    6  A    between atoms: S1_11  and  N3_12 
REMARK    7  A    between atoms: C9_22  and  O3_23 
REMARK    8  A    between atoms: O3_23  and  C10_24 
REMARK    9  A    between atoms: C10_24  and  C11_25 
ROOT
HETATM    1  C3  UNL     1      -4.962  10.807  21.051  1.00  0.00     0.064 A 
HETATM    2  C4  UNL     1      -5.426  11.710  22.016  1.00  0.00    -0.001 A 
HETATM    3  C6  UNL     1      -6.728  12.089  21.954  1.00  0.00     0.021 A 
HETATM    4 BR1  UNL     1      -7.457  13.272  23.256  1.00  0.00    -0.050 Br
HETATM    5  C7  UNL     1      -7.542  11.581  20.952  1.00  0.00     0.042 A 
HETATM    6  C8  UNL     1      -7.059  10.688  20.007  1.00  0.00     0.047 A 
HETATM    7 BR2  UNL     1      -8.324  10.052  18.738  1.00  0.00    -0.048 Br
HETATM    8  C9  UNL     1      -5.752  10.289  20.049  1.00  0.00     0.111 A 
ENDROOT
BRANCH   8   9
HETATM    9  O3  UNL     1      -5.238   9.422  19.152  1.00  0.00    -0.319 OA
BRANCH   9  10
HETATM   10  C10 UNL     1      -4.918   8.086  19.230  1.00  0.00     0.154 C 
BRANCH  10  11
HETATM   11  C11 UNL     1      -5.584   7.129  18.368  1.00  0.00    -0.008 A 
HETATM   12  C12 UNL     1      -6.121   7.558  17.162  1.00  0.00     0.059 A 
HETATM   13  C13 UNL     1      -6.778   6.716  16.294  1.00  0.00     0.158 A 
HETATM   14  F1  UNL     1      -7.305   7.115  15.118  1.00  0.00    -0.203 F 
HETATM   15  C14 UNL     1      -6.890   5.393  16.673  1.00  0.00     0.193 A 
HETATM   16  F2  UNL     1      -7.529   4.540  15.842  1.00  0.00    -0.200 F 
HETATM   17  C15 UNL     1      -6.357   4.961  17.871  1.00  0.00     0.158 A 
HETATM   18  F3  UNL     1      -6.487   3.647  18.209  1.00  0.00    -0.203 F 
HETATM   19  C16 UNL     1      -5.699   5.805  18.739  1.00  0.00     0.059 A 
ENDBRANCH  10  11
ENDBRANCH   9  10
ENDBRANCH   8   9
BRANCH   1  20
HETATM   20  C2  UNL     1      -3.591  10.379  21.084  1.00  0.00    -0.041 C 
HETATM   21  C1  UNL     1      -2.419  10.024  21.132  1.00  0.00     0.009 C 
BRANCH  21  22
HETATM   22  N1  UNL     1      -1.075   9.636  21.199  1.00  0.00    -0.359 N 
ATOM     23  H12 UNL     1      -2.012   9.248  21.089  1.00  0.00     0.166 HD
ATOM     24  H11 UNL     1      -0.093   9.369  21.250  1.00  0.00     0.166 HD
ENDBRANCH  21  22
ENDBRANCH   1  20
BRANCH   2  25
HETATM   25  C5  UNL     1      -4.437  12.130  23.018  1.00  0.00     0.175 C 
BRANCH  25  26
HETATM   26  N2  UNL     1      -4.547  11.535  24.313  1.00  0.00    -0.299 N 
ATOM     27  H2  UNL     1      -5.383  11.134  24.738  1.00  0.00     0.174 HD
BRANCH  26  28
HETATM   28  S1  UNL     1      -2.923  11.639  25.030  1.00  0.00     0.313 S 
HETATM   29  O1  UNL     1      -1.907  11.418  23.937  1.00  0.00    -0.183 OA
HETATM   30  O2  UNL     1      -2.817  13.012  25.615  1.00  0.00    -0.183 OA
BRANCH  28  31
HETATM   31  N3  UNL     1      -2.726  10.421  26.226  1.00  0.00    -0.312 N 
ATOM     32  H32 UNL     1      -3.486   9.841  26.584  1.00  0.00     0.170 HD
ATOM     33  H31 UNL     1      -1.750  10.369  26.517  1.00  0.00     0.170 HD
ENDBRANCH  28  31
ENDBRANCH  26  28
ENDBRANCH  25  26
ENDBRANCH   2  25
TORSDOF 9
ENDMDL
MODEL 4
REMARK VINA RESULT: -7.903113787      0.997      1.152
REMARK  9 active torsions:
REMARK  status: ('A' for Active; 'I' for Inactive)
REMARK    1  A    between atoms: N1_1  and  C1_4 
REMARK    2  A    between atoms: C2_5  and  C3_6 
REMARK    3  A    between atoms: C4_7  and  C5_8 
REMARK    4  A    between atoms: C5_8  and  N2_9 
REMARK    5  A    between atoms: N2_9  and  S1_11 
REMARK    6  A    between atoms: S1_11  and  N3_12 
REMARK    7  A    between atoms: C9_22  and  O3_23 
REMARK    8  A    between atoms: O3_23  and  C10_24 
REMARK    9  A    between atoms: C10_24  and  C11_25 
ROOT
HETATM    1  C3  UNL     1      -4.980  10.841  20.799  1.00  0.00     0.064 A 
HETATM    2  C4  UNL     1      -5.417  11.830  21.690  1.00  0.00    -0.001 A 
HETATM    3  C6  UNL     1      -6.721  12.205  21.630  1.00  0.00     0.021 A 
HETATM    4 BR1  UNL     1      -7.412  13.504  22.838  1.00  0.00    -0.050 Br
HETATM    5  C7  UNL     1      -7.562  11.608  20.702  1.00  0.00     0.042 A 
HETATM    6  C8  UNL     1      -7.105  10.631  19.830  1.00  0.00     0.047 A 
HETATM    7 BR2  UNL     1      -8.406   9.884  18.661  1.00  0.00    -0.048 Br
HETATM    8  C9  UNL     1      -5.798  10.235  19.872  1.00  0.00     0.111 A 
ENDROOT
BRANCH   8   9
HETATM    9  O3  UNL     1      -5.310   9.287  19.045  1.00  0.00    -0.319 OA
BRANCH   9  10
HETATM   10  C10 UNL     1      -5.087   7.939  19.204  1.00  0.00     0.154 C 
BRANCH  10  11
HETATM   11  C11 UNL     1      -5.709   6.989  18.303  1.00  0.00    -0.008 A 
HETATM   12  C12 UNL     1      -5.788   5.654  18.672  1.00  0.00     0.059 A 
HETATM   13  C13 UNL     1      -6.351   4.688  17.870  1.00  0.00     0.158 A 
HETATM   14  F1  UNL     1      -6.437   3.386  18.212  1.00  0.00    -0.203 F 
HETATM   15  C14 UNL     1      -6.848   5.102  16.650  1.00  0.00     0.193 A 
HETATM   16  F2  UNL     1      -7.409   4.178  15.839  1.00  0.00    -0.200 F 
HETATM   17  C15 UNL     1      -6.772   6.430  16.278  1.00  0.00     0.158 A 
HETATM   18  F3  UNL     1      -7.275   6.800  15.067  1.00  0.00    -0.203 F 
HETATM   19  C16 UNL     1      -6.208   7.396  17.083  1.00  0.00     0.059 A 
ENDBRANCH  10  11
ENDBRANCH   9  10
ENDBRANCH   8   9
BRANCH   1  20
HETATM   20  C2  UNL     1      -3.609  10.415  20.833  1.00  0.00    -0.041 C 
HETATM   21  C1  UNL     1      -2.445  10.032  20.872  1.00  0.00     0.009 C 
BRANCH  21  22
HETATM   22  N1  UNL     1      -1.120   9.583  20.935  1.00  0.00    -0.359 N 
ATOM     23  H12 UNL     1      -1.753  10.260  21.361  1.00  0.00     0.166 HD
ATOM     24  H11 UNL     1      -0.159   9.246  20.969  1.00  0.00     0.166 HD
ENDBRANCH  21  22
ENDBRANCH   1  20
BRANCH   2  25
HETATM   25  C5  UNL     1      -4.400  12.338  22.620  1.00  0.00     0.175 C 
BRANCH  25  26
HETATM   26  N2  UNL     1      -4.499  11.900  23.977  1.00  0.00    -0.299 N 
ATOM     27  H2  UNL     1      -4.839  10.998  24.310  1.00  0.00     0.174 HD
BRANCH  26  28
HETATM   28  S1  UNL     1      -3.908  13.255  24.965  1.00  0.00     0.313 S 
HETATM   29  O1  UNL     1      -4.998  13.650  25.929  1.00  0.00    -0.183 OA
HETATM   30  O2  UNL     1      -2.694  12.747  25.678  1.00  0.00    -0.183 OA
BRANCH  28  31
HETATM   31  N3  UNL     1      -3.539  14.601  23.962  1.00  0.00    -0.312 N 
ATOM     32  H32 UNL     1      -2.795  14.609  23.264  1.00  0.00     0.170 HD
ATOM     33  H31 UNL     1      -4.168  15.377  24.171  1.00  0.00     0.170 HD
ENDBRANCH  28  31
ENDBRANCH  26  28
ENDBRANCH  25  26
ENDBRANCH   2  25
TORSDOF 9
ENDMDL
MODEL 5
REMARK VINA RESULT: -7.815350530      1.013      1.937
REMARK  9 active torsions:
REMARK  status: ('A' for Active; 'I' for Inactive)
REMARK    1  A    between atoms: N1_1  and  C1_4 
REMARK    2  A    between atoms: C2_5  and  C3_6 
REMARK    3  A    between atoms: C4_7  and  C5_8 
REMARK    4  A    between atoms: C5_8  and  N2_9 
REMARK    5  A    between atoms: N2_9  and  S1_11 
REMARK    6  A    between atoms: S1_11  and  N3_12 
REMARK    7  A    between atoms: C9_22  and  O3_23 
REMARK    8  A    between atoms: O3_23  and  C10_24 
REMARK    9  A    between atoms: C10_24  and  C11_25 
ROOT
HETATM    1  C3  UNL     1      -4.928  10.839  20.663  1.00  0.00     0.064 A 
HETATM    2  C4  UNL     1      -5.354  11.861  21.520  1.00  0.00    -0.001 A 
HETATM    3  C6  UNL     1      -6.642  12.278  21.416  1.00  0.00     0.021 A 
HETATM    4 BR1  UNL     1      -7.322  13.627  22.577  1.00  0.00    -0.050 Br
HETATM    5  C7  UNL     1      -7.479  11.689  20.479  1.00  0.00     0.042 A 
HETATM    6  C8  UNL     1      -7.032  10.678  19.641  1.00  0.00     0.047 A 
HETATM    7 BR2  UNL     1      -8.326   9.949  18.453  1.00  0.00    -0.048 Br
HETATM    8  C9  UNL     1      -5.740  10.240  19.727  1.00  0.00     0.111 A 
ENDROOT
BRANCH   8   9
HETATM    9  O3  UNL     1      -5.263   9.258  18.934  1.00  0.00    -0.319 OA
BRANCH   9  10
HETATM   10  C10 UNL     1      -5.042   7.917  19.146  1.00  0.00     0.154 C 
BRANCH  10  11
HETATM   11  C11 UNL     1      -5.680   6.932  18.295  1.00  0.00    -0.008 A 
HETATM   12  C12 UNL     1      -6.230   7.333  17.086  1.00  0.00     0.059 A 
HETATM   13  C13 UNL     1      -6.863   6.464  16.228  1.00  0.00     0.158 A 
HETATM   14  F1  UNL     1      -7.402   6.835  15.047  1.00  0.00    -0.203 F 
HETATM   15  C14 UNL     1      -6.936   5.142  16.620  1.00  0.00     0.193 A 
HETATM   16  F2  UNL     1      -7.550   4.262  15.798  1.00  0.00    -0.200 F 
HETATM   17  C15 UNL     1      -6.390   4.738  17.822  1.00  0.00     0.158 A 
HETATM   18  F3  UNL     1      -6.482   3.424  18.173  1.00  0.00    -0.203 F 
HETATM   19  C16 UNL     1      -5.756   5.610  18.681  1.00  0.00     0.059 A 
ENDBRANCH  10  11
ENDBRANCH   9  10
ENDBRANCH   8   9
BRANCH   1  20
HETATM   20  C2  UNL     1      -3.573  10.368  20.744  1.00  0.00    -0.041 C 
HETATM   21  C1  UNL     1      -2.416   9.973  20.834  1.00  0.00     0.009 C 
BRANCH  21  22
HETATM   22  N1  UNL     1      -1.090   9.540  20.951  1.00  0.00    -0.359 N 
ATOM     23  H12 UNL     1      -1.950   9.627  21.492  1.00  0.00     0.166 HD
ATOM     24  H11 UNL     1      -0.122   9.228  21.021  1.00  0.00     0.166 HD
ENDBRANCH  21  22
ENDBRANCH   1  20
BRANCH   2  25
HETATM   25  C5  UNL     1      -4.346  12.356  22.467  1.00  0.00     0.175 C 
BRANCH  25  26
HETATM   26  N2  UNL     1      -4.435  11.869  23.808  1.00  0.00    -0.299 N 
ATOM     27  H2  UNL     1      -4.744  10.944  24.108  1.00  0.00     0.174 HD
BRANCH  26  28
HETATM   28  S1  UNL     1      -3.896  13.209  24.844  1.00  0.00     0.313 S 
HETATM   29  O1  UNL     1      -5.000  13.526  25.822  1.00  0.00    -0.183 OA
HETATM   30  O2  UNL     1      -2.663  12.724  25.539  1.00  0.00    -0.183 OA
BRANCH  28  31
HETATM   31  N3  UNL     1      -3.581  14.604  23.891  1.00  0.00    -0.312 N 
ATOM     32  H32 UNL     1      -4.149  15.452  23.912  1.00  0.00     0.170 HD
ATOM     33  H31 UNL     1      -2.755  14.455  23.311  1.00  0.00     0.170 HD
ENDBRANCH  28  31
ENDBRANCH  26  28
ENDBRANCH  25  26
ENDBRANCH   2  25
TORSDOF 9
ENDMDL
