MODEL 1
REMARK VINA RESULT: -9.472365010      0.000      0.000
REMARK  9 active torsions:
REMARK  status: ('A' for Active; 'I' for Inactive)
REMARK    1  A    between atoms: C2_2  and  C5_5 
REMARK    2  A    between atoms: C5_5  and  N1_6 
REMARK       I    between atoms: N1_6  and  C6_8 
REMARK    3  A    between atoms: C6_8  and  C7_10 
REMARK       I    between atoms: N2_14  and  C10_15 
REMARK    4  A    between atoms: C10_15  and  C11_17 
REMARK    5  A    between atoms: C11_17  and  C12_18 
REMARK    6  A    between atoms: C11_17  and  N3_21 
REMARK    7  A    between atoms: C12_18  and  O3_19 
REMARK       I    between atoms: N3_21  and  C13_23 
REMARK    8  A    between atoms: C13_23  and  C14_25 
REMARK    9  A    between atoms: C22_33  and  C23_34 
ROOT
HETATM    1  C11 UNL     1      -2.496  10.812  20.587  1.00  0.00     0.200 C 
ENDROOT
BRANCH   1   2
HETATM    2  C10 UNL     1      -2.327  10.587  22.034  1.00  0.00     0.247 C 
HETATM    3  N2  UNL     1      -1.194  11.047  22.782  1.00  0.00    -0.306 N 
HETATM    4  C7  UNL     1      -0.920  10.899  24.215  1.00  0.00     0.262 A 
HETATM    5  C9  UNL     1       0.027  11.749  22.553  1.00  0.00     0.135 A 
HETATM    6  F1  UNL     1      -0.750   9.584  24.556  1.00  0.00    -0.208 F 
HETATM    7  C8  UNL     1       0.346  11.676  24.014  1.00  0.00     0.097 A 
HETATM    8  O2  UNL     1      -3.256   9.943  22.634  1.00  0.00    -0.271 OA
BRANCH   4   9
HETATM    9  C6  UNL     1      -1.949  11.603  25.036  1.00  0.00     0.279 C 
HETATM   10  N1  UNL     1      -2.559  12.802  24.587  1.00  0.00    -0.356 N 
ATOM     11  H1  UNL     1      -2.301  13.204  23.685  1.00  0.00     0.162 HD
HETATM   12  O1  UNL     1      -2.254  11.090  26.147  1.00  0.00    -0.268 OA
BRANCH  10  13
HETATM   13  C5  UNL     1      -3.545  13.449  25.417  1.00  0.00     0.131 C 
BRANCH  13  14
HETATM   14  C2  UNL     1      -4.782  13.839  24.672  1.00  0.00    -0.035 C 
HETATM   15  C1  UNL     1      -5.794  14.519  25.551  1.00  0.00     0.016 C 
HETATM   16  C3  UNL     1      -4.412  14.792  23.571  1.00  0.00     0.016 C 
HETATM   17  C4  UNL     1      -5.415  12.593  24.081  1.00  0.00     0.016 C 
ENDBRANCH  13  14
ENDBRANCH  10  13
ENDBRANCH   4   9
ENDBRANCH   1   2
BRANCH   1  18
HETATM   18  C12 UNL     1      -2.730  12.276  20.262  1.00  0.00     0.199 C 
BRANCH  18  19
HETATM   19  O3  UNL     1      -1.611  12.669  19.488  1.00  0.00    -0.398 OA
ATOM     20  H3  UNL     1      -1.350  13.513  19.838  1.00  0.00     0.209 HD
ENDBRANCH  18  19
ENDBRANCH   1  18
BRANCH   1  21
HETATM   21  N3  UNL     1      -3.697  10.086  20.164  1.00  0.00    -0.345 N 
HETATM   22  C13 UNL     1      -4.217  10.268  18.862  1.00  0.00     0.227 C 
HETATM   23  O4  UNL     1      -3.654  11.057  18.056  1.00  0.00    -0.273 OA
ATOM     24  H3  UNL     1      -4.160   9.447  20.812  1.00  0.00     0.163 HD
BRANCH  22  25
HETATM   25  C14 UNL     1      -5.427   9.521  18.454  1.00  0.00     0.043 C 
HETATM   26  C15 UNL     1      -6.546   9.869  19.382  1.00  0.00     0.024 C 
HETATM   27  C16 UNL     1      -7.797   9.098  18.982  1.00  0.00    -0.012 C 
HETATM   28  C17 UNL     1      -8.181   9.469  17.589  1.00  0.00     0.014 C 
HETATM   29  C24 UNL     1      -7.463   7.629  19.108  1.00  0.00     0.023 C 
HETATM   30  C18 UNL     1      -7.039   9.072  16.674  1.00  0.00    -0.042 C 
HETATM   31  C19 UNL     1      -7.442   9.392  15.233  1.00  0.00     0.015 C 
HETATM   32  C20 UNL     1      -5.835   9.889  17.031  1.00  0.00     0.028 C 
HETATM   33  C21 UNL     1      -6.759   7.585  16.722  1.00  0.00     0.027 C 
HETATM   34  C22 UNL     1      -6.365   7.253  18.143  1.00  0.00     0.060 C 
HETATM   35  C25 UNL     1      -5.115   8.061  18.459  1.00  0.00     0.037 C 
BRANCH  34  36
HETATM   36  C23 UNL     1      -6.015   5.797  18.315  1.00  0.00     0.395 C 
HETATM   37  F2  UNL     1      -6.947   5.132  19.083  1.00  0.00    -0.170 F 
HETATM   38  F3  UNL     1      -4.788   5.660  18.911  1.00  0.00    -0.170 F 
HETATM   39  F4  UNL     1      -6.065   5.194  17.057  1.00  0.00    -0.170 F 
ENDBRANCH  34  36
ENDBRANCH  22  25
ENDBRANCH   1  21
TORSDOF 9
ENDMDL
MODEL 2
REMARK VINA RESULT: -9.194834359      1.263      1.456
REMARK  9 active torsions:
REMARK  status: ('A' for Active; 'I' for Inactive)
REMARK    1  A    between atoms: C2_2  and  C5_5 
REMARK    2  A    between atoms: C5_5  and  N1_6 
REMARK       I    between atoms: N1_6  and  C6_8 
REMARK    3  A    between atoms: C6_8  and  C7_10 
REMARK       I    between atoms: N2_14  and  C10_15 
REMARK    4  A    between atoms: C10_15  and  C11_17 
REMARK    5  A    between atoms: C11_17  and  C12_18 
REMARK    6  A    between atoms: C11_17  and  N3_21 
REMARK    7  A    between atoms: C12_18  and  O3_19 
REMARK       I    between atoms: N3_21  and  C13_23 
REMARK    8  A    between atoms: C13_23  and  C14_25 
REMARK    9  A    between atoms: C22_33  and  C23_34 
ROOT
HETATM    1  C11 UNL     1      -3.167  12.295  20.326  1.00  0.00     0.200 C 
ENDROOT
BRANCH   1   2
HETATM    2  C10 UNL     1      -3.346  12.017  21.762  1.00  0.00     0.247 C 
HETATM    3  N2  UNL     1      -2.272  11.666  22.643  1.00  0.00    -0.306 N 
HETATM    4  C7  UNL     1      -2.321  11.382  24.081  1.00  0.00     0.262 A 
HETATM    5  C9  UNL     1      -0.864  11.445  22.579  1.00  0.00     0.135 A 
HETATM    6  F1  UNL     1      -3.050  10.252  24.341  1.00  0.00    -0.208 F 
HETATM    7  C8  UNL     1      -0.834  11.191  24.054  1.00  0.00     0.097 A 
HETATM    8  O2  UNL     1      -4.536  12.101  22.225  1.00  0.00    -0.271 OA
BRANCH   4   9
HETATM    9  C6  UNL     1      -2.774  12.577  24.851  1.00  0.00     0.279 C 
HETATM   10  N1  UNL     1      -3.351  13.698  24.203  1.00  0.00    -0.356 N 
ATOM     11  H1  UNL     1      -3.469  13.702  23.190  1.00  0.00     0.162 HD
HETATM   12  O1  UNL     1      -2.620  12.553  26.103  1.00  0.00    -0.268 OA
BRANCH  10  13
HETATM   13  C5  UNL     1      -3.771  14.833  24.989  1.00  0.00     0.131 C 
BRANCH  13  14
HETATM   14  C2  UNL     1      -5.197  15.217  24.760  1.00  0.00    -0.035 C 
HETATM   15  C1  UNL     1      -6.145  14.070  24.972  1.00  0.00     0.016 C 
HETATM   16  C3  UNL     1      -5.572  16.309  25.722  1.00  0.00     0.016 C 
HETATM   17  C4  UNL     1      -5.351  15.714  23.335  1.00  0.00     0.016 C 
ENDBRANCH  13  14
ENDBRANCH  10  13
ENDBRANCH   4   9
ENDBRANCH   1   2
BRANCH   1  18
HETATM   18  C12 UNL     1      -3.301  13.774  20.011  1.00  0.00     0.199 C 
BRANCH  18  19
HETATM   19  O3  UNL     1      -2.995  14.441  21.222  1.00  0.00    -0.398 OA
ATOM     20  H3  UNL     1      -3.387  15.303  21.138  1.00  0.00     0.209 HD
ENDBRANCH  18  19
ENDBRANCH   1  18
BRANCH   1  21
HETATM   21  N3  UNL     1      -4.243  11.608  19.604  1.00  0.00    -0.345 N 
HETATM   22  C13 UNL     1      -4.153  10.222  19.342  1.00  0.00     0.227 C 
HETATM   23  O4  UNL     1      -3.147   9.566  19.723  1.00  0.00    -0.273 OA
ATOM     24  H3  UNL     1      -5.060  12.133  19.291  1.00  0.00     0.163 HD
BRANCH  22  25
HETATM   25  C14 UNL     1      -5.254   9.548  18.618  1.00  0.00     0.043 C 
HETATM   26  C15 UNL     1      -6.556   9.962  19.225  1.00  0.00     0.024 C 
HETATM   27  C16 UNL     1      -7.699   9.268  18.499  1.00  0.00    -0.012 C 
HETATM   28  C17 UNL     1      -7.681   9.662  17.060  1.00  0.00     0.014 C 
HETATM   29  C24 UNL     1      -7.496   7.782  18.684  1.00  0.00     0.023 C 
HETATM   30  C18 UNL     1      -6.363   9.197  16.471  1.00  0.00    -0.042 C 
HETATM   31  C19 UNL     1      -6.354   9.541  14.980  1.00  0.00     0.015 C 
HETATM   32  C20 UNL     1      -5.251   9.941  17.144  1.00  0.00     0.028 C 
HETATM   33  C21 UNL     1      -6.192   7.696  16.567  1.00  0.00     0.027 C 
HETATM   34  C22 UNL     1      -6.206   7.341  18.036  1.00  0.00     0.060 C 
HETATM   35  C25 UNL     1      -5.038   8.073  18.682  1.00  0.00     0.037 C 
BRANCH  34  36
HETATM   36  C23 UNL     1      -5.998   5.866  18.271  1.00  0.00     0.395 C 
HETATM   37  F2  UNL     1      -7.044   5.305  18.972  1.00  0.00    -0.170 F 
HETATM   38  F3  UNL     1      -4.841   5.645  18.972  1.00  0.00    -0.170 F 
HETATM   39  F4  UNL     1      -5.995   5.232  17.027  1.00  0.00    -0.170 F 
ENDBRANCH  34  36
ENDBRANCH  22  25
ENDBRANCH   1  21
TORSDOF 9
ENDMDL
MODEL 3
REMARK VINA RESULT: -9.132141281      1.992      3.328
REMARK  9 active torsions:
REMARK  status: ('A' for Active; 'I' for Inactive)
REMARK    1  A    between atoms: C2_2  and  C5_5 
REMARK    2  A    between atoms: C5_5  and  N1_6 
REMARK       I    between atoms: N1_6  and  C6_8 
REMARK    3  A    between atoms: C6_8  and  C7_10 
REMARK       I    between atoms: N2_14  and  C10_15 
REMARK    4  A    between atoms: C10_15  and  C11_17 
REMARK    5  A    between atoms: C11_17  and  C12_18 
REMARK    6  A    between atoms: C11_17  and  N3_21 
REMARK    7  A    between atoms: C12_18  and  O3_19 
REMARK       I    between atoms: N3_21  and  C13_23 
REMARK    8  A    between atoms: C13_23  and  C14_25 
REMARK    9  A    between atoms: C22_33  and  C23_34 
ROOT
HETATM    1  C11 UNL     1      -2.051  11.210  20.298  1.00  0.00     0.200 C 
ENDROOT
BRANCH   1   2
HETATM    2  C10 UNL     1      -1.470  11.022  21.639  1.00  0.00     0.247 C 
HETATM    3  N2  UNL     1      -1.970  11.664  22.819  1.00  0.00    -0.306 N 
HETATM    4  C7  UNL     1      -1.490  11.548  24.199  1.00  0.00     0.262 A 
HETATM    5  C9  UNL     1      -2.999  12.584  23.182  1.00  0.00     0.135 A 
HETATM    6  F1  UNL     1      -0.223  12.051  24.330  1.00  0.00    -0.208 F 
HETATM    7  C8  UNL     1      -2.591  12.475  24.619  1.00  0.00     0.097 A 
HETATM    8  O2  UNL     1      -0.463  10.238  21.730  1.00  0.00    -0.271 OA
BRANCH   4   9
HETATM    9  C6  UNL     1      -1.636  10.152  24.705  1.00  0.00     0.279 C 
HETATM   10  N1  UNL     1      -0.503   9.334  24.949  1.00  0.00    -0.356 N 
ATOM     11  H1  UNL     1       0.437   9.693  24.783  1.00  0.00     0.162 HD
HETATM   12  O1  UNL     1      -2.806   9.726  24.905  1.00  0.00    -0.268 OA
BRANCH  10  13
HETATM   13  C5  UNL     1      -0.693   7.988  25.435  1.00  0.00     0.131 C 
BRANCH  13  14
HETATM   14  C2  UNL     1      -0.542   7.867  26.917  1.00  0.00    -0.035 C 
HETATM   15  C1  UNL     1      -0.267   6.456  27.355  1.00  0.00     0.016 C 
HETATM   16  C3  UNL     1       0.610   8.722  27.365  1.00  0.00     0.016 C 
HETATM   17  C4  UNL     1      -1.821   8.339  27.583  1.00  0.00     0.016 C 
ENDBRANCH  13  14
ENDBRANCH  10  13
ENDBRANCH   4   9
ENDBRANCH   1   2
BRANCH   1  18
HETATM   18  C12 UNL     1      -2.341  12.671  20.002  1.00  0.00     0.199 C 
BRANCH  18  19
HETATM   19  O3  UNL     1      -1.571  12.978  18.855  1.00  0.00    -0.398 OA
ATOM     20  H3  UNL     1      -0.718  12.589  19.015  1.00  0.00     0.209 HD
ENDBRANCH  18  19
ENDBRANCH   1  18
BRANCH   1  21
HETATM   21  N3  UNL     1      -3.339  10.509  20.272  1.00  0.00    -0.345 N 
HETATM   22  C13 UNL     1      -4.108  10.478  19.086  1.00  0.00     0.227 C 
HETATM   23  O4  UNL     1      -3.696  11.054  18.044  1.00  0.00    -0.273 OA
ATOM     24  H3  UNL     1      -3.680  10.041  21.112  1.00  0.00     0.163 HD
BRANCH  22  25
HETATM   25  C14 UNL     1      -5.401   9.759  19.080  1.00  0.00     0.043 C 
HETATM   26  C15 UNL     1      -6.009   9.846  20.443  1.00  0.00     0.024 C 
HETATM   27  C16 UNL     1      -7.336   9.100  20.457  1.00  0.00    -0.012 C 
HETATM   28  C17 UNL     1      -8.262   9.722  19.465  1.00  0.00     0.014 C 
HETATM   29  C24 UNL     1      -7.030   7.658  20.123  1.00  0.00     0.023 C 
HETATM   30  C18 UNL     1      -7.629   9.585  18.095  1.00  0.00    -0.042 C 
HETATM   31  C19 UNL     1      -8.594  10.165  17.058  1.00  0.00     0.015 C 
HETATM   32  C20 UNL     1      -6.361  10.383  18.072  1.00  0.00     0.028 C 
HETATM   33  C21 UNL     1      -7.406   8.138  17.710  1.00  0.00     0.027 C 
HETATM   34  C22 UNL     1      -6.458   7.550  18.731  1.00  0.00     0.060 C 
HETATM   35  C25 UNL     1      -5.165   8.349  18.650  1.00  0.00     0.037 C 
BRANCH  34  36
HETATM   36  C23 UNL     1      -6.117   6.112  18.433  1.00  0.00     0.395 C 
HETATM   37  F2  UNL     1      -6.986   5.239  19.051  1.00  0.00    -0.170 F 
HETATM   38  F3  UNL     1      -4.844   5.819  18.849  1.00  0.00    -0.170 F 
HETATM   39  F4  UNL     1      -6.288   5.906  17.062  1.00  0.00    -0.170 F 
ENDBRANCH  34  36
ENDBRANCH  22  25
ENDBRANCH   1  21
TORSDOF 9
ENDMDL
MODEL 4
REMARK VINA RESULT: -9.122076319      2.502      3.985
REMARK  9 active torsions:
REMARK  status: ('A' for Active; 'I' for Inactive)
REMARK    1  A    between atoms: C2_2  and  C5_5 
REMARK    2  A    between atoms: C5_5  and  N1_6 
REMARK       I    between atoms: N1_6  and  C6_8 
REMARK    3  A    between atoms: C6_8  and  C7_10 
REMARK       I    between atoms: N2_14  and  C10_15 
REMARK    4  A    between atoms: C10_15  and  C11_17 
REMARK    5  A    between atoms: C11_17  and  C12_18 
REMARK    6  A    between atoms: C11_17  and  N3_21 
REMARK    7  A    between atoms: C12_18  and  O3_19 
REMARK       I    between atoms: N3_21  and  C13_23 
REMARK    8  A    between atoms: C13_23  and  C14_25 
REMARK    9  A    between atoms: C22_33  and  C23_34 
ROOT
HETATM    1  C11 UNL     1      -2.567  12.206  19.104  1.00  0.00     0.200 C 
ENDROOT
BRANCH   1   2
HETATM    2  C10 UNL     1      -2.739  12.910  20.387  1.00  0.00     0.247 C 
HETATM    3  N2  UNL     1      -3.954  13.563  20.777  1.00  0.00    -0.306 N 
HETATM    4  C7  UNL     1      -4.251  14.279  22.022  1.00  0.00     0.262 A 
HETATM    5  C9  UNL     1      -5.254  13.812  20.245  1.00  0.00     0.135 A 
HETATM    6  F1  UNL     1      -3.477  15.402  22.147  1.00  0.00    -0.208 F 
HETATM    7  C8  UNL     1      -5.640  14.515  21.510  1.00  0.00     0.097 A 
HETATM    8  O2  UNL     1      -1.736  12.925  21.181  1.00  0.00    -0.271 OA
BRANCH   4   9
HETATM    9  C6  UNL     1      -4.177  13.366  23.200  1.00  0.00     0.279 C 
HETATM   10  N1  UNL     1      -2.949  13.116  23.864  1.00  0.00    -0.356 N 
ATOM     11  H1  UNL     1      -2.090  13.565  23.544  1.00  0.00     0.162 HD
HETATM   12  O1  UNL     1      -5.249  12.822  23.581  1.00  0.00    -0.268 OA
BRANCH  10  13
HETATM   13  C5  UNL     1      -2.925  12.223  24.997  1.00  0.00     0.131 C 
BRANCH  13  14
HETATM   14  C2  UNL     1      -2.175  10.956  24.737  1.00  0.00    -0.035 C 
HETATM   15  C1  UNL     1      -0.700  11.185  24.563  1.00  0.00     0.016 C 
HETATM   16  C3  UNL     1      -2.364  10.025  25.900  1.00  0.00     0.016 C 
HETATM   17  C4  UNL     1      -2.716  10.314  23.473  1.00  0.00     0.016 C 
ENDBRANCH  13  14
ENDBRANCH  10  13
ENDBRANCH   4   9
ENDBRANCH   1   2
BRANCH   1  18
HETATM   18  C12 UNL     1      -2.413  13.171  17.942  1.00  0.00     0.199 C 
BRANCH  18  19
HETATM   19  O3  UNL     1      -1.472  12.563  17.076  1.00  0.00    -0.398 OA
ATOM     20  H3  UNL     1      -0.892  13.265  16.806  1.00  0.00     0.209 HD
ENDBRANCH  18  19
ENDBRANCH   1  18
BRANCH   1  21
HETATM   21  N3  UNL     1      -3.788  11.433  18.855  1.00  0.00    -0.345 N 
HETATM   22  C13 UNL     1      -3.909  10.115  19.351  1.00  0.00     0.227 C 
HETATM   23  O4  UNL     1      -2.968   9.593  20.008  1.00  0.00    -0.273 OA
ATOM     24  H3  UNL     1      -4.552  11.849  18.323  1.00  0.00     0.163 HD
BRANCH  22  25
HETATM   25  C14 UNL     1      -5.152   9.355  19.094  1.00  0.00     0.043 C 
HETATM   26  C15 UNL     1      -5.788   9.877  17.846  1.00  0.00     0.024 C 
HETATM   27  C16 UNL     1      -7.077   9.114  17.574  1.00  0.00    -0.012 C 
HETATM   28  C17 UNL     1      -6.763   7.665  17.397  1.00  0.00     0.014 C 
HETATM   29  C24 UNL     1      -7.987   9.358  18.755  1.00  0.00     0.023 C 
HETATM   30  C18 UNL     1      -6.153   7.164  18.690  1.00  0.00    -0.042 C 
HETATM   31  C19 UNL     1      -5.880   5.665  18.546  1.00  0.00     0.015 C 
HETATM   32  C20 UNL     1      -4.850   7.871  18.909  1.00  0.00     0.028 C 
HETATM   33  C21 UNL     1      -7.095   7.318  19.865  1.00  0.00     0.027 C 
HETATM   34  C22 UNL     1      -7.378   8.795  20.016  1.00  0.00     0.060 C 
HETATM   35  C25 UNL     1      -6.045   9.478  20.284  1.00  0.00     0.037 C 
BRANCH  34  36
HETATM   36  C23 UNL     1      -8.278   9.089  21.189  1.00  0.00     0.395 C 
HETATM   37  F2  UNL     1      -7.773  10.094  21.985  1.00  0.00    -0.170 F 
HETATM   38  F3  UNL     1      -8.447   7.970  21.963  1.00  0.00    -0.170 F 
HETATM   39  F4  UNL     1      -9.487   9.576  20.689  1.00  0.00    -0.170 F 
ENDBRANCH  34  36
ENDBRANCH  22  25
ENDBRANCH   1  21
TORSDOF 9
ENDMDL
MODEL 5
REMARK VINA RESULT: -9.097338051      1.942      3.268
REMARK  9 active torsions:
REMARK  status: ('A' for Active; 'I' for Inactive)
REMARK    1  A    between atoms: C2_2  and  C5_5 
REMARK    2  A    between atoms: C5_5  and  N1_6 
REMARK       I    between atoms: N1_6  and  C6_8 
REMARK    3  A    between atoms: C6_8  and  C7_10 
REMARK       I    between atoms: N2_14  and  C10_15 
REMARK    4  A    between atoms: C10_15  and  C11_17 
REMARK    5  A    between atoms: C11_17  and  C12_18 
REMARK    6  A    between atoms: C11_17  and  N3_21 
REMARK    7  A    between atoms: C12_18  and  O3_19 
REMARK       I    between atoms: N3_21  and  C13_23 
REMARK    8  A    between atoms: C13_23  and  C14_25 
REMARK    9  A    between atoms: C22_33  and  C23_34 
ROOT
HETATM    1  C11 UNL     1      -2.718  12.178  19.157  1.00  0.00     0.200 C 
ENDROOT
BRANCH   1   2
HETATM    2  C10 UNL     1      -2.859  12.892  20.438  1.00  0.00     0.247 C 
HETATM    3  N2  UNL     1      -4.076  13.514  20.871  1.00  0.00    -0.306 N 
HETATM    4  C7  UNL     1      -4.343  14.236  22.118  1.00  0.00     0.262 A 
HETATM    5  C9  UNL     1      -5.404  13.718  20.390  1.00  0.00     0.135 A 
HETATM    6  F1  UNL     1      -3.599  15.384  22.199  1.00  0.00    -0.208 F 
HETATM    7  C8  UNL     1      -5.758  14.425  21.662  1.00  0.00     0.097 A 
HETATM    8  O2  UNL     1      -1.825  12.947  21.189  1.00  0.00    -0.271 OA
BRANCH   4   9
HETATM    9  C6  UNL     1      -4.193  13.341  23.303  1.00  0.00     0.279 C 
HETATM   10  N1  UNL     1      -2.926  13.110  23.898  1.00  0.00    -0.356 N 
ATOM     11  H1  UNL     1      -2.092  13.560  23.523  1.00  0.00     0.162 HD
HETATM   12  O1  UNL     1      -5.237  12.794  23.753  1.00  0.00    -0.268 OA
BRANCH  10  13
HETATM   13  C5  UNL     1      -2.830  12.233  25.040  1.00  0.00     0.131 C 
BRANCH  13  14
HETATM   14  C2  UNL     1      -2.095  10.963  24.750  1.00  0.00    -0.035 C 
HETATM   15  C1  UNL     1      -0.620  11.181  24.560  1.00  0.00     0.016 C 
HETATM   16  C3  UNL     1      -2.277  10.016  25.902  1.00  0.00     0.016 C 
HETATM   17  C4  UNL     1      -2.659  10.345  23.484  1.00  0.00     0.016 C 
ENDBRANCH  13  14
ENDBRANCH  10  13
ENDBRANCH   4   9
ENDBRANCH   1   2
BRANCH   1  18
HETATM   18  C12 UNL     1      -2.532  13.132  17.990  1.00  0.00     0.199 C 
BRANCH  18  19
HETATM   19  O3  UNL     1      -1.510  14.023  18.398  1.00  0.00    -0.398 OA
ATOM     20  H3  UNL     1      -1.900  14.888  18.354  1.00  0.00     0.209 HD
ENDBRANCH  18  19
ENDBRANCH   1  18
BRANCH   1  21
HETATM   21  N3  UNL     1      -3.968  11.451  18.915  1.00  0.00    -0.345 N 
HETATM   22  C13 UNL     1      -4.130  10.133  19.400  1.00  0.00     0.227 C 
HETATM   23  O4  UNL     1      -3.202   9.572  20.040  1.00  0.00    -0.273 OA
ATOM     24  H3  UNL     1      -4.724  11.899  18.396  1.00  0.00     0.163 HD
BRANCH  22  25
HETATM   25  C14 UNL     1      -5.403   9.420  19.151  1.00  0.00     0.043 C 
HETATM   26  C15 UNL     1      -6.256   9.512  20.374  1.00  0.00     0.024 C 
HETATM   27  C16 UNL     1      -7.565   8.772  20.139  1.00  0.00    -0.012 C 
HETATM   28  C17 UNL     1      -8.285   9.398  18.990  1.00  0.00     0.014 C 
HETATM   29  C24 UNL     1      -7.209   7.329  19.868  1.00  0.00     0.023 C 
HETATM   30  C18 UNL     1      -7.406   9.256  17.763  1.00  0.00    -0.042 C 
HETATM   31  C19 UNL     1      -8.156   9.840  16.563  1.00  0.00     0.015 C 
HETATM   32  C20 UNL     1      -6.153  10.048  17.980  1.00  0.00     0.028 C 
HETATM   33  C21 UNL     1      -7.121   7.808  17.428  1.00  0.00     0.027 C 
HETATM   34  C22 UNL     1      -6.385   7.216  18.609  1.00  0.00     0.060 C 
HETATM   35  C25 UNL     1      -5.097   8.009  18.773  1.00  0.00     0.037 C 
BRANCH  34  36
HETATM   36  C23 UNL     1      -6.001   5.776  18.381  1.00  0.00     0.395 C 
HETATM   37  F2  UNL     1      -5.925   5.471  17.039  1.00  0.00    -0.170 F 
HETATM   38  F3  UNL     1      -6.911   4.933  18.964  1.00  0.00    -0.170 F 
HETATM   39  F4  UNL     1      -4.710   5.594  18.882  1.00  0.00    -0.170 F 
ENDBRANCH  34  36
ENDBRANCH  22  25
ENDBRANCH   1  21
TORSDOF 9
ENDMDL
