MODEL 1
REMARK VINA RESULT: -3.893104473      0.000      0.000
REMARK  3 active torsions:
REMARK  status: ('A' for Active; 'I' for Inactive)
REMARK    1  A    between atoms: C2_2  and  C4_4 
REMARK    2  A    between atoms: C8_8  and  C10_11 
REMARK    3  A    between atoms: C10_11  and  O1_14 
ROOT
HETATM    1  C4  UNL     1      58.412 163.269  37.594  1.00  0.00     0.025 A 
HETATM    2  C5  UNL     1      59.336 162.099  37.298  1.00  0.00    -0.018 A 
HETATM    3  C6  UNL     1      58.662 160.766  37.574  1.00  0.00     0.017 C 
HETATM    4  C7  UNL     1      60.767 162.101  37.729  1.00  0.00     0.017 C 
HETATM    5  C8  UNL     1      58.930 163.021  36.249  1.00  0.00     0.091 A 
HETATM    6  C9  UNL     1      60.027 163.920  35.770  1.00  0.00     0.073 C 
HETATM    7  N1  UNL     1      60.896 164.612  35.374  1.00  0.00    -0.196 NA
ENDROOT
BRANCH   5   8
HETATM    8  C10 UNL     1      57.980 162.758  35.135  1.00  0.00     0.072 C 
HETATM    9  C11 UNL     1      56.777 161.953  35.364  1.00  0.00     0.047 C 
HETATM   10  C12 UNL     1      57.522 164.097  34.535  1.00  0.00     0.047 C 
BRANCH   8  11
HETATM   11  O1  UNL     1      58.703 162.143  34.091  1.00  0.00    -0.389 OA
ATOM     12  H1  UNL     1      58.155 162.152  33.315  1.00  0.00     0.210 HD
ENDBRANCH   8  11
ENDBRANCH   5   8
BRANCH   1  13
HETATM   13  C2  UNL     1      58.784 164.241  38.593  1.00  0.00    -0.016 C 
HETATM   14  C1  UNL     1      58.860 165.682  38.350  1.00  0.00     0.010 C 
HETATM   15  C3  UNL     1      57.901 164.094  39.863  1.00  0.00     0.010 C 
ENDBRANCH   1  13
TORSDOF 3
ENDMDL
MODEL 2
REMARK VINA RESULT: -3.366184756      1.795      3.312
REMARK  3 active torsions:
REMARK  status: ('A' for Active; 'I' for Inactive)
REMARK    1  A    between atoms: C2_2  and  C4_4 
REMARK    2  A    between atoms: C8_8  and  C10_11 
REMARK    3  A    between atoms: C10_11  and  O1_14 
ROOT
HETATM    1  C4  UNL     1      59.864 163.303  37.748  1.00  0.00     0.025 A 
HETATM    2  C5  UNL     1      58.648 164.151  38.081  1.00  0.00    -0.018 A 
HETATM    3  C6  UNL     1      59.034 165.580  38.424  1.00  0.00     0.017 C 
HETATM    4  C7  UNL     1      57.554 163.643  38.961  1.00  0.00     0.017 C 
HETATM    5  C8  UNL     1      58.811 163.552  36.765  1.00  0.00     0.091 A 
HETATM    6  C9  UNL     1      57.864 162.425  36.489  1.00  0.00     0.073 C 
HETATM    7  N1  UNL     1      57.103 161.554  36.260  1.00  0.00    -0.196 NA
ENDROOT
BRANCH   5   8
HETATM    8  C10 UNL     1      59.144 164.246  35.493  1.00  0.00     0.072 C 
HETATM    9  C11 UNL     1      58.424 165.461  35.104  1.00  0.00     0.047 C 
HETATM   10  C12 UNL     1      60.644 164.584  35.480  1.00  0.00     0.047 C 
BRANCH   8  11
HETATM   11  O1  UNL     1      58.992 163.315  34.444  1.00  0.00    -0.389 OA
ATOM     12  H1  UNL     1      59.409 163.679  33.672  1.00  0.00     0.210 HD
ENDBRANCH   8  11
ENDBRANCH   5   8
BRANCH   1  13
HETATM   13  C2  UNL     1      60.167 162.141  38.546  1.00  0.00    -0.016 C 
HETATM   14  C1  UNL     1      60.896 160.971  38.052  1.00  0.00     0.010 C 
HETATM   15  C3  UNL     1      60.896 162.544  39.857  1.00  0.00     0.010 C 
ENDBRANCH   1  13
TORSDOF 3
ENDMDL
MODEL 3
REMARK VINA RESULT: -3.360946604      2.124      3.210
REMARK  3 active torsions:
REMARK  status: ('A' for Active; 'I' for Inactive)
REMARK    1  A    between atoms: C2_2  and  C4_4 
REMARK    2  A    between atoms: C8_8  and  C10_11 
REMARK    3  A    between atoms: C10_11  and  O1_14 
ROOT
HETATM    1  C4  UNL     1      58.803 162.822  39.171  1.00  0.00     0.025 A 
HETATM    2  C5  UNL     1      59.939 162.227  38.355  1.00  0.00    -0.018 A 
HETATM    3  C6  UNL     1      60.895 161.426  39.222  1.00  0.00     0.017 C 
HETATM    4  C7  UNL     1      60.660 163.023  37.318  1.00  0.00     0.017 C 
HETATM    5  C8  UNL     1      58.555 161.855  38.102  1.00  0.00     0.091 A 
HETATM    6  C9  UNL     1      58.006 162.393  36.818  1.00  0.00     0.073 C 
HETATM    7  N1  UNL     1      57.579 162.796  35.795  1.00  0.00    -0.196 NA
ENDROOT
BRANCH   5   8
HETATM    8  C10 UNL     1      57.896 160.561  38.421  1.00  0.00     0.072 C 
HETATM    9  C11 UNL     1      58.640 159.304  38.304  1.00  0.00     0.047 C 
HETATM   10  C12 UNL     1      57.331 160.621  39.850  1.00  0.00     0.047 C 
BRANCH   8  11
HETATM   11  O1  UNL     1      56.752 160.448  37.604  1.00  0.00    -0.389 OA
ATOM     12  H1  UNL     1      56.898 160.976  36.827  1.00  0.00     0.210 HD
ENDBRANCH   8  11
ENDBRANCH   5   8
BRANCH   1  13
HETATM   13  C2  UNL     1      58.628 164.252  39.221  1.00  0.00    -0.016 C 
HETATM   14  C1  UNL     1      57.477 164.920  39.831  1.00  0.00     0.010 C 
HETATM   15  C3  UNL     1      59.871 164.940  39.849  1.00  0.00     0.010 C 
ENDBRANCH   1  13
TORSDOF 3
ENDMDL
MODEL 4
REMARK VINA RESULT: -2.733210812      2.349      4.394
REMARK  3 active torsions:
REMARK  status: ('A' for Active; 'I' for Inactive)
REMARK    1  A    between atoms: C2_2  and  C4_4 
REMARK    2  A    between atoms: C8_8  and  C10_11 
REMARK    3  A    between atoms: C10_11  and  O1_14 
ROOT
HETATM    1  C4  UNL     1      58.423 164.382  36.656  1.00  0.00     0.025 A 
HETATM    2  C5  UNL     1      59.694 165.183  36.428  1.00  0.00    -0.018 A 
HETATM    3  C6  UNL     1      59.395 166.575  35.897  1.00  0.00     0.017 C 
HETATM    4  C7  UNL     1      60.893 164.581  35.770  1.00  0.00     0.017 C 
HETATM    5  C8  UNL     1      59.327 164.716  37.756  1.00  0.00     0.091 A 
HETATM    6  C9  UNL     1      60.197 163.613  38.275  1.00  0.00     0.073 C 
HETATM    7  N1  UNL     1      60.896 162.762  38.695  1.00  0.00    -0.196 NA
ENDROOT
BRANCH   5   8
HETATM    8  C10 UNL     1      58.829 165.534  38.893  1.00  0.00     0.072 C 
HETATM    9  C11 UNL     1      57.893 164.959  39.863  1.00  0.00     0.047 C 
HETATM   10  C12 UNL     1      60.028 166.078  39.688  1.00  0.00     0.047 C 
BRANCH   8  11
HETATM   11  O1  UNL     1      58.219 166.688  38.358  1.00  0.00    -0.389 OA
ATOM     12  H1  UNL     1      57.442 166.871  38.873  1.00  0.00     0.210 HD
ENDBRANCH   8  11
ENDBRANCH   5   8
BRANCH   1  13
HETATM   13  C2  UNL     1      58.213 163.150  35.937  1.00  0.00    -0.016 C 
HETATM   14  C1  UNL     1      57.590 161.957  36.513  1.00  0.00     0.010 C 
HETATM   15  C3  UNL     1      57.441 163.407  34.613  1.00  0.00     0.010 C 
ENDBRANCH   1  13
TORSDOF 3
ENDMDL
MODEL 5
REMARK VINA RESULT: -2.471184490      2.316      3.433
REMARK  3 active torsions:
REMARK  status: ('A' for Active; 'I' for Inactive)
REMARK    1  A    between atoms: C2_2  and  C4_4 
REMARK    2  A    between atoms: C8_8  and  C10_11 
REMARK    3  A    between atoms: C10_11  and  O1_14 
ROOT
HETATM    1  C4  UNL     1      58.535 161.296  38.458  1.00  0.00     0.025 A 
HETATM    2  C5  UNL     1      59.936 161.879  38.540  1.00  0.00    -0.018 A 
HETATM    3  C6  UNL     1      60.896 161.172  37.599  1.00  0.00     0.017 C 
HETATM    4  C7  UNL     1      60.576 162.202  39.851  1.00  0.00     0.017 C 
HETATM    5  C8  UNL     1      58.808 162.688  38.104  1.00  0.00     0.091 A 
HETATM    6  C9  UNL     1      58.390 163.731  39.093  1.00  0.00     0.073 C 
HETATM    7  N1  UNL     1      58.075 164.570  39.860  1.00  0.00    -0.196 NA
ENDROOT
BRANCH   5   8
HETATM    8  C10 UNL     1      58.520 163.165  36.726  1.00  0.00     0.072 C 
HETATM    9  C11 UNL     1      59.601 163.281  35.743  1.00  0.00     0.047 C 
HETATM   10  C12 UNL     1      57.432 162.275  36.101  1.00  0.00     0.047 C 
BRANCH   8  11
HETATM   11  O1  UNL     1      57.910 164.433  36.828  1.00  0.00    -0.389 OA
ATOM     12  H1  UNL     1      56.992 164.330  36.606  1.00  0.00     0.210 HD
ENDBRANCH   8  11
ENDBRANCH   5   8
BRANCH   1  13
HETATM   13  C2  UNL     1      57.931 160.712  39.631  1.00  0.00    -0.016 C 
HETATM   14  C1  UNL     1      56.488 160.638  39.863  1.00  0.00     0.010 C 
HETATM   15  C3  UNL     1      58.449 159.265  39.857  1.00  0.00     0.010 C 
ENDBRANCH   1  13
TORSDOF 3
ENDMDL
