MODEL 1
REMARK VINA RESULT: -4.703783351      0.000      0.000
REMARK  1 active torsions:
REMARK  status: ('A' for Active; 'I' for Inactive)
REMARK    1  A    between atoms: C1_2  and  C2_4 
ROOT
HETATM    1  C2  UNL     1      48.048 160.348  30.726  1.00  0.00     0.035 C 
HETATM    2  C3  UNL     1      49.234 159.695  30.077  1.00  0.00     0.018 C 
HETATM    3  C4  UNL     1      50.200 160.798  29.690  1.00  0.00     0.001 C 
HETATM    4  C5  UNL     1      50.921 161.273  30.936  1.00  0.00     0.000 C 
HETATM    5  C6  UNL     1      49.981 161.205  32.084  1.00  0.00     0.006 C 
HETATM    6  C7  UNL     1      48.536 161.346  31.731  1.00  0.00     0.002 C 
HETATM    7  C8  UNL     1      47.745 161.129  33.005  1.00  0.00     0.006 C 
HETATM    8  C9  UNL     1      46.719 160.075  32.722  1.00  0.00     0.002 C 
HETATM    9  C10 UNL     1      47.194 159.351  31.484  1.00  0.00     0.018 C 
ENDROOT
BRANCH   1  10
HETATM   10  C1  UNL     1      47.205 160.937  29.667  1.00  0.00     0.205 C 
HETATM   11  O1  UNL     1      46.481 161.885  29.851  1.00  0.00    -0.284 OA
HETATM   12  S1  UNL     1      47.249 160.221  28.040  1.00  0.00    -0.011 SA
ENDBRANCH   1  10
TORSDOF 1
ENDMDL
MODEL 2
REMARK VINA RESULT: -4.373574596      2.371      3.234
REMARK  1 active torsions:
REMARK  status: ('A' for Active; 'I' for Inactive)
REMARK    1  A    between atoms: C1_2  and  C2_4 
ROOT
HETATM    1  C2  UNL     1      48.880 161.179  31.526  1.00  0.00     0.035 C 
HETATM    2  C3  UNL     1      48.881 161.356  30.035  1.00  0.00     0.018 C 
HETATM    3  C4  UNL     1      49.095 159.987  29.420  1.00  0.00     0.001 C 
HETATM    4  C5  UNL     1      47.798 159.207  29.504  1.00  0.00     0.000 C 
HETATM    5  C6  UNL     1      47.104 159.573  30.765  1.00  0.00     0.006 C 
HETATM    6  C7  UNL     1      47.998 160.021  31.875  1.00  0.00     0.002 C 
HETATM    7  C8  UNL     1      47.103 160.461  33.016  1.00  0.00     0.006 C 
HETATM    8  C9  UNL     1      47.525 161.842  33.411  1.00  0.00     0.002 C 
HETATM    9  C10 UNL     1      48.311 162.389  32.242  1.00  0.00     0.018 C 
ENDROOT
BRANCH   1  10
HETATM   10  C1  UNL     1      50.277 161.018  31.975  1.00  0.00     0.205 C 
HETATM   11  O1  UNL     1      50.574 160.627  33.078  1.00  0.00    -0.284 OA
HETATM   12  S1  UNL     1      51.591 161.417  30.845  1.00  0.00    -0.011 SA
ENDBRANCH   1  10
TORSDOF 1
ENDMDL
MODEL 3
REMARK VINA RESULT: -4.150046185     10.432     11.934
REMARK  1 active torsions:
REMARK  status: ('A' for Active; 'I' for Inactive)
REMARK    1  A    between atoms: C1_2  and  C2_4 
ROOT
HETATM    1  C2  UNL     1      58.241 162.880  35.710  1.00  0.00     0.035 C 
HETATM    2  C3  UNL     1      57.511 162.256  36.864  1.00  0.00     0.018 C 
HETATM    3  C4  UNL     1      58.208 160.947  37.181  1.00  0.00     0.001 C 
HETATM    4  C5  UNL     1      59.493 161.248  37.928  1.00  0.00     0.000 C 
HETATM    5  C6  UNL     1      60.063 162.513  37.401  1.00  0.00     0.006 C 
HETATM    6  C7  UNL     1      59.713 162.826  35.982  1.00  0.00     0.002 C 
HETATM    7  C8  UNL     1      60.280 164.197  35.677  1.00  0.00     0.006 C 
HETATM    8  C9  UNL     1      59.166 165.033  35.126  1.00  0.00     0.002 C 
HETATM    9  C10 UNL     1      57.885 164.345  35.538  1.00  0.00     0.018 C 
ENDROOT
BRANCH   1  10
HETATM   10  C1  UNL     1      57.840 162.181  34.474  1.00  0.00     0.205 C 
HETATM   11  O1  UNL     1      58.617 161.570  33.780  1.00  0.00    -0.284 OA
HETATM   12  S1  UNL     1      56.135 162.236  33.973  1.00  0.00    -0.011 SA
ENDBRANCH   1  10
TORSDOF 1
ENDMDL
MODEL 4
REMARK VINA RESULT: -4.113748331      2.193      3.801
REMARK  1 active torsions:
REMARK  status: ('A' for Active; 'I' for Inactive)
REMARK    1  A    between atoms: C1_2  and  C2_4 
ROOT
HETATM    1  C2  UNL     1      48.797 160.560  31.232  1.00  0.00     0.035 C 
HETATM    2  C3  UNL     1      48.500 159.448  32.196  1.00  0.00     0.018 C 
HETATM    3  C4  UNL     1      47.448 159.958  33.161  1.00  0.00     0.001 C 
HETATM    4  C5  UNL     1      46.102 159.949  32.463  1.00  0.00     0.000 C 
HETATM    5  C6  UNL     1      46.307 160.285  31.031  1.00  0.00     0.006 C 
HETATM    6  C7  UNL     1      47.503 161.134  30.743  1.00  0.00     0.002 C 
HETATM    7  C8  UNL     1      47.604 161.260  29.236  1.00  0.00     0.006 C 
HETATM    8  C9  UNL     1      48.992 160.860  28.844  1.00  0.00     0.002 C 
HETATM    9  C10 UNL     1      49.543 160.067  30.007  1.00  0.00     0.018 C 
ENDROOT
BRANCH   1  10
HETATM   10  C1  UNL     1      49.663 161.544  31.909  1.00  0.00     0.205 C 
HETATM   11  O1  UNL     1      49.240 162.392  32.658  1.00  0.00    -0.284 OA
HETATM   12  S1  UNL     1      51.416 161.489  31.614  1.00  0.00    -0.011 SA
ENDBRANCH   1  10
TORSDOF 1
ENDMDL
MODEL 5
REMARK VINA RESULT: -4.070626915      2.086      3.109
REMARK  1 active torsions:
REMARK  status: ('A' for Active; 'I' for Inactive)
REMARK    1  A    between atoms: C1_2  and  C2_4 
ROOT
HETATM    1  C2  UNL     1      48.519 160.923  31.410  1.00  0.00     0.035 C 
HETATM    2  C3  UNL     1      49.191 161.981  32.236  1.00  0.00     0.018 C 
HETATM    3  C4  UNL     1      50.500 161.399  32.734  1.00  0.00     0.001 C 
HETATM    4  C5  UNL     1      51.500 161.403  31.594  1.00  0.00     0.000 C 
HETATM    5  C6  UNL     1      50.775 161.140  30.325  1.00  0.00     0.006 C 
HETATM    6  C7  UNL     1      49.522 160.338  30.464  1.00  0.00     0.002 C 
HETATM    7  C8  UNL     1      48.875 160.284  29.095  1.00  0.00     0.006 C 
HETATM    8  C9  UNL     1      47.457 160.739  29.249  1.00  0.00     0.002 C 
HETATM    9  C10 UNL     1      47.400 161.492  30.558  1.00  0.00     0.018 C 
ENDROOT
BRANCH   1  10
HETATM   10  C1  UNL     1      47.917 159.932  32.323  1.00  0.00     0.205 C 
HETATM   11  O1  UNL     1      48.569 159.133  32.953  1.00  0.00    -0.284 OA
HETATM   12  S1  UNL     1      46.149 159.904  32.513  1.00  0.00    -0.011 SA
ENDBRANCH   1  10
TORSDOF 1
ENDMDL
