MODEL 1
REMARK VINA RESULT: -6.687295032      0.000      0.000
REMARK  3 active torsions:
REMARK  status: ('A' for Active; 'I' for Inactive)
REMARK    1  A    between atoms: N1_1  and  C1_4 
REMARK    2  A    between atoms: C5_10  and  N3_11 
REMARK    3  A    between atoms: C9_17  and  C10_18 
ROOT
HETATM    1  C1  UNL     1     -26.336  48.051  17.380  1.00  0.00     0.676 A 
HETATM    2  N2  UNL     1     -25.109  48.024  17.930  1.00  0.00    -0.190 N 
ATOM      3  H2  UNL     1     -24.910  47.980  18.929  1.00  0.00     0.184 HD
HETATM    4  C2  UNL     1     -24.186  48.063  16.951  1.00  0.00     0.077 A 
HETATM    5  C3  UNL     1     -22.800  48.058  16.983  1.00  0.00     0.034 A 
HETATM    6  C4  UNL     1     -22.126  48.107  15.786  1.00  0.00     0.033 A 
HETATM    7  C5  UNL     1     -22.769  48.163  14.561  1.00  0.00     0.056 A 
HETATM    8  C9  UNL     1     -24.149  48.167  14.529  1.00  0.00     0.066 A 
HETATM    9  C12 UNL     1     -24.845  48.117  15.742  1.00  0.00     0.092 A 
HETATM   10  N8  UNL     1     -26.157  48.108  16.038  1.00  0.00    -0.189 N 
ATOM     11  H8  UNL     1     -26.910  48.139  15.351  1.00  0.00     0.184 HD
ENDROOT
BRANCH   8  12
HETATM   12  C10 UNL     1     -24.904  48.224  13.276  1.00  0.00     0.136 A 
HETATM   13  N5  UNL     1     -25.704  49.191  12.804  1.00  0.00    -0.336 N 
HETATM   14  C11 UNL     1     -26.165  48.759  11.598  1.00  0.00     0.199 A 
ATOM     15  H5  UNL     1     -25.924  50.077  13.260  1.00  0.00     0.168 HD
HETATM   16  N6  UNL     1     -25.659  47.548  11.329  1.00  0.00    -0.295 N 
HETATM   17  N7  UNL     1     -24.900  47.232  12.345  1.00  0.00    -0.284 N 
ATOM     18  H6  UNL     1     -25.832  46.985  10.496  1.00  0.00     0.187 HD
ATOM     19  H7  UNL     1     -24.376  46.361  12.428  1.00  0.00     0.188 HD
ENDBRANCH   8  12
BRANCH   7  20
HETATM   20  N3  UNL     1     -22.050  48.213  13.340  1.00  0.00    -0.316 N 
HETATM   21  C6  UNL     1     -22.036  49.185  12.409  1.00  0.00     0.115 A 
HETATM   22  C7  UNL     1     -21.193  48.811  11.382  1.00  0.00     0.106 A 
HETATM   23  N4  UNL     1     -20.699  47.592  11.714  1.00  0.00    -0.360 N 
HETATM   24  C8  UNL     1     -21.229  47.244  12.905  1.00  0.00     0.188 A 
ATOM     25  H4  UNL     1     -20.043  47.037  11.162  1.00  0.00     0.166 HD
ENDBRANCH   7  20
BRANCH   1  26
HETATM   26  N1  UNL     1     -27.490  48.028  17.963  1.00  0.00    -0.234 N 
ATOM     27  H12 UNL     1     -28.043  48.858  18.180  1.00  0.00     0.174 HD
ATOM     28  H11 UNL     1     -28.026  47.226  18.293  1.00  0.00     0.174 HD
ENDBRANCH   1  26
TORSDOF 3
ENDMDL
MODEL 2
REMARK VINA RESULT: -6.273244821      1.816      3.317
REMARK  3 active torsions:
REMARK  status: ('A' for Active; 'I' for Inactive)
REMARK    1  A    between atoms: N1_1  and  C1_4 
REMARK    2  A    between atoms: C5_10  and  N3_11 
REMARK    3  A    between atoms: C9_17  and  C10_18 
ROOT
HETATM    1  C1  UNL     1     -26.712  48.200  17.455  1.00  0.00     0.676 A 
HETATM    2  N2  UNL     1     -27.303  48.798  16.404  1.00  0.00    -0.190 N 
ATOM      3  H2  UNL     1     -28.211  49.262  16.422  1.00  0.00     0.184 HD
HETATM    4  C2  UNL     1     -26.506  48.685  15.326  1.00  0.00     0.077 A 
HETATM    5  C3  UNL     1     -26.646  49.120  14.018  1.00  0.00     0.034 A 
HETATM    6  C4  UNL     1     -25.634  48.843  13.132  1.00  0.00     0.033 A 
HETATM    7  C5  UNL     1     -24.489  48.150  13.488  1.00  0.00     0.056 A 
HETATM    8  C9  UNL     1     -24.347  47.717  14.791  1.00  0.00     0.066 A 
HETATM    9  C12 UNL     1     -25.373  47.994  15.702  1.00  0.00     0.092 A 
HETATM   10  N8  UNL     1     -25.530  47.713  17.008  1.00  0.00    -0.189 N 
ATOM     11  H8  UNL     1     -24.856  47.206  17.580  1.00  0.00     0.184 HD
ENDROOT
BRANCH   8  12
HETATM   12  C10 UNL     1     -23.169  46.979  15.249  1.00  0.00     0.136 A 
HETATM   13  N5  UNL     1     -22.041  47.437  15.813  1.00  0.00    -0.336 N 
HETATM   14  C11 UNL     1     -21.258  46.348  16.053  1.00  0.00     0.199 A 
ATOM     15  H5  UNL     1     -21.815  48.409  16.022  1.00  0.00     0.168 HD
HETATM   16  N6  UNL     1     -21.890  45.239  15.645  1.00  0.00    -0.295 N 
HETATM   17  N7  UNL     1     -23.041  45.627  15.162  1.00  0.00    -0.284 N 
ATOM     18  H6  UNL     1     -21.543  44.282  15.701  1.00  0.00     0.187 HD
ATOM     19  H7  UNL     1     -23.747  45.002  14.773  1.00  0.00     0.188 HD
ENDBRANCH   8  12
BRANCH   7  20
HETATM   20  N3  UNL     1     -23.458  47.877  12.554  1.00  0.00    -0.316 N 
HETATM   21  C6  UNL     1     -22.194  48.338  12.536  1.00  0.00     0.115 A 
HETATM   22  C7  UNL     1     -21.539  47.810  11.441  1.00  0.00     0.106 A 
HETATM   23  N4  UNL     1     -22.437  47.020  10.799  1.00  0.00    -0.360 N 
HETATM   24  C8  UNL     1     -23.596  47.072  11.489  1.00  0.00     0.188 A 
ATOM     25  H4  UNL     1     -22.267  46.483   9.948  1.00  0.00     0.166 HD
ENDBRANCH   7  20
BRANCH   1  26
HETATM   26  N1  UNL     1     -27.139  48.085  18.670  1.00  0.00    -0.234 N 
ATOM     27  H12 UNL     1     -27.087  47.227  19.221  1.00  0.00     0.174 HD
ATOM     28  H11 UNL     1     -27.578  48.787  19.266  1.00  0.00     0.174 HD
ENDBRANCH   1  26
TORSDOF 3
ENDMDL
MODEL 3
REMARK VINA RESULT: -6.131130565      1.899      3.516
REMARK  3 active torsions:
REMARK  status: ('A' for Active; 'I' for Inactive)
REMARK    1  A    between atoms: N1_1  and  C1_4 
REMARK    2  A    between atoms: C5_10  and  N3_11 
REMARK    3  A    between atoms: C9_17  and  C10_18 
ROOT
HETATM    1  C1  UNL     1     -26.220  48.527  18.666  1.00  0.00     0.676 A 
HETATM    2  N2  UNL     1     -27.100  49.026  17.778  1.00  0.00    -0.190 N 
ATOM      3  H2  UNL     1     -27.982  49.481  18.013  1.00  0.00     0.184 HD
HETATM    4  C2  UNL     1     -26.631  48.828  16.533  1.00  0.00     0.077 A 
HETATM    5  C3  UNL     1     -27.146  49.147  15.286  1.00  0.00     0.034 A 
HETATM    6  C4  UNL     1     -26.412  48.804  14.176  1.00  0.00     0.033 A 
HETATM    7  C5  UNL     1     -25.190  48.156  14.251  1.00  0.00     0.056 A 
HETATM    8  C9  UNL     1     -24.677  47.838  15.492  1.00  0.00     0.066 A 
HETATM    9  C12 UNL     1     -25.416  48.183  16.629  1.00  0.00     0.092 A 
HETATM   10  N8  UNL     1     -25.194  48.015  17.945  1.00  0.00    -0.189 N 
ATOM     11  H8  UNL     1     -24.370  47.566  18.344  1.00  0.00     0.184 HD
ENDROOT
BRANCH   8  12
HETATM   12  C10 UNL     1     -23.393  47.154  15.658  1.00  0.00     0.136 A 
HETATM   13  N5  UNL     1     -22.211  47.644  16.060  1.00  0.00    -0.336 N 
HETATM   14  C11 UNL     1     -21.335  46.601  16.046  1.00  0.00     0.199 A 
ATOM     15  H5  UNL     1     -22.008  48.607  16.325  1.00  0.00     0.168 HD
HETATM   16  N6  UNL     1     -21.964  45.488  15.644  1.00  0.00    -0.295 N 
HETATM   17  N7  UNL     1     -23.204  45.830  15.412  1.00  0.00    -0.284 N 
ATOM     18  H6  UNL     1     -21.556  44.560  15.540  1.00  0.00     0.187 HD
ATOM     19  H7  UNL     1     -23.930  45.190  15.090  1.00  0.00     0.188 HD
ENDBRANCH   8  12
BRANCH   7  20
HETATM   20  N3  UNL     1     -24.452  47.814  13.090  1.00  0.00    -0.316 N 
HETATM   21  C6  UNL     1     -23.267  48.296  12.672  1.00  0.00     0.115 A 
HETATM   22  C7  UNL     1     -22.923  47.676  11.487  1.00  0.00     0.106 A 
HETATM   23  N4  UNL     1     -23.927  46.809  11.201  1.00  0.00    -0.360 N 
HETATM   24  C8  UNL     1     -24.846  46.906  12.184  1.00  0.00     0.188 A 
ATOM     25  H4  UNL     1     -23.978  46.195  10.387  1.00  0.00     0.166 HD
ENDBRANCH   7  20
BRANCH   1  26
HETATM   26  N1  UNL     1     -26.286  48.512  19.957  1.00  0.00    -0.234 N 
ATOM     27  H12 UNL     1     -27.104  48.213  20.489  1.00  0.00     0.174 HD
ATOM     28  H11 UNL     1     -25.577  48.780  20.639  1.00  0.00     0.174 HD
ENDBRANCH   1  26
TORSDOF 3
ENDMDL
MODEL 4
REMARK VINA RESULT: -6.060748964      0.808      1.122
REMARK  3 active torsions:
REMARK  status: ('A' for Active; 'I' for Inactive)
REMARK    1  A    between atoms: N1_1  and  C1_4 
REMARK    2  A    between atoms: C5_10  and  N3_11 
REMARK    3  A    between atoms: C9_17  and  C10_18 
ROOT
HETATM    1  C1  UNL     1     -26.065  48.120  17.348  1.00  0.00     0.676 A 
HETATM    2  N2  UNL     1     -24.801  47.911  17.759  1.00  0.00    -0.190 N 
ATOM      3  H2  UNL     1     -24.509  47.768  18.725  1.00  0.00     0.184 HD
HETATM    4  C2  UNL     1     -23.983  47.919  16.690  1.00  0.00     0.077 A 
HETATM    5  C3  UNL     1     -22.612  47.752  16.569  1.00  0.00     0.034 A 
HETATM    6  C4  UNL     1     -22.062  47.816  15.312  1.00  0.00     0.033 A 
HETATM    7  C5  UNL     1     -22.813  48.038  14.170  1.00  0.00     0.056 A 
HETATM    8  C9  UNL     1     -24.178  48.203  14.289  1.00  0.00     0.066 A 
HETATM    9  C12 UNL     1     -24.750  48.140  15.565  1.00  0.00     0.092 A 
HETATM   10  N8  UNL     1     -26.016  48.259  16.002  1.00  0.00    -0.189 N 
ATOM     11  H8  UNL     1     -26.825  48.429  15.404  1.00  0.00     0.184 HD
ENDROOT
BRANCH   8  12
HETATM   12  C10 UNL     1     -25.043  48.442  13.133  1.00  0.00     0.136 A 
HETATM   13  N5  UNL     1     -26.027  47.681  12.631  1.00  0.00    -0.336 N 
HETATM   14  C11 UNL     1     -26.522  48.349  11.552  1.00  0.00     0.199 A 
ATOM     15  H5  UNL     1     -26.342  46.779  12.987  1.00  0.00     0.168 HD
HETATM   16  N6  UNL     1     -25.858  49.501  11.391  1.00  0.00    -0.295 N 
HETATM   17  N7  UNL     1     -24.968  49.551  12.348  1.00  0.00    -0.284 N 
ATOM     18  H6  UNL     1     -26.015  50.202  10.667  1.00  0.00     0.187 HD
ATOM     19  H7  UNL     1     -24.308  50.316  12.486  1.00  0.00     0.188 HD
ENDBRANCH   8  12
BRANCH   7  20
HETATM   20  N3  UNL     1     -22.220  48.099  12.884  1.00  0.00    -0.316 N 
HETATM   21  C6  UNL     1     -22.342  47.236  11.858  1.00  0.00     0.115 A 
HETATM   22  C7  UNL     1     -21.588  47.692  10.795  1.00  0.00     0.106 A 
HETATM   23  N4  UNL     1     -21.009  48.849  11.203  1.00  0.00    -0.360 N 
HETATM   24  C8  UNL     1     -21.404  49.081  12.473  1.00  0.00     0.188 A 
ATOM     25  H4  UNL     1     -20.386  49.439  10.649  1.00  0.00     0.166 HD
ENDBRANCH   7  20
BRANCH   1  26
HETATM   26  N1  UNL     1     -27.148  48.186  18.052  1.00  0.00    -0.234 N 
ATOM     27  H12 UNL     1     -27.892  47.488  18.031  1.00  0.00     0.174 HD
ATOM     28  H11 UNL     1     -27.439  48.902  18.717  1.00  0.00     0.174 HD
ENDBRANCH   1  26
TORSDOF 3
ENDMDL
MODEL 5
REMARK VINA RESULT: -5.771916609      1.827      3.411
REMARK  3 active torsions:
REMARK  status: ('A' for Active; 'I' for Inactive)
REMARK    1  A    between atoms: N1_1  and  C1_4 
REMARK    2  A    between atoms: C5_10  and  N3_11 
REMARK    3  A    between atoms: C9_17  and  C10_18 
ROOT
HETATM    1  C1  UNL     1     -26.791  48.199  17.477  1.00  0.00     0.676 A 
HETATM    2  N2  UNL     1     -27.374  48.794  16.420  1.00  0.00    -0.190 N 
ATOM      3  H2  UNL     1     -28.286  49.250  16.426  1.00  0.00     0.184 HD
HETATM    4  C2  UNL     1     -26.560  48.693  15.353  1.00  0.00     0.077 A 
HETATM    5  C3  UNL     1     -26.687  49.132  14.044  1.00  0.00     0.034 A 
HETATM    6  C4  UNL     1     -25.660  48.867  13.171  1.00  0.00     0.033 A 
HETATM    7  C5  UNL     1     -24.513  48.185  13.540  1.00  0.00     0.056 A 
HETATM    8  C9  UNL     1     -24.385  47.748  14.843  1.00  0.00     0.066 A 
HETATM    9  C12 UNL     1     -25.426  48.012  15.741  1.00  0.00     0.092 A 
HETATM   10  N8  UNL     1     -25.598  47.725  17.044  1.00  0.00    -0.189 N 
ATOM     11  H8  UNL     1     -24.927  47.223  17.624  1.00  0.00     0.184 HD
ENDROOT
BRANCH   8  12
HETATM   12  C10 UNL     1     -23.206  47.020  15.315  1.00  0.00     0.136 A 
HETATM   13  N5  UNL     1     -22.845  45.747  15.097  1.00  0.00    -0.336 N 
HETATM   14  C11 UNL     1     -21.666  45.561  15.753  1.00  0.00     0.199 A 
ATOM     15  H5  UNL     1     -23.353  45.054  14.548  1.00  0.00     0.168 HD
HETATM   16  N6  UNL     1     -21.305  46.697  16.364  1.00  0.00    -0.295 N 
HETATM   17  N7  UNL     1     -22.238  47.573  16.095  1.00  0.00    -0.284 N 
ATOM     18  H6  UNL     1     -20.468  46.850  16.926  1.00  0.00     0.187 HD
ATOM     19  H7  UNL     1     -22.240  48.538  16.425  1.00  0.00     0.188 HD
ENDBRANCH   8  12
BRANCH   7  20
HETATM   20  N3  UNL     1     -23.467  47.925  12.620  1.00  0.00    -0.316 N 
HETATM   21  C6  UNL     1     -23.507  47.212  11.478  1.00  0.00     0.115 A 
HETATM   22  C7  UNL     1     -22.254  47.222  10.898  1.00  0.00     0.106 A 
HETATM   23  N4  UNL     1     -21.458  47.958  11.716  1.00  0.00    -0.360 N 
HETATM   24  C8  UNL     1     -22.211  48.376  12.755  1.00  0.00     0.188 A 
ATOM     25  H4  UNL     1     -20.467  48.158  11.571  1.00  0.00     0.166 HD
ENDBRANCH   7  20
BRANCH   1  26
HETATM   26  N1  UNL     1     -27.233  48.075  18.685  1.00  0.00    -0.234 N 
ATOM     27  H12 UNL     1     -28.213  48.167  18.954  1.00  0.00     0.174 HD
ATOM     28  H11 UNL     1     -26.715  47.873  19.540  1.00  0.00     0.174 HD
ENDBRANCH   1  26
TORSDOF 3
ENDMDL
