MODEL 1
REMARK VINA RESULT: -8.970677749      0.000      0.000
REMARK  4 active torsions:
REMARK  status: ('A' for Active; 'I' for Inactive)
REMARK    1  A    between atoms: C5_6  and  C6_7 
REMARK    2  A    between atoms: C6_7  and  N2_8 
REMARK    3  A    between atoms: C9_15  and  N5_16 
REMARK    4  A    between atoms: C10_21  and  N7_22 
ROOT
HETATM    1  N1  UNL     1     -27.196  50.169  19.807  1.00  0.00    -0.191 NA
HETATM    2  C1  UNL     1     -26.573  49.595  19.020  1.00  0.00     0.099 C 
HETATM    3  C2  UNL     1     -25.800  48.852  18.039  1.00  0.00     0.044 A 
HETATM    4  C3  UNL     1     -26.420  48.125  17.047  1.00  0.00     0.023 A 
HETATM    5  C4  UNL     1     -25.682  47.426  16.125  1.00  0.00     0.010 A 
HETATM    6  C5  UNL     1     -24.274  47.407  16.132  1.00  0.00    -0.038 A 
HETATM    7  C12 UNL     1     -23.697  48.143  17.134  1.00  0.00     0.010 A 
HETATM    8  C13 UNL     1     -24.424  48.851  18.068  1.00  0.00     0.023 A 
ENDROOT
BRANCH   6   9
HETATM    9  C6  UNL     1     -23.552  46.638  15.084  1.00  0.00     0.188 C 
BRANCH   9  10
HETATM   10  N2  UNL     1     -23.078  47.525  14.084  1.00  0.00    -0.282 N 
HETATM   11  N3  UNL     1     -21.817  48.004  14.170  1.00  0.00    -0.307 N 
HETATM   12  C7  UNL     1     -21.548  48.850  13.193  1.00  0.00     0.140 A 
ATOM     13  H3  UNL     1     -21.154  47.743  14.901  1.00  0.00     0.186 HD
HETATM   14  C8  UNL     1     -22.689  48.938  12.415  1.00  0.00     0.098 A 
HETATM   15  N4  UNL     1     -23.003  49.628  11.295  1.00  0.00    -0.188 N 
HETATM   16  C11 UNL     1     -23.598  48.102  13.008  1.00  0.00     0.123 A 
HETATM   17  C9  UNL     1     -24.231  49.470  10.780  1.00  0.00     0.678 A 
ATOM     18  H4  UNL     1     -22.326  50.250  10.854  1.00  0.00     0.184 HD
HETATM   19  N6  UNL     1     -25.154  48.664  11.320  1.00  0.00    -0.175 N 
HETATM   20  C10 UNL     1     -24.832  47.983  12.435  1.00  0.00     0.145 A 
ATOM     21  H6  UNL     1     -26.077  48.569  10.897  1.00  0.00     0.186 HD
BRANCH  17  22
HETATM   22  N5  UNL     1     -24.547  50.111   9.724  1.00  0.00    -0.234 N 
ATOM     23  H52 UNL     1     -25.362  50.723   9.767  1.00  0.00     0.174 HD
ATOM     24  H51 UNL     1     -23.983  49.990   8.883  1.00  0.00     0.174 HD
ENDBRANCH  17  22
BRANCH  20  25
HETATM   25  N7  UNL     1     -25.680  47.191  12.958  1.00  0.00    -0.383 N 
ATOM     26  H72 UNL     1     -26.307  47.545  13.679  1.00  0.00     0.157 HD
ATOM     27  H71 UNL     1     -25.709  46.214  12.664  1.00  0.00     0.157 HD
ENDBRANCH  20  25
ENDBRANCH   9  10
ENDBRANCH   6   9
TORSDOF 4
ENDMDL
MODEL 2
REMARK VINA RESULT: -8.929065997      0.043      1.051
REMARK  4 active torsions:
REMARK  status: ('A' for Active; 'I' for Inactive)
REMARK    1  A    between atoms: C5_6  and  C6_7 
REMARK    2  A    between atoms: C6_7  and  N2_8 
REMARK    3  A    between atoms: C9_15  and  N5_16 
REMARK    4  A    between atoms: C10_21  and  N7_22 
ROOT
HETATM    1  N1  UNL     1     -27.135  50.201  19.842  1.00  0.00    -0.191 NA
HETATM    2  C1  UNL     1     -26.548  49.594  19.052  1.00  0.00     0.099 C 
HETATM    3  C2  UNL     1     -25.801  48.852  18.049  1.00  0.00     0.044 A 
HETATM    4  C3  UNL     1     -24.424  48.855  18.042  1.00  0.00     0.023 A 
HETATM    5  C4  UNL     1     -23.727  48.152  17.092  1.00  0.00     0.010 A 
HETATM    6  C5  UNL     1     -24.360  47.398  16.085  1.00  0.00    -0.038 A 
HETATM    7  C12 UNL     1     -25.729  47.422  16.127  1.00  0.00     0.010 A 
HETATM    8  C13 UNL     1     -26.445  48.123  17.076  1.00  0.00     0.023 A 
ENDROOT
BRANCH   6   9
HETATM    9  C6  UNL     1     -23.528  46.651  15.105  1.00  0.00     0.188 C 
BRANCH   9  10
HETATM   10  N2  UNL     1     -23.059  47.540  14.103  1.00  0.00    -0.282 N 
HETATM   11  N3  UNL     1     -21.804  48.035  14.197  1.00  0.00    -0.307 N 
HETATM   12  C7  UNL     1     -21.539  48.880  13.217  1.00  0.00     0.140 A 
ATOM     13  H3  UNL     1     -21.144  47.787  14.934  1.00  0.00     0.186 HD
HETATM   14  C8  UNL     1     -22.675  48.949  12.430  1.00  0.00     0.098 A 
HETATM   15  N4  UNL     1     -22.990  49.629  11.304  1.00  0.00    -0.188 N 
HETATM   16  C11 UNL     1     -23.578  48.104  13.021  1.00  0.00     0.123 A 
HETATM   17  C9  UNL     1     -24.211  49.452  10.781  1.00  0.00     0.678 A 
ATOM     18  H4  UNL     1     -22.318  50.258  10.866  1.00  0.00     0.184 HD
HETATM   19  N6  UNL     1     -25.128  48.636  11.318  1.00  0.00    -0.175 N 
HETATM   20  C10 UNL     1     -24.806  47.965  12.439  1.00  0.00     0.145 A 
ATOM     21  H6  UNL     1     -26.047  48.527  10.888  1.00  0.00     0.186 HD
BRANCH  17  22
HETATM   22  N5  UNL     1     -24.528  50.084   9.719  1.00  0.00    -0.234 N 
ATOM     23  H52 UNL     1     -24.408  51.097   9.716  1.00  0.00     0.174 HD
ATOM     24  H51 UNL     1     -24.888  49.561   8.920  1.00  0.00     0.174 HD
ENDBRANCH  17  22
BRANCH  20  25
HETATM   25  N7  UNL     1     -25.647  47.165  12.959  1.00  0.00    -0.383 N 
ATOM     26  H72 UNL     1     -25.453  46.164  12.941  1.00  0.00     0.157 HD
ATOM     27  H71 UNL     1     -26.508  47.530  13.366  1.00  0.00     0.157 HD
ENDBRANCH  20  25
ENDBRANCH   9  10
ENDBRANCH   6   9
TORSDOF 4
ENDMDL
MODEL 3
REMARK VINA RESULT: -8.509134245      1.094      2.463
REMARK  4 active torsions:
REMARK  status: ('A' for Active; 'I' for Inactive)
REMARK    1  A    between atoms: C5_6  and  C6_7 
REMARK    2  A    between atoms: C6_7  and  N2_8 
REMARK    3  A    between atoms: C9_15  and  N5_16 
REMARK    4  A    between atoms: C10_21  and  N7_22 
ROOT
HETATM    1  N1  UNL     1     -27.221  50.515  20.188  1.00  0.00    -0.191 NA
HETATM    2  C1  UNL     1     -26.783  49.901  19.311  1.00  0.00     0.099 C 
HETATM    3  C2  UNL     1     -26.218  49.149  18.204  1.00  0.00     0.044 A 
HETATM    4  C3  UNL     1     -24.885  48.799  18.188  1.00  0.00     0.023 A 
HETATM    5  C4  UNL     1     -24.360  48.088  17.138  1.00  0.00     0.010 A 
HETATM    6  C5  UNL     1     -25.131  47.680  16.033  1.00  0.00    -0.038 A 
HETATM    7  C12 UNL     1     -26.450  48.047  16.087  1.00  0.00     0.010 A 
HETATM    8  C13 UNL     1     -26.994  48.761  17.135  1.00  0.00     0.023 A 
ENDROOT
BRANCH   6   9
HETATM    9  C6  UNL     1     -24.486  46.897  14.945  1.00  0.00     0.188 C 
BRANCH   9  10
HETATM   10  N2  UNL     1     -24.410  47.688  13.770  1.00  0.00    -0.282 N 
HETATM   11  N3  UNL     1     -25.552  48.124  13.194  1.00  0.00    -0.307 N 
HETATM   12  C7  UNL     1     -25.312  48.803  12.087  1.00  0.00     0.140 A 
ATOM     13  H3  UNL     1     -26.485  47.950  13.568  1.00  0.00     0.186 HD
HETATM   14  C8  UNL     1     -23.939  48.821  11.919  1.00  0.00     0.098 A 
HETATM   15  N4  UNL     1     -23.120  49.363  10.989  1.00  0.00    -0.188 N 
HETATM   16  C11 UNL     1     -23.433  48.121  12.983  1.00  0.00     0.123 A 
HETATM   17  C9  UNL     1     -21.798  49.195  11.137  1.00  0.00     0.678 A 
ATOM     18  H4  UNL     1     -23.496  49.883  10.197  1.00  0.00     0.184 HD
HETATM   19  N6  UNL     1     -21.255  48.522  12.160  1.00  0.00    -0.175 N 
HETATM   20  C10 UNL     1     -22.078  47.986  13.080  1.00  0.00     0.145 A 
ATOM     21  H6  UNL     1     -20.243  48.419  12.239  1.00  0.00     0.186 HD
BRANCH  17  22
HETATM   22  N5  UNL     1     -21.008  49.698  10.271  1.00  0.00    -0.234 N 
ATOM     23  H52 UNL     1     -20.540  50.573  10.508  1.00  0.00     0.174 HD
ATOM     24  H51 UNL     1     -20.876  49.215   9.382  1.00  0.00     0.174 HD
ENDBRANCH  17  22
BRANCH  20  25
HETATM   25  N7  UNL     1     -21.590  47.362  14.075  1.00  0.00    -0.383 N 
ATOM     26  H72 UNL     1     -21.151  47.894  14.826  1.00  0.00     0.157 HD
ATOM     27  H71 UNL     1     -21.626  46.342  14.100  1.00  0.00     0.157 HD
ENDBRANCH  20  25
ENDBRANCH   9  10
ENDBRANCH   6   9
TORSDOF 4
ENDMDL
MODEL 4
REMARK VINA RESULT: -8.476931578      1.067      2.220
REMARK  4 active torsions:
REMARK  status: ('A' for Active; 'I' for Inactive)
REMARK    1  A    between atoms: C5_6  and  C6_7 
REMARK    2  A    between atoms: C6_7  and  N2_8 
REMARK    3  A    between atoms: C9_15  and  N5_16 
REMARK    4  A    between atoms: C10_21  and  N7_22 
ROOT
HETATM    1  N1  UNL     1     -27.245  50.370  20.152  1.00  0.00    -0.191 NA
HETATM    2  C1  UNL     1     -26.751  49.795  19.278  1.00  0.00     0.099 C 
HETATM    3  C2  UNL     1     -26.143  49.052  18.188  1.00  0.00     0.044 A 
HETATM    4  C3  UNL     1     -26.909  48.524  17.172  1.00  0.00     0.023 A 
HETATM    5  C4  UNL     1     -26.326  47.823  16.146  1.00  0.00     0.010 A 
HETATM    6  C5  UNL     1     -24.937  47.603  16.067  1.00  0.00    -0.038 A 
HETATM    7  C12 UNL     1     -24.212  48.145  17.095  1.00  0.00     0.010 A 
HETATM    8  C13 UNL     1     -24.782  48.852  18.133  1.00  0.00     0.023 A 
ENDROOT
BRANCH   6   9
HETATM    9  C6  UNL     1     -24.387  46.848  14.910  1.00  0.00     0.188 C 
BRANCH   9  10
HETATM   10  N2  UNL     1     -24.322  47.696  13.775  1.00  0.00    -0.282 N 
HETATM   11  N3  UNL     1     -25.470  48.173  13.242  1.00  0.00    -0.307 N 
HETATM   12  C7  UNL     1     -25.241  48.904  12.166  1.00  0.00     0.140 A 
ATOM     13  H3  UNL     1     -26.398  47.990  13.624  1.00  0.00     0.186 HD
HETATM   14  C8  UNL     1     -23.871  48.916  11.974  1.00  0.00     0.098 A 
HETATM   15  N4  UNL     1     -23.062  49.495  11.058  1.00  0.00    -0.188 N 
HETATM   16  C11 UNL     1     -23.355  48.158  12.993  1.00  0.00     0.123 A 
HETATM   17  C9  UNL     1     -21.741  49.307  11.174  1.00  0.00     0.678 A 
ATOM     18  H4  UNL     1     -23.447  50.059  10.300  1.00  0.00     0.184 HD
HETATM   19  N6  UNL     1     -21.187  48.577  12.151  1.00  0.00    -0.175 N 
HETATM   20  C10 UNL     1     -22.000  48.004  13.058  1.00  0.00     0.145 A 
ATOM     21  H6  UNL     1     -20.175  48.459  12.207  1.00  0.00     0.186 HD
BRANCH  17  22
HETATM   22  N5  UNL     1     -20.960  49.844  10.320  1.00  0.00    -0.234 N 
ATOM     23  H52 UNL     1     -21.322  49.999   9.379  1.00  0.00     0.174 HD
ATOM     24  H51 UNL     1     -20.013  50.096  10.603  1.00  0.00     0.174 HD
ENDBRANCH  17  22
BRANCH  20  25
HETATM   25  N7  UNL     1     -21.502  47.325  14.012  1.00  0.00    -0.383 N 
ATOM     26  H72 UNL     1     -20.523  47.468  14.261  1.00  0.00     0.157 HD
ATOM     27  H71 UNL     1     -22.077  46.638  14.498  1.00  0.00     0.157 HD
ENDBRANCH  20  25
ENDBRANCH   9  10
ENDBRANCH   6   9
TORSDOF 4
ENDMDL
MODEL 5
REMARK VINA RESULT: -7.945925781      1.319      1.951
REMARK  4 active torsions:
REMARK  status: ('A' for Active; 'I' for Inactive)
REMARK    1  A    between atoms: C5_6  and  C6_7 
REMARK    2  A    between atoms: C6_7  and  N2_8 
REMARK    3  A    between atoms: C9_15  and  N5_16 
REMARK    4  A    between atoms: C10_21  and  N7_22 
ROOT
HETATM    1  N1  UNL     1     -26.589  49.530  20.604  1.00  0.00    -0.191 NA
HETATM    2  C1  UNL     1     -26.409  49.258  19.495  1.00  0.00     0.099 C 
HETATM    3  C2  UNL     1     -26.198  48.896  18.103  1.00  0.00     0.044 A 
HETATM    4  C3  UNL     1     -27.238  48.911  17.199  1.00  0.00     0.023 A 
HETATM    5  C4  UNL     1     -27.029  48.567  15.887  1.00  0.00     0.010 A 
HETATM    6  C5  UNL     1     -25.768  48.185  15.390  1.00  0.00    -0.038 A 
HETATM    7  C12 UNL     1     -24.762  48.184  16.321  1.00  0.00     0.010 A 
HETATM    8  C13 UNL     1     -24.955  48.526  17.643  1.00  0.00     0.023 A 
ENDROOT
BRANCH   6   9
HETATM    9  C6  UNL     1     -25.627  47.846  13.949  1.00  0.00     0.188 C 
BRANCH   9  10
HETATM   10  N2  UNL     1     -24.252  47.793  13.605  1.00  0.00    -0.282 N 
HETATM   11  N3  UNL     1     -23.419  47.015  14.332  1.00  0.00    -0.307 N 
HETATM   12  C7  UNL     1     -22.170  47.114  13.915  1.00  0.00     0.140 A 
ATOM     13  H3  UNL     1     -23.719  46.425  15.108  1.00  0.00     0.186 HD
HETATM   14  C8  UNL     1     -22.172  48.002  12.854  1.00  0.00     0.098 A 
HETATM   15  N4  UNL     1     -21.207  48.481  12.036  1.00  0.00    -0.188 N 
HETATM   16  C11 UNL     1     -23.478  48.389  12.706  1.00  0.00     0.123 A 
HETATM   17  C9  UNL     1     -21.564  49.345  11.076  1.00  0.00     0.678 A 
ATOM     18  H4  UNL     1     -20.235  48.194  12.147  1.00  0.00     0.184 HD
HETATM   19  N6  UNL     1     -22.826  49.752  10.889  1.00  0.00    -0.175 N 
HETATM   20  C10 UNL     1     -23.780  49.270  11.708  1.00  0.00     0.145 A 
ATOM     21  H6  UNL     1     -23.060  50.409  10.144  1.00  0.00     0.186 HD
BRANCH  17  22
HETATM   22  N5  UNL     1     -20.669  49.809  10.295  1.00  0.00    -0.234 N 
ATOM     23  H52 UNL     1     -19.708  49.498  10.437  1.00  0.00     0.174 HD
ATOM     24  H51 UNL     1     -20.942  50.467   9.564  1.00  0.00     0.174 HD
ENDBRANCH  17  22
BRANCH  20  25
HETATM   25  N7  UNL     1     -24.992  49.620  11.539  1.00  0.00    -0.383 N 
ATOM     26  H72 UNL     1     -25.214  50.612  11.465  1.00  0.00     0.157 HD
ATOM     27  H71 UNL     1     -25.723  48.909  11.501  1.00  0.00     0.157 HD
ENDBRANCH  20  25
ENDBRANCH   9  10
ENDBRANCH   6   9
TORSDOF 4
ENDMDL
