MODEL 1
REMARK VINA RESULT: -6.768907457      0.000      0.000
REMARK  3 active torsions:
REMARK  status: ('A' for Active; 'I' for Inactive)
REMARK    1  A    between atoms: N1_1  and  C1_4 
REMARK    2  A    between atoms: C4_16  and  N6_17 
REMARK    3  A    between atoms: C5_19  and  C6_20 
ROOT
HETATM    1  C1  UNL     1     -24.947  48.815  11.960  1.00  0.00     0.677 A 
HETATM    2  N2  UNL     1     -24.077  48.536  10.972  1.00  0.00    -0.179 N 
ATOM      3  H2  UNL     1     -24.352  48.706  10.005  1.00  0.00     0.185 HD
HETATM    4  C2  UNL     1     -22.849  48.036  11.227  1.00  0.00     0.147 A 
HETATM    5  S1  UNL     1     -21.796  47.699  10.009  1.00  0.00    -0.057 SA
HETATM    6  C3  UNL     1     -22.522  47.821  12.547  1.00  0.00     0.119 A 
HETATM    7  N3  UNL     1     -21.313  47.325  12.851  1.00  0.00    -0.281 N 
ATOM      8  H3  UNL     1     -20.647  47.110  12.109  1.00  0.00     0.188 HD
HETATM    9  N4  UNL     1     -20.987  47.117  14.106  1.00  0.00    -0.241 N 
ATOM     10  H4  UNL     1     -20.064  46.739  14.319  1.00  0.00     0.208 HD
HETATM   11  N5  UNL     1     -21.795  47.373  15.081  1.00  0.00    -0.269 N 
ATOM     12  H5  UNL     1     -21.472  47.186  16.030  1.00  0.00     0.190 HD
HETATM   13  C4  UNL     1     -23.074  47.886  14.920  1.00  0.00     0.151 A 
HETATM   14  C10 UNL     1     -23.408  48.104  13.587  1.00  0.00     0.125 A 
HETATM   15  N7  UNL     1     -24.604  48.596  13.245  1.00  0.00    -0.186 N 
ATOM     16  H7  UNL     1     -25.276  48.814  13.981  1.00  0.00     0.184 HD
ENDROOT
BRANCH  13  17
HETATM   17  N6  UNL     1     -23.758  48.092  15.920  1.00  0.00    -0.347 N 
HETATM   18  C5  UNL     1     -23.761  48.246  17.268  1.00  0.00     0.127 C 
ATOM     19  H6  UNL     1     -24.724  48.185  15.606  1.00  0.00     0.167 HD
BRANCH  18  20
HETATM   20  C6  UNL     1     -25.186  48.461  17.758  1.00  0.00     0.090 A 
HETATM   21  C7  UNL     1     -26.337  47.994  17.185  1.00  0.00     0.040 A 
HETATM   22  C8  UNL     1     -27.406  48.417  17.950  1.00  0.00     0.027 A 
HETATM   23  C9  UNL     1     -26.831  49.140  18.978  1.00  0.00     0.142 A 
HETATM   24  O1  UNL     1     -25.529  49.139  18.823  1.00  0.00    -0.321 OA
ENDBRANCH  18  20
ENDBRANCH  13  17
BRANCH   1  25
HETATM   25  N1  UNL     1     -26.140  49.301  11.712  1.00  0.00    -0.234 N 
ATOM     26  H12 UNL     1     -26.303  49.738  10.805  1.00  0.00     0.174 HD
ATOM     27  H11 UNL     1     -26.893  49.250  12.399  1.00  0.00     0.174 HD
ENDBRANCH   1  25
TORSDOF 3
ENDMDL
MODEL 2
REMARK VINA RESULT: -6.637570763      1.036      1.495
REMARK  3 active torsions:
REMARK  status: ('A' for Active; 'I' for Inactive)
REMARK    1  A    between atoms: N1_1  and  C1_4 
REMARK    2  A    between atoms: C4_16  and  N6_17 
REMARK    3  A    between atoms: C5_19  and  C6_20 
ROOT
HETATM    1  C1  UNL     1     -25.113  48.642  12.467  1.00  0.00     0.677 A 
HETATM    2  N2  UNL     1     -24.059  48.302  11.702  1.00  0.00    -0.179 N 
ATOM      3  H2  UNL     1     -24.119  48.424  10.691  1.00  0.00     0.185 HD
HETATM    4  C2  UNL     1     -22.924  47.805  12.238  1.00  0.00     0.147 A 
HETATM    5  S1  UNL     1     -21.643  47.394  11.290  1.00  0.00    -0.057 SA
HETATM    6  C3  UNL     1     -22.889  47.657  13.606  1.00  0.00     0.119 A 
HETATM    7  N3  UNL     1     -21.782  47.167  14.185  1.00  0.00    -0.281 N 
ATOM      8  H3  UNL     1     -20.979  46.906  13.613  1.00  0.00     0.188 HD
HETATM    9  N4  UNL     1     -21.735  47.022  15.489  1.00  0.00    -0.241 N 
ATOM     10  H4  UNL     1     -20.885  46.647  15.912  1.00  0.00     0.208 HD
HETATM   11  N5  UNL     1     -22.725  47.337  16.255  1.00  0.00    -0.269 N 
ATOM     12  H5  UNL     1     -22.615  47.197  17.260  1.00  0.00     0.190 HD
HETATM   13  C4  UNL     1     -23.930  47.853  15.801  1.00  0.00     0.151 A 
HETATM   14  C10 UNL     1     -23.969  48.003  14.418  1.00  0.00     0.125 A 
HETATM   15  N7  UNL     1     -25.055  48.488  13.805  1.00  0.00    -0.186 N 
ATOM     16  H7  UNL     1     -25.864  48.750  14.369  1.00  0.00     0.184 HD
ENDROOT
BRANCH  13  17
HETATM   17  N6  UNL     1     -24.807  48.117  16.621  1.00  0.00    -0.347 N 
HETATM   18  C5  UNL     1     -26.093  47.907  16.999  1.00  0.00     0.127 C 
ATOM     19  H6  UNL     1     -24.398  48.762  17.297  1.00  0.00     0.167 HD
BRANCH  18  20
HETATM   20  C6  UNL     1     -26.405  48.730  18.240  1.00  0.00     0.090 A 
HETATM   21  C7  UNL     1     -25.993  48.483  19.521  1.00  0.00     0.040 A 
HETATM   22  C8  UNL     1     -26.498  49.474  20.339  1.00  0.00     0.027 A 
HETATM   23  C9  UNL     1     -27.211  50.295  19.487  1.00  0.00     0.142 A 
HETATM   24  O1  UNL     1     -27.129  49.819  18.268  1.00  0.00    -0.321 OA
ENDBRANCH  18  20
ENDBRANCH  13  17
BRANCH   1  25
HETATM   25  N1  UNL     1     -26.216  49.125  11.947  1.00  0.00    -0.234 N 
ATOM     26  H12 UNL     1     -26.714  48.557  11.262  1.00  0.00     0.174 HD
ATOM     27  H11 UNL     1     -26.577  50.041  12.212  1.00  0.00     0.174 HD
ENDBRANCH   1  25
TORSDOF 3
ENDMDL
MODEL 3
REMARK VINA RESULT: -6.204017974      0.839      1.018
REMARK  3 active torsions:
REMARK  status: ('A' for Active; 'I' for Inactive)
REMARK    1  A    between atoms: N1_1  and  C1_4 
REMARK    2  A    between atoms: C4_16  and  N6_17 
REMARK    3  A    between atoms: C5_19  and  C6_20 
ROOT
HETATM    1  C1  UNL     1     -24.806  49.136  11.705  1.00  0.00     0.677 A 
HETATM    2  N2  UNL     1     -23.817  49.055  10.796  1.00  0.00    -0.179 N 
ATOM      3  H2  UNL     1     -23.985  49.396   9.849  1.00  0.00     0.185 HD
HETATM    4  C2  UNL     1     -22.610  48.535  11.103  1.00  0.00     0.147 A 
HETATM    5  S1  UNL     1     -21.411  48.443   9.980  1.00  0.00    -0.057 SA
HETATM    6  C3  UNL     1     -22.431  48.086  12.392  1.00  0.00     0.119 A 
HETATM    7  N3  UNL     1     -21.247  47.561  12.745  1.00  0.00    -0.281 N 
ATOM      8  H3  UNL     1     -20.493  47.496  12.062  1.00  0.00     0.188 HD
HETATM    9  N4  UNL     1     -21.062  47.130  13.971  1.00  0.00    -0.241 N 
ATOM     10  H4  UNL     1     -20.156  46.734  14.222  1.00  0.00     0.208 HD
HETATM   11  N5  UNL     1     -21.986  47.191  14.872  1.00  0.00    -0.269 N 
ATOM     12  H5  UNL     1     -21.769  46.837  15.803  1.00  0.00     0.190 HD
HETATM   13  C4  UNL     1     -23.256  47.706  14.653  1.00  0.00     0.151 A 
HETATM   14  C10 UNL     1     -23.441  48.160  13.351  1.00  0.00     0.125 A 
HETATM   15  N7  UNL     1     -24.606  48.689  12.962  1.00  0.00    -0.186 N 
ATOM     16  H7  UNL     1     -25.367  48.758  13.638  1.00  0.00     0.184 HD
ENDROOT
BRANCH  13  17
HETATM   17  N6  UNL     1     -24.059  47.714  15.584  1.00  0.00    -0.347 N 
HETATM   18  C5  UNL     1     -24.843  46.964  16.398  1.00  0.00     0.127 C 
ATOM     19  H6  UNL     1     -24.189  48.688  15.857  1.00  0.00     0.167 HD
BRANCH  18  20
HETATM   20  C6  UNL     1     -25.608  47.870  17.351  1.00  0.00     0.090 A 
HETATM   21  C7  UNL     1     -25.083  48.754  18.254  1.00  0.00     0.040 A 
HETATM   22  C8  UNL     1     -26.126  49.373  18.914  1.00  0.00     0.027 A 
HETATM   23  C9  UNL     1     -27.264  48.817  18.362  1.00  0.00     0.142 A 
HETATM   24  O1  UNL     1     -26.911  47.941  17.452  1.00  0.00    -0.321 OA
ENDBRANCH  18  20
ENDBRANCH  13  17
BRANCH   1  25
HETATM   25  N1  UNL     1     -25.978  49.640  11.408  1.00  0.00    -0.234 N 
ATOM     26  H12 UNL     1     -26.171  50.604  11.680  1.00  0.00     0.174 HD
ATOM     27  H11 UNL     1     -26.689  49.096  10.918  1.00  0.00     0.174 HD
ENDBRANCH   1  25
TORSDOF 3
ENDMDL
MODEL 4
REMARK VINA RESULT: -6.109528233      1.393      3.323
REMARK  3 active torsions:
REMARK  status: ('A' for Active; 'I' for Inactive)
REMARK    1  A    between atoms: N1_1  and  C1_4 
REMARK    2  A    between atoms: C4_16  and  N6_17 
REMARK    3  A    between atoms: C5_19  and  C6_20 
ROOT
HETATM    1  C1  UNL     1     -22.318  47.016  14.856  1.00  0.00     0.677 A 
HETATM    2  N2  UNL     1     -22.035  47.029  13.540  1.00  0.00    -0.179 N 
ATOM      3  H2  UNL     1     -21.133  46.672  13.223  1.00  0.00     0.185 HD
HETATM    4  C2  UNL     1     -22.911  47.501  12.629  1.00  0.00     0.147 A 
HETATM    5  S1  UNL     1     -22.550  47.509  11.023  1.00  0.00    -0.057 SA
HETATM    6  C3  UNL     1     -24.114  47.973  13.103  1.00  0.00     0.119 A 
HETATM    7  N3  UNL     1     -25.019  48.453  12.235  1.00  0.00    -0.281 N 
ATOM      8  H3  UNL     1     -24.812  48.466  11.236  1.00  0.00     0.188 HD
HETATM    9  N4  UNL     1     -26.171  48.905  12.673  1.00  0.00    -0.241 N 
ATOM     10  H4  UNL     1     -26.846  49.266  11.999  1.00  0.00     0.208 HD
HETATM   11  N5  UNL     1     -26.479  48.910  13.927  1.00  0.00    -0.269 N 
ATOM     12  H5  UNL     1     -27.393  49.277  14.192  1.00  0.00     0.190 HD
HETATM   13  C4  UNL     1     -25.647  48.448  14.937  1.00  0.00     0.151 A 
HETATM   14  C10 UNL     1     -24.430  47.970  14.461  1.00  0.00     0.125 A 
HETATM   15  N7  UNL     1     -23.504  47.485  15.296  1.00  0.00    -0.186 N 
ATOM     16  H7  UNL     1     -23.702  47.468  16.296  1.00  0.00     0.184 HD
ENDROOT
BRANCH  13  17
HETATM   17  N6  UNL     1     -26.043  48.500  16.099  1.00  0.00    -0.347 N 
HETATM   18  C5  UNL     1     -26.738  47.869  17.079  1.00  0.00     0.127 C 
ATOM     19  H6  UNL     1     -25.713  49.383  16.488  1.00  0.00     0.167 HD
BRANCH  18  20
HETATM   20  C6  UNL     1     -26.766  48.737  18.329  1.00  0.00     0.090 A 
HETATM   21  C7  UNL     1     -26.218  48.449  19.549  1.00  0.00     0.040 A 
HETATM   22  C8  UNL     1     -26.472  49.505  20.400  1.00  0.00     0.027 A 
HETATM   23  C9  UNL     1     -27.181  50.407  19.631  1.00  0.00     0.142 A 
HETATM   24  O1  UNL     1     -27.330  49.913  18.425  1.00  0.00    -0.321 OA
ENDBRANCH  18  20
ENDBRANCH  13  17
BRANCH   1  25
HETATM   25  N1  UNL     1     -21.467  46.558  15.741  1.00  0.00    -0.234 N 
ATOM     26  H12 UNL     1     -20.638  46.070  15.404  1.00  0.00     0.174 HD
ATOM     27  H11 UNL     1     -21.618  46.679  16.743  1.00  0.00     0.174 HD
ENDBRANCH   1  25
TORSDOF 3
ENDMDL
MODEL 5
REMARK VINA RESULT: -5.807473666      1.209      3.128
REMARK  3 active torsions:
REMARK  status: ('A' for Active; 'I' for Inactive)
REMARK    1  A    between atoms: N1_1  and  C1_4 
REMARK    2  A    between atoms: C4_16  and  N6_17 
REMARK    3  A    between atoms: C5_19  and  C6_20 
ROOT
HETATM    1  C1  UNL     1     -21.947  47.311  13.931  1.00  0.00     0.677 A 
HETATM    2  N2  UNL     1     -21.598  47.335  12.631  1.00  0.00    -0.179 N 
ATOM      3  H2  UNL     1     -20.657  47.044  12.364  1.00  0.00     0.185 HD
HETATM    4  C2  UNL     1     -22.459  47.735  11.672  1.00  0.00     0.147 A 
HETATM    5  S1  UNL     1     -22.017  47.759  10.086  1.00  0.00    -0.057 SA
HETATM    6  C3  UNL     1     -23.716  48.121  12.079  1.00  0.00     0.119 A 
HETATM    7  N3  UNL     1     -24.607  48.527  11.161  1.00  0.00    -0.281 N 
ATOM      8  H3  UNL     1     -24.350  48.549  10.174  1.00  0.00     0.188 HD
HETATM    9  N4  UNL     1     -25.810  48.896  11.536  1.00  0.00    -0.241 N 
ATOM     10  H4  UNL     1     -26.475  49.202  10.824  1.00  0.00     0.208 HD
HETATM   11  N5  UNL     1     -26.182  48.886  12.772  1.00  0.00    -0.269 N 
ATOM     12  H5  UNL     1     -27.133  49.187  12.987  1.00  0.00     0.190 HD
HETATM   13  C4  UNL     1     -25.372  48.494  13.828  1.00  0.00     0.151 A 
HETATM   14  C10 UNL     1     -24.100  48.104  13.420  1.00  0.00     0.125 A 
HETATM   15  N7  UNL     1     -23.185  47.694  14.305  1.00  0.00    -0.186 N 
ATOM     16  H7  UNL     1     -23.432  47.669  15.294  1.00  0.00     0.184 HD
ENDROOT
BRANCH  13  17
HETATM   17  N6  UNL     1     -25.829  48.525  14.968  1.00  0.00    -0.347 N 
HETATM   18  C5  UNL     1     -26.941  48.404  15.736  1.00  0.00     0.127 C 
ATOM     19  H6  UNL     1     -25.051  48.722  15.597  1.00  0.00     0.167 HD
BRANCH  18  20
HETATM   20  C6  UNL     1     -26.585  48.640  17.197  1.00  0.00     0.090 A 
HETATM   21  C7  UNL     1     -25.369  48.445  17.794  1.00  0.00     0.040 A 
HETATM   22  C8  UNL     1     -25.481  48.781  19.128  1.00  0.00     0.027 A 
HETATM   23  C9  UNL     1     -26.797  49.175  19.276  1.00  0.00     0.142 A 
HETATM   24  O1  UNL     1     -27.405  49.076  18.119  1.00  0.00    -0.321 OA
ENDBRANCH  18  20
ENDBRANCH  13  17
BRANCH   1  25
HETATM   25  N1  UNL     1     -21.111  46.923  14.863  1.00  0.00    -0.234 N 
ATOM     26  H12 UNL     1     -21.385  47.050  15.837  1.00  0.00     0.174 HD
ATOM     27  H11 UNL     1     -20.209  46.504  14.635  1.00  0.00     0.174 HD
ENDBRANCH   1  25
TORSDOF 3
ENDMDL
