MODEL 1
REMARK VINA RESULT: -6.685932805      0.000      0.000
REMARK  6 active torsions:
REMARK  status: ('A' for Active; 'I' for Inactive)
REMARK    1  A    between atoms: C2_2  and  C3_3 
REMARK    2  A    between atoms: C2_2  and  N2_8 
REMARK    3  A    between atoms: C3_3  and  N1_4 
REMARK    4  A    between atoms: N2_8  and  C4_10 
REMARK    5  A    between atoms: C7_17  and  N5_18 
REMARK    6  A    between atoms: N7_24  and  C11_26 
ROOT
HETATM    1  C4  UNL     1       1.335  12.660  23.828  1.00  0.00     0.133 A 
HETATM    2  N3  UNL     1       1.049  11.539  24.571  1.00  0.00    -0.337 N 
ATOM      3  H3  UNL     1       0.585  10.760  24.102  1.00  0.00     0.168 HD
HETATM    4  C5  UNL     1       1.338  11.409  25.850  1.00  0.00     0.182 A 
HETATM    5  N4  UNL     1       1.949  12.406  26.523  1.00  0.00    -0.360 N 
ATOM      6  H4  UNL     1       2.172  12.309  27.514  1.00  0.00     0.166 HD
HETATM    7  C6  UNL     1       2.252  13.518  25.861  1.00  0.00     0.124 A 
HETATM    8  C7  UNL     1       1.955  13.677  24.497  1.00  0.00     0.117 A 
ENDROOT
BRANCH   8   9
HETATM    9  N5  UNL     1       2.323  14.917  23.872  1.00  0.00    -0.235 N 
HETATM   10  N6  UNL     1       3.057  15.052  22.782  1.00  0.00    -0.303 N 
HETATM   11  C8  UNL     1       3.212  16.363  22.495  1.00  0.00     0.111 A 
ATOM     12  H6  UNL     1       3.448  14.282  22.239  1.00  0.00     0.186 HD
HETATM   13  C9  UNL     1       2.545  17.098  23.446  1.00  0.00     0.069 A 
HETATM   14  C10 UNL     1       1.989  16.151  24.309  1.00  0.00     0.129 A 
HETATM   15  N7  UNL     1       1.276  16.408  25.349  1.00  0.00    -0.341 N 
ATOM     16  H7  UNL     1       0.912  15.646  25.920  1.00  0.00     0.167 HD
BRANCH  15  17
HETATM   17  C11 UNL     1       0.995  17.759  25.701  1.00  0.00     0.033 A 
HETATM   18  C12 UNL     1       0.197  18.028  26.800  1.00  0.00     0.029 A 
HETATM   19  C13 UNL     1      -0.097  19.343  27.171  1.00  0.00     0.002 A 
HETATM   20  C14 UNL     1       0.398  20.408  26.455  1.00  0.00     0.000 A 
HETATM   21  C15 UNL     1       1.192  20.125  25.362  1.00  0.00     0.002 A 
HETATM   22  C16 UNL     1       1.489  18.831  24.987  1.00  0.00     0.029 A 
ENDBRANCH  15  17
ENDBRANCH   8   9
BRANCH   1  23
HETATM   23  N2  UNL     1       1.028  12.673  22.662  1.00  0.00    -0.368 N 
ATOM     24  H2  UNL     1       0.332  13.417  22.618  1.00  0.00     0.161 HD
BRANCH  23  25
HETATM   25  C2  UNL     1       1.096  12.245  21.382  1.00  0.00     0.104 C 
HETATM   26  C1  UNL     1       2.447  12.655  20.761  1.00  0.00     0.034 C 
BRANCH  25  27
HETATM   27  C3  UNL     1       0.943  10.752  21.140  1.00  0.00     0.254 C 
BRANCH  27  28
HETATM   28  N1  UNL     1       2.000   9.976  21.686  1.00  0.00    -0.077 N 
ATOM     29  H13 UNL     1       2.812   9.989  21.069  1.00  0.00     0.274 HD
ATOM     30  H12 UNL     1       2.399  10.436  22.504  1.00  0.00     0.274 HD
ATOM     31  H11 UNL     1       1.730   9.018  21.907  1.00  0.00     0.274 HD
ENDBRANCH  27  28
ENDBRANCH  25  27
ENDBRANCH  23  25
ENDBRANCH   1  23
TORSDOF 6
ENDMDL
MODEL 2
REMARK VINA RESULT: -6.554543892      1.431      3.187
REMARK  6 active torsions:
REMARK  status: ('A' for Active; 'I' for Inactive)
REMARK    1  A    between atoms: C2_2  and  C3_3 
REMARK    2  A    between atoms: C2_2  and  N2_8 
REMARK    3  A    between atoms: C3_3  and  N1_4 
REMARK    4  A    between atoms: N2_8  and  C4_10 
REMARK    5  A    between atoms: C7_17  and  N5_18 
REMARK    6  A    between atoms: N7_24  and  C11_26 
ROOT
HETATM    1  C4  UNL     1       2.273  13.489  22.201  1.00  0.00     0.133 A 
HETATM    2  N3  UNL     1       2.686  13.613  20.896  1.00  0.00    -0.337 N 
ATOM      3  H3  UNL     1       2.332  12.940  20.216  1.00  0.00     0.168 HD
HETATM    4  C5  UNL     1       3.510  14.550  20.470  1.00  0.00     0.182 A 
HETATM    5  N4  UNL     1       4.011  15.466  21.324  1.00  0.00    -0.360 N 
ATOM      6  H4  UNL     1       4.650  16.191  20.997  1.00  0.00     0.166 HD
HETATM    7  C6  UNL     1       3.651  15.399  22.601  1.00  0.00     0.124 A 
HETATM    8  C7  UNL     1       2.773  14.411  23.076  1.00  0.00     0.117 A 
ENDROOT
BRANCH   8   9
HETATM    9  N5  UNL     1       2.444  14.422  24.474  1.00  0.00    -0.235 N 
HETATM   10  N6  UNL     1       2.610  13.424  25.322  1.00  0.00    -0.303 N 
HETATM   11  C8  UNL     1       2.175  13.788  26.548  1.00  0.00     0.111 A 
ATOM     12  H6  UNL     1       3.007  12.515  25.087  1.00  0.00     0.186 HD
HETATM   13  C9  UNL     1       1.710  15.079  26.479  1.00  0.00     0.069 A 
HETATM   14  C10 UNL     1       1.893  15.457  25.147  1.00  0.00     0.129 A 
HETATM   15  N7  UNL     1       1.590  16.601  24.642  1.00  0.00    -0.341 N 
ATOM     16  H7  UNL     1       1.763  16.785  23.654  1.00  0.00     0.167 HD
BRANCH  15  17
HETATM   17  C11 UNL     1       1.014  17.611  25.464  1.00  0.00     0.033 A 
HETATM   18  C12 UNL     1       0.607  18.806  24.896  1.00  0.00     0.029 A 
HETATM   19  C13 UNL     1       0.037  19.816  25.677  1.00  0.00     0.002 A 
HETATM   20  C14 UNL     1      -0.134  19.652  27.031  1.00  0.00     0.000 A 
HETATM   21  C15 UNL     1       0.277  18.456  27.583  1.00  0.00     0.002 A 
HETATM   22  C16 UNL     1       0.840  17.452  26.823  1.00  0.00     0.029 A 
ENDBRANCH  15  17
ENDBRANCH   8   9
BRANCH   1  23
HETATM   23  N2  UNL     1       1.515  12.594  22.483  1.00  0.00    -0.368 N 
ATOM     24  H2  UNL     1       0.702  13.090  22.848  1.00  0.00     0.161 HD
BRANCH  23  25
HETATM   25  C2  UNL     1       1.148  11.297  22.580  1.00  0.00     0.104 C 
HETATM   26  C1  UNL     1       2.244  10.392  21.984  1.00  0.00     0.034 C 
BRANCH  25  27
HETATM   27  C3  UNL     1       0.854  10.762  23.973  1.00  0.00     0.254 C 
BRANCH  27  28
HETATM   28  N1  UNL     1      -0.070  11.555  24.704  1.00  0.00    -0.077 N 
ATOM     29  H13 UNL     1       0.420  12.189  25.335  1.00  0.00     0.274 HD
ATOM     30  H12 UNL     1      -0.521  12.237  24.094  1.00  0.00     0.274 HD
ATOM     31  H11 UNL     1      -0.766  11.008  25.210  1.00  0.00     0.274 HD
ENDBRANCH  27  28
ENDBRANCH  25  27
ENDBRANCH  23  25
ENDBRANCH   1  23
TORSDOF 6
ENDMDL
MODEL 3
REMARK VINA RESULT: -6.031795413      1.318      3.171
REMARK  6 active torsions:
REMARK  status: ('A' for Active; 'I' for Inactive)
REMARK    1  A    between atoms: C2_2  and  C3_3 
REMARK    2  A    between atoms: C2_2  and  N2_8 
REMARK    3  A    between atoms: C3_3  and  N1_4 
REMARK    4  A    between atoms: N2_8  and  C4_10 
REMARK    5  A    between atoms: C7_17  and  N5_18 
REMARK    6  A    between atoms: N7_24  and  C11_26 
ROOT
HETATM    1  C4  UNL     1       2.039  12.122  23.012  1.00  0.00     0.133 A 
HETATM    2  N3  UNL     1       1.301  10.984  22.785  1.00  0.00    -0.337 N 
ATOM      3  H3  UNL     1       1.330  10.246  23.489  1.00  0.00     0.168 HD
HETATM    4  C5  UNL     1       0.558  10.789  21.714  1.00  0.00     0.182 A 
HETATM    5  N4  UNL     1       0.483  11.728  20.748  1.00  0.00    -0.360 N 
ATOM      6  H4  UNL     1      -0.090  11.580  19.917  1.00  0.00     0.166 HD
HETATM    7  C6  UNL     1       1.174  12.851  20.908  1.00  0.00     0.124 A 
HETATM    8  C7  UNL     1       1.971  13.081  22.043  1.00  0.00     0.117 A 
ENDROOT
BRANCH   8   9
HETATM    9  N5  UNL     1       2.680  14.327  22.122  1.00  0.00    -0.235 N 
HETATM   10  N6  UNL     1       3.684  14.703  21.352  1.00  0.00    -0.303 N 
HETATM   11  C8  UNL     1       4.114  15.927  21.725  1.00  0.00     0.111 A 
ATOM     12  H6  UNL     1       4.076  14.151  20.589  1.00  0.00     0.186 HD
HETATM   13  C9  UNL     1       3.348  16.353  22.784  1.00  0.00     0.069 A 
HETATM   14  C10 UNL     1       2.444  15.314  23.015  1.00  0.00     0.129 A 
HETATM   15  N7  UNL     1       1.535  15.297  23.925  1.00  0.00    -0.341 N 
ATOM     16  H7  UNL     1       0.918  14.490  24.017  1.00  0.00     0.167 HD
BRANCH  15  17
HETATM   17  C11 UNL     1       1.390  16.408  24.805  1.00  0.00     0.033 A 
HETATM   18  C12 UNL     1       1.610  16.239  26.161  1.00  0.00     0.029 A 
HETATM   19  C13 UNL     1       1.475  17.309  27.051  1.00  0.00     0.002 A 
HETATM   20  C14 UNL     1       1.120  18.560  26.603  1.00  0.00     0.000 A 
HETATM   21  C15 UNL     1       0.903  18.713  25.249  1.00  0.00     0.002 A 
HETATM   22  C16 UNL     1       1.033  17.664  24.363  1.00  0.00     0.029 A 
ENDBRANCH  15  17
ENDBRANCH   8   9
BRANCH   1  23
HETATM   23  N2  UNL     1       2.683  12.196  24.029  1.00  0.00    -0.368 N 
ATOM     24  H2  UNL     1       3.624  11.947  23.722  1.00  0.00     0.161 HD
BRANCH  23  25
HETATM   25  C2  UNL     1       2.847  12.428  25.350  1.00  0.00     0.104 C 
HETATM   26  C1  UNL     1       3.768  13.646  25.561  1.00  0.00     0.034 C 
BRANCH  25  27
HETATM   27  C3  UNL     1       1.593  12.686  26.171  1.00  0.00     0.254 C 
BRANCH  27  28
HETATM   28  N1  UNL     1       0.459  11.961  25.718  1.00  0.00    -0.077 N 
ATOM     29  H13 UNL     1       0.717  11.318  24.969  1.00  0.00     0.274 HD
ATOM     30  H12 UNL     1       0.156  11.289  26.423  1.00  0.00     0.274 HD
ATOM     31  H11 UNL     1      -0.317  12.557  25.431  1.00  0.00     0.274 HD
ENDBRANCH  27  28
ENDBRANCH  25  27
ENDBRANCH  23  25
ENDBRANCH   1  23
TORSDOF 6
ENDMDL
MODEL 4
REMARK VINA RESULT: -5.892814816      2.215      6.043
REMARK  6 active torsions:
REMARK  status: ('A' for Active; 'I' for Inactive)
REMARK    1  A    between atoms: C2_2  and  C3_3 
REMARK    2  A    between atoms: C2_2  and  N2_8 
REMARK    3  A    between atoms: C3_3  and  N1_4 
REMARK    4  A    between atoms: N2_8  and  C4_10 
REMARK    5  A    between atoms: C7_17  and  N5_18 
REMARK    6  A    between atoms: N7_24  and  C11_26 
ROOT
HETATM    1  C4  UNL     1       1.011  17.857  24.302  1.00  0.00     0.133 A 
HETATM    2  N3  UNL     1       0.468  18.682  25.258  1.00  0.00    -0.337 N 
ATOM      3  H3  UNL     1      -0.320  19.272  24.989  1.00  0.00     0.168 HD
HETATM    4  C5  UNL     1       0.903  18.756  26.500  1.00  0.00     0.182 A 
HETATM    5  N4  UNL     1       1.942  18.001  26.912  1.00  0.00    -0.360 N 
ATOM      6  H4  UNL     1       2.282  18.057  27.872  1.00  0.00     0.166 HD
HETATM    7  C6  UNL     1       2.512  17.182  26.034  1.00  0.00     0.124 A 
HETATM    8  C7  UNL     1       2.064  17.086  24.705  1.00  0.00     0.117 A 
ENDROOT
BRANCH   8   9
HETATM    9  N5  UNL     1       2.746  16.172  23.833  1.00  0.00    -0.235 N 
HETATM   10  N6  UNL     1       3.779  16.455  23.061  1.00  0.00    -0.303 N 
HETATM   11  C8  UNL     1       4.147  15.356  22.367  1.00  0.00     0.111 A 
ATOM     12  H6  UNL     1       4.231  17.367  22.998  1.00  0.00     0.186 HD
HETATM   13  C9  UNL     1       3.309  14.323  22.713  1.00  0.00     0.069 A 
HETATM   14  C10 UNL     1       2.427  14.872  23.648  1.00  0.00     0.129 A 
HETATM   15  N7  UNL     1       1.470  14.244  24.236  1.00  0.00    -0.341 N 
ATOM     16  H7  UNL     1       0.876  14.732  24.907  1.00  0.00     0.167 HD
BRANCH  15  17
HETATM   17  C11 UNL     1       1.241  12.868  23.951  1.00  0.00     0.033 A 
HETATM   18  C12 UNL     1       1.126  12.453  22.635  1.00  0.00     0.029 A 
HETATM   19  C13 UNL     1       0.900  11.109  22.322  1.00  0.00     0.002 A 
HETATM   20  C14 UNL     1       0.787  10.162  23.313  1.00  0.00     0.000 A 
HETATM   21  C15 UNL     1       0.903  10.591  24.619  1.00  0.00     0.002 A 
HETATM   22  C16 UNL     1       1.126  11.914  24.939  1.00  0.00     0.029 A 
ENDBRANCH  15  17
ENDBRANCH   8   9
BRANCH   1  23
HETATM   23  N2  UNL     1       0.534  17.867  23.194  1.00  0.00    -0.368 N 
ATOM     24  H2  UNL     1      -0.449  18.075  23.371  1.00  0.00     0.161 HD
BRANCH  23  25
HETATM   25  C2  UNL     1       0.582  17.756  21.848  1.00  0.00     0.104 C 
HETATM   26  C1  UNL     1       0.666  16.271  21.445  1.00  0.00     0.034 C 
BRANCH  25  27
HETATM   27  C3  UNL     1      -0.572  18.355  21.059  1.00  0.00     0.254 C 
BRANCH  27  28
HETATM   28  N1  UNL     1      -1.281  17.404  20.279  1.00  0.00    -0.077 N 
ATOM     29  H13 UNL     1      -0.902  17.361  19.332  1.00  0.00     0.274 HD
ATOM     30  H12 UNL     1      -1.072  16.455  20.589  1.00  0.00     0.274 HD
ATOM     31  H11 UNL     1      -2.288  17.563  20.257  1.00  0.00     0.274 HD
ENDBRANCH  27  28
ENDBRANCH  25  27
ENDBRANCH  23  25
ENDBRANCH   1  23
TORSDOF 6
ENDMDL
MODEL 5
REMARK VINA RESULT: -5.848859622      0.893      1.361
REMARK  6 active torsions:
REMARK  status: ('A' for Active; 'I' for Inactive)
REMARK    1  A    between atoms: C2_2  and  C3_3 
REMARK    2  A    between atoms: C2_2  and  N2_8 
REMARK    3  A    between atoms: C3_3  and  N1_4 
REMARK    4  A    between atoms: N2_8  and  C4_10 
REMARK    5  A    between atoms: C7_17  and  N5_18 
REMARK    6  A    between atoms: N7_24  and  C11_26 
ROOT
HETATM    1  C4  UNL     1       2.311  12.083  23.793  1.00  0.00     0.133 A 
HETATM    2  N3  UNL     1       1.914  10.957  24.473  1.00  0.00    -0.337 N 
ATOM      3  H3  UNL     1       1.857  10.080  23.955  1.00  0.00     0.168 HD
HETATM    4  C5  UNL     1       1.604  10.941  25.755  1.00  0.00     0.182 A 
HETATM    5  N4  UNL     1       1.660  12.070  26.490  1.00  0.00    -0.360 N 
ATOM      6  H4  UNL     1       1.419  12.062  27.482  1.00  0.00     0.166 HD
HETATM    7  C6  UNL     1       2.036  13.194  25.890  1.00  0.00     0.124 A 
HETATM    8  C7  UNL     1       2.373  13.234  24.526  1.00  0.00     0.117 A 
ENDROOT
BRANCH   8   9
HETATM    9  N5  UNL     1       2.767  14.498  23.969  1.00  0.00    -0.235 N 
HETATM   10  N6  UNL     1       3.624  14.681  22.982  1.00  0.00    -0.303 N 
HETATM   11  C8  UNL     1       3.763  16.001  22.735  1.00  0.00     0.111 A 
ATOM     12  H6  UNL     1       4.108  13.936  22.480  1.00  0.00     0.186 HD
HETATM   13  C9  UNL     1       2.957  16.693  23.607  1.00  0.00     0.069 A 
HETATM   14  C10 UNL     1       2.335  15.710  24.381  1.00  0.00     0.129 A 
HETATM   15  N7  UNL     1       1.491  15.922  25.328  1.00  0.00    -0.341 N 
ATOM     16  H7  UNL     1       1.088  15.136  25.838  1.00  0.00     0.167 HD
BRANCH  15  17
HETATM   17  C11 UNL     1       1.117  17.255  25.663  1.00  0.00     0.033 A 
HETATM   18  C12 UNL     1       0.686  17.542  26.947  1.00  0.00     0.029 A 
HETATM   19  C13 UNL     1       0.313  18.841  27.306  1.00  0.00     0.002 A 
HETATM   20  C14 UNL     1       0.363  19.869  26.395  1.00  0.00     0.000 A 
HETATM   21  C15 UNL     1       0.794  19.567  25.119  1.00  0.00     0.002 A 
HETATM   22  C16 UNL     1       1.165  18.290  24.753  1.00  0.00     0.029 A 
ENDBRANCH  15  17
ENDBRANCH   8   9
BRANCH   1  23
HETATM   23  N2  UNL     1       2.573  11.985  22.619  1.00  0.00    -0.368 N 
ATOM     24  H2  UNL     1       3.593  11.963  22.614  1.00  0.00     0.161 HD
BRANCH  23  25
HETATM   25  C2  UNL     1       2.261  11.887  21.309  1.00  0.00     0.104 C 
HETATM   26  C1  UNL     1       0.964  11.072  21.135  1.00  0.00     0.034 C 
BRANCH  25  27
HETATM   27  C3  UNL     1       2.063  13.186  20.543  1.00  0.00     0.254 C 
BRANCH  27  28
HETATM   28  N1  UNL     1       1.064  14.027  21.100  1.00  0.00    -0.077 N 
ATOM     29  H13 UNL     1       0.273  13.476  21.433  1.00  0.00     0.274 HD
ATOM     30  H12 UNL     1       1.379  14.424  21.985  1.00  0.00     0.274 HD
ATOM     31  H11 UNL     1       0.750  14.762  20.466  1.00  0.00     0.274 HD
ENDBRANCH  27  28
ENDBRANCH  25  27
ENDBRANCH  23  25
ENDBRANCH   1  23
TORSDOF 6
ENDMDL
