MODEL 1
REMARK VINA RESULT: -8.250618044      0.000      0.000
REMARK  5 active torsions:
REMARK  status: ('A' for Active; 'I' for Inactive)
REMARK    1  A    between atoms: C3_3  and  C4_4 
REMARK    2  A    between atoms: C5_5  and  C6_6 
REMARK    3  A    between atoms: C9_15  and  N3_16 
REMARK    4  A    between atoms: N3_16  and  N4_18 
REMARK    5  A    between atoms: N4_18  and  C10_20 
ROOT
HETATM    1  C6  UNL     1       1.508  17.126  23.947  1.00  0.00     0.070 A 
HETATM    2  N1  UNL     1       1.421  18.040  24.928  1.00  0.00    -0.306 N 
ATOM      3  H1  UNL     1       1.183  19.005  24.699  1.00  0.00     0.171 HD
HETATM    4  C7  UNL     1       1.644  17.697  26.206  1.00  0.00     0.327 A 
HETATM    5  O1  UNL     1       1.557  18.575  27.116  1.00  0.00    -0.247 OA
HETATM    6  N2  UNL     1       1.958  16.431  26.522  1.00  0.00    -0.273 N 
ATOM      7  H2  UNL     1       2.125  16.179  27.496  1.00  0.00     0.173 HD
HETATM    8  C8  UNL     1       2.054  15.484  25.554  1.00  0.00     0.279 A 
HETATM    9  O2  UNL     1       2.353  14.334  25.957  1.00  0.00    -0.265 OA
HETATM   10  C9  UNL     1       1.835  15.797  24.240  1.00  0.00     0.143 A 
ENDROOT
BRANCH  10  11
HETATM   11  N3  UNL     1       1.929  14.836  23.248  1.00  0.00    -0.293 N 
ATOM     12  H3  UNL     1       1.559  15.130  22.344  1.00  0.00     0.187 HD
BRANCH  11  13
HETATM   13  N4  UNL     1       2.381  13.687  23.260  1.00  0.00    -0.293 N 
ATOM     14  H4  UNL     1       3.298  13.584  23.695  1.00  0.00     0.187 HD
BRANCH  13  15
HETATM   15  C10 UNL     1       1.813  12.497  22.761  1.00  0.00     0.141 A 
HETATM   16  C11 UNL     1       0.969  11.681  23.480  1.00  0.00     0.055 A 
HETATM   17  C12 UNL     1       0.484  11.854  24.884  1.00  0.00     0.072 C 
HETATM   18  N5  UNL     1       0.641  10.665  22.681  1.00  0.00    -0.300 N 
HETATM   19  N6  UNL     1       1.234  10.807  21.509  1.00  0.00    -0.264 N 
ATOM     20  H5  UNL     1       0.024   9.894  22.936  1.00  0.00     0.186 HD
HETATM   21  C13 UNL     1       1.967  11.926  21.520  1.00  0.00     0.289 A 
ATOM     22  H6  UNL     1       1.146  10.165  20.721  1.00  0.00     0.190 HD
HETATM   23  O3  UNL     1       2.682  12.397  20.568  1.00  0.00    -0.264 OA
ENDBRANCH  13  15
ENDBRANCH  11  13
ENDBRANCH  10  11
BRANCH   1  24
HETATM   24  C5  UNL     1       1.265  17.496  22.565  1.00  0.00     0.032 C 
HETATM   25  C4  UNL     1       0.102  17.892  22.106  1.00  0.00     0.002 C 
BRANCH  25  26
HETATM   26  C3  UNL     1      -0.054  18.245  20.698  1.00  0.00    -0.004 C 
HETATM   27  C2  UNL     1      -1.247  18.561  20.230  1.00  0.00    -0.031 C 
HETATM   28  C1  UNL     1      -2.403  18.552  21.143  1.00  0.00     0.036 C 
ENDBRANCH  25  26
ENDBRANCH   1  24
TORSDOF 5
ENDMDL
MODEL 2
REMARK VINA RESULT: -7.785781846      1.271      1.756
REMARK  5 active torsions:
REMARK  status: ('A' for Active; 'I' for Inactive)
REMARK    1  A    between atoms: C3_3  and  C4_4 
REMARK    2  A    between atoms: C5_5  and  C6_6 
REMARK    3  A    between atoms: C9_15  and  N3_16 
REMARK    4  A    between atoms: N3_16  and  N4_18 
REMARK    5  A    between atoms: N4_18  and  C10_20 
ROOT
HETATM    1  C6  UNL     1       1.426  17.201  24.101  1.00  0.00     0.070 A 
HETATM    2  N1  UNL     1       1.339  18.214  24.979  1.00  0.00    -0.306 N 
ATOM      3  H1  UNL     1       1.121  19.153  24.645  1.00  0.00     0.171 HD
HETATM    4  C7  UNL     1       1.535  18.005  26.289  1.00  0.00     0.327 A 
HETATM    5  O1  UNL     1       1.448  18.975  27.100  1.00  0.00    -0.247 OA
HETATM    6  N2  UNL     1       1.821  16.775  26.742  1.00  0.00    -0.273 N 
ATOM      7  H2  UNL     1       1.967  16.624  27.740  1.00  0.00     0.173 HD
HETATM    8  C8  UNL     1       1.916  15.729  25.881  1.00  0.00     0.279 A 
HETATM    9  O2  UNL     1       2.188  14.624  26.409  1.00  0.00    -0.265 OA
HETATM   10  C9  UNL     1       1.724  15.906  24.538  1.00  0.00     0.143 A 
ENDROOT
BRANCH  10  11
HETATM   11  N3  UNL     1       1.818  14.843  23.654  1.00  0.00    -0.293 N 
ATOM     12  H3  UNL     1       1.425  15.031  22.732  1.00  0.00     0.187 HD
BRANCH  11  13
HETATM   13  N4  UNL     1       2.292  13.711  23.782  1.00  0.00    -0.293 N 
ATOM     14  H4  UNL     1       3.264  13.677  24.088  1.00  0.00     0.187 HD
BRANCH  13  15
HETATM   15  C10 UNL     1       1.684  12.457  23.566  1.00  0.00     0.141 A 
HETATM   16  C11 UNL     1       1.736  11.766  22.377  1.00  0.00     0.055 A 
HETATM   17  C12 UNL     1       2.411  12.161  21.102  1.00  0.00     0.072 C 
HETATM   18  N5  UNL     1       1.055  10.634  22.558  1.00  0.00    -0.300 N 
HETATM   19  N6  UNL     1       0.585  10.586  23.792  1.00  0.00    -0.264 N 
ATOM     20  H5  UNL     1       0.917   9.913  21.850  1.00  0.00     0.186 HD
HETATM   21  C13 UNL     1       0.952  11.695  24.445  1.00  0.00     0.289 A 
ATOM     22  H6  UNL     1       0.030   9.825  24.184  1.00  0.00     0.190 HD
HETATM   23  O3  UNL     1       0.686  12.007  25.658  1.00  0.00    -0.264 OA
ENDBRANCH  13  15
ENDBRANCH  11  13
ENDBRANCH  10  11
BRANCH   1  24
HETATM   24  C5  UNL     1       1.212  17.426  22.683  1.00  0.00     0.032 C 
HETATM   25  C4  UNL     1       0.104  17.914  22.178  1.00  0.00     0.002 C 
BRANCH  25  26
HETATM   26  C3  UNL     1      -0.026  18.108  20.736  1.00  0.00    -0.004 C 
HETATM   27  C2  UNL     1      -1.188  18.470  20.226  1.00  0.00    -0.031 C 
HETATM   28  C1  UNL     1      -2.337  18.671  21.126  1.00  0.00     0.036 C 
ENDBRANCH  25  26
ENDBRANCH   1  24
TORSDOF 5
ENDMDL
MODEL 3
REMARK VINA RESULT: -7.279188748      1.731      2.147
REMARK  5 active torsions:
REMARK  status: ('A' for Active; 'I' for Inactive)
REMARK    1  A    between atoms: C3_3  and  C4_4 
REMARK    2  A    between atoms: C5_5  and  C6_6 
REMARK    3  A    between atoms: C9_15  and  N3_16 
REMARK    4  A    between atoms: N3_16  and  N4_18 
REMARK    5  A    between atoms: N4_18  and  C10_20 
ROOT
HETATM    1  C6  UNL     1       1.106  17.732  24.283  1.00  0.00     0.070 A 
HETATM    2  N1  UNL     1       0.625  18.754  25.011  1.00  0.00    -0.306 N 
ATOM      3  H1  UNL     1       0.167  19.535  24.542  1.00  0.00     0.171 HD
HETATM    4  C7  UNL     1       0.740  18.757  26.347  1.00  0.00     0.327 A 
HETATM    5  O1  UNL     1       0.278  19.731  27.015  1.00  0.00    -0.247 OA
HETATM    6  N2  UNL     1       1.339  17.736  26.978  1.00  0.00    -0.273 N 
ATOM      7  H2  UNL     1       1.422  17.746  27.994  1.00  0.00     0.173 HD
HETATM    8  C8  UNL     1       1.837  16.688  26.271  1.00  0.00     0.279 A 
HETATM    9  O2  UNL     1       2.378  15.788  26.957  1.00  0.00    -0.265 OA
HETATM   10  C9  UNL     1       1.739  16.651  24.907  1.00  0.00     0.143 A 
ENDROOT
BRANCH  10  11
HETATM   11  N3  UNL     1       2.243  15.585  24.180  1.00  0.00    -0.293 N 
ATOM     12  H3  UNL     1       3.242  15.649  23.983  1.00  0.00     0.187 HD
BRANCH  11  13
HETATM   13  N4  UNL     1       1.701  14.572  23.729  1.00  0.00    -0.293 N 
ATOM     14  H4  UNL     1       0.841  14.735  23.204  1.00  0.00     0.187 HD
BRANCH  13  15
HETATM   15  C10 UNL     1       2.098  13.223  23.832  1.00  0.00     0.141 A 
HETATM   16  C11 UNL     1       2.384  12.416  22.755  1.00  0.00     0.055 A 
HETATM   17  C12 UNL     1       2.340  12.759  21.300  1.00  0.00     0.072 C 
HETATM   18  N5  UNL     1       2.721  11.222  23.245  1.00  0.00    -0.300 N 
HETATM   19  N6  UNL     1       2.660  11.247  24.564  1.00  0.00    -0.264 N 
ATOM     20  H5  UNL     1       2.986  10.412  22.685  1.00  0.00     0.186 HD
HETATM   21  C13 UNL     1       2.279  12.465  24.965  1.00  0.00     0.289 A 
ATOM     22  H6  UNL     1       2.871  10.461  25.180  1.00  0.00     0.190 HD
HETATM   23  O3  UNL     1       2.109  12.872  26.167  1.00  0.00    -0.264 OA
ENDBRANCH  13  15
ENDBRANCH  11  13
ENDBRANCH  10  11
BRANCH   1  24
HETATM   24  C5  UNL     1       0.981  17.727  22.837  1.00  0.00     0.032 C 
HETATM   25  C4  UNL     1      -0.107  18.078  22.195  1.00  0.00     0.002 C 
BRANCH  25  26
HETATM   26  C3  UNL     1      -0.147  18.042  20.736  1.00  0.00    -0.004 C 
HETATM   27  C2  UNL     1      -1.250  18.390  20.101  1.00  0.00    -0.031 C 
HETATM   28  C1  UNL     1      -2.427  18.809  20.882  1.00  0.00     0.036 C 
ENDBRANCH  25  26
ENDBRANCH   1  24
TORSDOF 5
ENDMDL
MODEL 4
REMARK VINA RESULT: -6.750505236      2.393      5.753
REMARK  5 active torsions:
REMARK  status: ('A' for Active; 'I' for Inactive)
REMARK    1  A    between atoms: C3_3  and  C4_4 
REMARK    2  A    between atoms: C5_5  and  C6_6 
REMARK    3  A    between atoms: C9_15  and  N3_16 
REMARK    4  A    between atoms: N3_16  and  N4_18 
REMARK    5  A    between atoms: N4_18  and  C10_20 
ROOT
HETATM    1  C6  UNL     1       1.469  16.820  22.397  1.00  0.00     0.070 A 
HETATM    2  N1  UNL     1       1.495  15.583  21.876  1.00  0.00    -0.306 N 
ATOM      3  H1  UNL     1       0.983  15.387  21.015  1.00  0.00     0.171 HD
HETATM    4  C7  UNL     1       2.185  14.601  22.474  1.00  0.00     0.327 A 
HETATM    5  O1  UNL     1       2.196  13.440  21.965  1.00  0.00    -0.247 OA
HETATM    6  N2  UNL     1       2.864  14.843  23.607  1.00  0.00    -0.273 N 
ATOM      7  H2  UNL     1       3.387  14.091  24.055  1.00  0.00     0.173 HD
HETATM    8  C8  UNL     1       2.858  16.083  24.159  1.00  0.00     0.279 A 
HETATM    9  O2  UNL     1       3.523  16.202  25.217  1.00  0.00    -0.265 OA
HETATM   10  C9  UNL     1       2.163  17.109  23.578  1.00  0.00     0.143 A 
ENDROOT
BRANCH  10  11
HETATM   11  N3  UNL     1       2.155  18.377  24.135  1.00  0.00    -0.293 N 
ATOM     12  H3  UNL     1       2.135  19.134  23.452  1.00  0.00     0.187 HD
BRANCH  11  13
HETATM   13  N4  UNL     1       2.168  18.755  25.310  1.00  0.00    -0.293 N 
ATOM     14  H4  UNL     1       3.094  18.848  25.728  1.00  0.00     0.187 HD
BRANCH  13  15
HETATM   15  C10 UNL     1       1.089  19.079  26.158  1.00  0.00     0.141 A 
HETATM   16  C11 UNL     1       0.507  18.198  27.040  1.00  0.00     0.055 A 
HETATM   17  C12 UNL     1       0.860  16.767  27.292  1.00  0.00     0.072 C 
HETATM   18  N5  UNL     1      -0.469  18.862  27.662  1.00  0.00    -0.300 N 
HETATM   19  N6  UNL     1      -0.522  20.103  27.214  1.00  0.00    -0.264 N 
ATOM     20  H5  UNL     1      -1.082  18.470  28.376  1.00  0.00     0.186 HD
HETATM   21  C13 UNL     1       0.424  20.276  26.283  1.00  0.00     0.289 A 
ATOM     22  H6  UNL     1      -1.180  20.817  27.527  1.00  0.00     0.190 HD
HETATM   23  O3  UNL     1       0.682  21.342  25.623  1.00  0.00    -0.264 OA
ENDBRANCH  13  15
ENDBRANCH  11  13
ENDBRANCH  10  11
BRANCH   1  24
HETATM   24  C5  UNL     1       0.724  17.884  21.750  1.00  0.00     0.032 C 
HETATM   25  C4  UNL     1      -0.350  17.688  21.024  1.00  0.00     0.002 C 
BRANCH  25  26
HETATM   26  C3  UNL     1      -1.040  18.818  20.407  1.00  0.00    -0.004 C 
HETATM   27  C2  UNL     1      -2.336  18.743  20.168  1.00  0.00    -0.031 C 
HETATM   28  C1  UNL     1      -3.065  17.515  20.529  1.00  0.00     0.036 C 
ENDBRANCH  25  26
ENDBRANCH   1  24
TORSDOF 5
ENDMDL
MODEL 5
REMARK VINA RESULT: -6.344342199      2.900      5.321
REMARK  5 active torsions:
REMARK  status: ('A' for Active; 'I' for Inactive)
REMARK    1  A    between atoms: C3_3  and  C4_4 
REMARK    2  A    between atoms: C5_5  and  C6_6 
REMARK    3  A    between atoms: C9_15  and  N3_16 
REMARK    4  A    between atoms: N3_16  and  N4_18 
REMARK    5  A    between atoms: N4_18  and  C10_20 
ROOT
HETATM    1  C6  UNL     1       1.884  13.209  25.422  1.00  0.00     0.070 A 
HETATM    2  N1  UNL     1       0.995  12.256  25.747  1.00  0.00    -0.306 N 
ATOM      3  H1  UNL     1       0.525  12.292  26.652  1.00  0.00     0.171 HD
HETATM    4  C7  UNL     1       0.718  11.257  24.896  1.00  0.00     0.327 A 
HETATM    5  O1  UNL     1      -0.124  10.367  25.223  1.00  0.00    -0.247 OA
HETATM    6  N2  UNL     1       1.328  11.197  23.702  1.00  0.00    -0.273 N 
ATOM      7  H2  UNL     1       1.111  10.435  23.060  1.00  0.00     0.173 HD
HETATM    8  C8  UNL     1       2.231  12.144  23.342  1.00  0.00     0.279 A 
HETATM    9  O2  UNL     1       2.742  11.994  22.207  1.00  0.00    -0.265 OA
HETATM   10  C9  UNL     1       2.540  13.177  24.186  1.00  0.00     0.143 A 
ENDROOT
BRANCH  10  11
HETATM   11  N3  UNL     1       3.459  14.148  23.825  1.00  0.00    -0.293 N 
ATOM     12  H3  UNL     1       4.325  14.125  24.364  1.00  0.00     0.187 HD
BRANCH  11  13
HETATM   13  N4  UNL     1       3.419  15.036  22.968  1.00  0.00    -0.293 N 
ATOM     14  H4  UNL     1       4.319  15.289  22.561  1.00  0.00     0.187 HD
BRANCH  13  15
HETATM   15  C10 UNL     1       2.310  15.752  22.472  1.00  0.00     0.141 A 
HETATM   16  C11 UNL     1       2.002  17.045  22.826  1.00  0.00     0.055 A 
HETATM   17  C12 UNL     1       2.729  17.946  23.772  1.00  0.00     0.072 C 
HETATM   18  N5  UNL     1       0.897  17.376  22.156  1.00  0.00    -0.300 N 
HETATM   19  N6  UNL     1       0.506  16.361  21.407  1.00  0.00    -0.264 N 
ATOM     20  H5  UNL     1       0.426  18.279  22.213  1.00  0.00     0.186 HD
HETATM   21  C13 UNL     1       1.353  15.338  21.576  1.00  0.00     0.289 A 
ATOM     22  H6  UNL     1      -0.311  16.357  20.798  1.00  0.00     0.190 HD
HETATM   23  O3  UNL     1       1.304  14.187  21.018  1.00  0.00    -0.264 OA
ENDBRANCH  13  15
ENDBRANCH  11  13
ENDBRANCH  10  11
BRANCH   1  24
HETATM   24  C5  UNL     1       2.183  14.291  26.341  1.00  0.00     0.032 C 
HETATM   25  C4  UNL     1       1.661  15.491  26.255  1.00  0.00     0.002 C 
BRANCH  25  26
HETATM   26  C3  UNL     1       2.018  16.523  27.225  1.00  0.00    -0.004 C 
HETATM   27  C2  UNL     1       1.462  17.717  27.146  1.00  0.00    -0.031 C 
HETATM   28  C1  UNL     1       0.487  17.987  26.075  1.00  0.00     0.036 C 
ENDBRANCH  25  26
ENDBRANCH   1  24
TORSDOF 5
ENDMDL
