MODEL 1
REMARK VINA RESULT: -6.251518502      0.000      0.000
REMARK  5 active torsions:
REMARK  status: ('A' for Active; 'I' for Inactive)
REMARK    1  A    between atoms: C2_2  and  C3_3 
REMARK    2  A    between atoms: C4_4  and  C5_5 
REMARK    3  A    between atoms: C5_5  and  N1_6 
REMARK    4  A    between atoms: N1_6  and  C6_8 
REMARK    5  A    between atoms: N5_19  and  C10_20 
ROOT
HETATM    1  C6  UNL     1       1.238  17.595  23.089  1.00  0.00     0.681 A 
HETATM    2  N2  UNL     1       1.322  18.445  24.129  1.00  0.00    -0.175 N 
ATOM      3  H2  UNL     1       1.194  19.448  24.000  1.00  0.00     0.186 HD
HETATM    4  C7  UNL     1       1.581  17.930  25.348  1.00  0.00     0.145 A 
HETATM    5  N3  UNL     1       1.657  18.776  26.342  1.00  0.00    -0.383 N 
ATOM      6  H31 UNL     1       1.853  18.386  27.264  1.00  0.00     0.157 HD
ATOM      7  H32 UNL     1       1.525  19.776  26.189  1.00  0.00     0.157 HD
HETATM    8  C8  UNL     1       1.758  16.582  25.555  1.00  0.00     0.123 A 
HETATM    9  N4  UNL     1       2.015  15.849  26.627  1.00  0.00    -0.346 N 
ATOM     10  H4  UNL     1       2.135  16.198  27.577  1.00  0.00     0.167 HD
HETATM   11  C9  UNL     1       2.088  14.547  26.238  1.00  0.00     0.191 A 
HETATM   12  N5  UNL     1       1.876  14.450  24.913  1.00  0.00    -0.291 N 
HETATM   13  C17 UNL     1       1.669  15.723  24.483  1.00  0.00     0.159 A 
HETATM   14  N6  UNL     1       1.412  16.251  23.281  1.00  0.00    -0.174 N 
ATOM     15  H6  UNL     1       1.343  15.628  22.476  1.00  0.00     0.186 HD
ENDROOT
BRANCH   1  16
HETATM   16  N1  UNL     1       0.993  18.036  21.903  1.00  0.00    -0.223 N 
ATOM     17  H1  UNL     1       1.597  18.736  21.474  1.00  0.00     0.178 HD
BRANCH  16  18
HETATM   18  C5  UNL     1      -0.154  17.521  21.196  1.00  0.00     0.165 C 
BRANCH  18  19
HETATM   19  C4  UNL     1      -0.965  18.561  20.565  1.00  0.00    -0.007 C 
HETATM   20  C3  UNL     1      -2.275  18.628  20.736  1.00  0.00    -0.003 C 
BRANCH  20  21
HETATM   21  C2  UNL     1      -3.075  19.662  20.109  1.00  0.00    -0.011 C 
HETATM   22  C1  UNL     1      -3.147  20.850  20.672  1.00  0.00     0.011 C 
ENDBRANCH  20  21
ENDBRANCH  18  19
ENDBRANCH  16  18
ENDBRANCH   1  16
BRANCH  12  23
HETATM   23  C10 UNL     1       1.861  13.289  24.089  1.00  0.00     0.042 A 
HETATM   24  C11 UNL     1       1.206  12.138  24.480  1.00  0.00     0.030 A 
HETATM   25  C12 UNL     1       1.169  10.995  23.713  1.00  0.00     0.009 A 
HETATM   26  C13 UNL     1       1.810  10.986  22.495  1.00  0.00    -0.062 A 
HETATM   27  C14 UNL     1       1.765   9.737  21.663  1.00  0.00     0.048 C 
HETATM   28  C15 UNL     1       2.478  12.116  22.063  1.00  0.00     0.009 A 
HETATM   29  C16 UNL     1       2.501  13.255  22.856  1.00  0.00     0.030 A 
ENDBRANCH  12  23
TORSDOF 5
ENDMDL
MODEL 2
REMARK VINA RESULT: -6.125818392      0.625      1.200
REMARK  5 active torsions:
REMARK  status: ('A' for Active; 'I' for Inactive)
REMARK    1  A    between atoms: C2_2  and  C3_3 
REMARK    2  A    between atoms: C4_4  and  C5_5 
REMARK    3  A    between atoms: C5_5  and  N1_6 
REMARK    4  A    between atoms: N1_6  and  C6_8 
REMARK    5  A    between atoms: N5_19  and  C10_20 
ROOT
HETATM    1  C6  UNL     1       1.587  17.409  23.636  1.00  0.00     0.681 A 
HETATM    2  N2  UNL     1       1.707  18.151  24.753  1.00  0.00    -0.175 N 
ATOM      3  H2  UNL     1       1.675  19.169  24.713  1.00  0.00     0.186 HD
HETATM    4  C7  UNL     1       1.871  17.506  25.926  1.00  0.00     0.145 A 
HETATM    5  N3  UNL     1       1.985  18.250  26.996  1.00  0.00    -0.383 N 
ATOM      6  H31 UNL     1       2.109  17.762  27.883  1.00  0.00     0.157 HD
ATOM      7  H32 UNL     1       1.951  19.267  26.932  1.00  0.00     0.157 HD
HETATM    8  C8  UNL     1       1.917  16.135  26.013  1.00  0.00     0.123 A 
HETATM    9  N4  UNL     1       2.065  15.288  27.019  1.00  0.00    -0.346 N 
ATOM     10  H4  UNL     1       2.180  15.538  28.000  1.00  0.00     0.167 HD
HETATM   11  C9  UNL     1       2.035  14.025  26.514  1.00  0.00     0.191 A 
HETATM   12  N5  UNL     1       1.867  14.067  25.179  1.00  0.00    -0.291 N 
HETATM   13  C17 UNL     1       1.792  15.388  24.863  1.00  0.00     0.159 A 
HETATM   14  N6  UNL     1       1.630  16.043  23.708  1.00  0.00    -0.174 N 
ATOM     15  H6  UNL     1       1.536  15.504  22.848  1.00  0.00     0.186 HD
ENDROOT
BRANCH   1  16
HETATM   16  N1  UNL     1       1.428  17.975  22.490  1.00  0.00    -0.223 N 
ATOM     17  H1  UNL     1       1.920  18.840  22.265  1.00  0.00     0.178 HD
BRANCH  16  18
HETATM   18  C5  UNL     1       0.541  17.364  21.531  1.00  0.00     0.165 C 
BRANCH  18  19
HETATM   19  C4  UNL     1      -0.601  18.205  21.174  1.00  0.00    -0.007 C 
HETATM   20  C3  UNL     1      -1.663  17.718  20.555  1.00  0.00    -0.003 C 
BRANCH  20  21
HETATM   21  C2  UNL     1      -2.793  18.557  20.203  1.00  0.00    -0.011 C 
HETATM   22  C1  UNL     1      -2.717  19.856  20.404  1.00  0.00     0.011 C 
ENDBRANCH  20  21
ENDBRANCH  18  19
ENDBRANCH  16  18
ENDBRANCH   1  16
BRANCH  12  23
HETATM   23  C10 UNL     1       1.778  12.992  24.251  1.00  0.00     0.042 A 
HETATM   24  C11 UNL     1       2.465  13.017  23.053  1.00  0.00     0.030 A 
HETATM   25  C12 UNL     1       2.405  11.997  22.129  1.00  0.00     0.009 A 
HETATM   26  C13 UNL     1       1.626  10.895  22.400  1.00  0.00    -0.062 A 
HETATM   27  C14 UNL     1       1.564   9.787  21.388  1.00  0.00     0.048 C 
HETATM   28  C15 UNL     1       0.920  10.828  23.586  1.00  0.00     0.009 A 
HETATM   29  C16 UNL     1       0.999  11.869  24.500  1.00  0.00     0.030 A 
ENDBRANCH  12  23
TORSDOF 5
ENDMDL
MODEL 3
REMARK VINA RESULT: -5.623884289      3.009      7.036
REMARK  5 active torsions:
REMARK  status: ('A' for Active; 'I' for Inactive)
REMARK    1  A    between atoms: C2_2  and  C3_3 
REMARK    2  A    between atoms: C4_4  and  C5_5 
REMARK    3  A    between atoms: C5_5  and  N1_6 
REMARK    4  A    between atoms: N1_6  and  C6_8 
REMARK    5  A    between atoms: N5_19  and  C10_20 
ROOT
HETATM    1  C6  UNL     1       0.845  12.278  22.639  1.00  0.00     0.681 A 
HETATM    2  N2  UNL     1       1.575  11.813  21.607  1.00  0.00    -0.175 N 
ATOM      3  H2  UNL     1       1.411  10.883  21.224  1.00  0.00     0.186 HD
HETATM    4  C7  UNL     1       2.531  12.616  21.096  1.00  0.00     0.145 A 
HETATM    5  N3  UNL     1       3.226  12.141  20.095  1.00  0.00    -0.383 N 
ATOM      6  H31 UNL     1       3.948  12.749  19.709  1.00  0.00     0.157 HD
ATOM      7  H32 UNL     1       3.043  11.207  19.728  1.00  0.00     0.157 HD
HETATM    8  C8  UNL     1       2.777  13.875  21.590  1.00  0.00     0.123 A 
HETATM    9  N4  UNL     1       3.634  14.830  21.270  1.00  0.00    -0.346 N 
ATOM     10  H4  UNL     1       4.329  14.787  20.525  1.00  0.00     0.167 HD
HETATM   11  C9  UNL     1       3.428  15.881  22.109  1.00  0.00     0.191 A 
HETATM   12  N5  UNL     1       2.433  15.594  22.968  1.00  0.00    -0.291 N 
HETATM   13  C17 UNL     1       2.023  14.339  22.645  1.00  0.00     0.159 A 
HETATM   14  N6  UNL     1       1.079  13.529  23.140  1.00  0.00    -0.174 N 
ATOM     15  H6  UNL     1       0.512  13.858  23.921  1.00  0.00     0.186 HD
ENDROOT
BRANCH   1  16
HETATM   16  N1  UNL     1      -0.080  11.551  23.164  1.00  0.00    -0.223 N 
ATOM     17  H1  UNL     1      -1.037  11.597  22.816  1.00  0.00     0.178 HD
BRANCH  16  18
HETATM   18  C5  UNL     1       0.265  10.670  24.253  1.00  0.00     0.165 C 
BRANCH  18  19
HETATM   19  C4  UNL     1       1.314  11.202  25.123  1.00  0.00    -0.007 C 
HETATM   20  C3  UNL     1       1.151  12.315  25.818  1.00  0.00    -0.003 C 
BRANCH  20  21
HETATM   21  C2  UNL     1       2.194  12.838  26.679  1.00  0.00    -0.011 C 
HETATM   22  C1  UNL     1       3.214  13.473  26.141  1.00  0.00     0.011 C 
ENDBRANCH  20  21
ENDBRANCH  18  19
ENDBRANCH  16  18
ENDBRANCH   1  16
BRANCH  12  23
HETATM   23  C10 UNL     1       1.886  16.396  24.010  1.00  0.00     0.042 A 
HETATM   24  C11 UNL     1       1.312  17.625  23.746  1.00  0.00     0.030 A 
HETATM   25  C12 UNL     1       0.774  18.431  24.725  1.00  0.00     0.009 A 
HETATM   26  C13 UNL     1       0.803  18.003  26.032  1.00  0.00    -0.062 A 
HETATM   27  C14 UNL     1       0.214  18.886  27.095  1.00  0.00     0.048 C 
HETATM   28  C15 UNL     1       1.367  16.780  26.343  1.00  0.00     0.009 A 
HETATM   29  C16 UNL     1       1.903  15.988  25.338  1.00  0.00     0.030 A 
ENDBRANCH  12  23
TORSDOF 5
ENDMDL
MODEL 4
REMARK VINA RESULT: -5.581266256      2.473      7.073
REMARK  5 active torsions:
REMARK  status: ('A' for Active; 'I' for Inactive)
REMARK    1  A    between atoms: C2_2  and  C3_3 
REMARK    2  A    between atoms: C4_4  and  C5_5 
REMARK    3  A    between atoms: C5_5  and  N1_6 
REMARK    4  A    between atoms: N1_6  and  C6_8 
REMARK    5  A    between atoms: N5_19  and  C10_20 
ROOT
HETATM    1  C6  UNL     1       2.348  13.675  24.637  1.00  0.00     0.681 A 
HETATM    2  N2  UNL     1       2.868  13.335  23.442  1.00  0.00    -0.175 N 
ATOM      3  H2  UNL     1       3.225  12.395  23.272  1.00  0.00     0.186 HD
HETATM    4  C7  UNL     1       2.903  14.277  22.477  1.00  0.00     0.145 A 
HETATM    5  N3  UNL     1       3.412  13.922  21.325  1.00  0.00    -0.383 N 
ATOM      6  H31 UNL     1       3.438  14.634  20.596  1.00  0.00     0.157 HD
ATOM      7  H32 UNL     1       3.763  12.975  21.178  1.00  0.00     0.157 HD
HETATM    8  C8  UNL     1       2.430  15.552  22.675  1.00  0.00     0.123 A 
HETATM    9  N4  UNL     1       2.353  16.627  21.907  1.00  0.00    -0.346 N 
ATOM     10  H4  UNL     1       2.665  16.695  20.938  1.00  0.00     0.167 HD
HETATM   11  C9  UNL     1       1.786  17.626  22.636  1.00  0.00     0.191 A 
HETATM   12  N5  UNL     1       1.498  17.185  23.874  1.00  0.00    -0.291 N 
HETATM   13  C17 UNL     1       1.900  15.886  23.901  1.00  0.00     0.159 A 
HETATM   14  N6  UNL     1       1.874  14.941  24.847  1.00  0.00    -0.174 N 
ATOM     15  H6  UNL     1       1.484  15.173  25.761  1.00  0.00     0.186 HD
ENDROOT
BRANCH   1  16
HETATM   16  N1  UNL     1       2.292  12.813  25.593  1.00  0.00    -0.223 N 
ATOM     17  H1  UNL     1       2.998  12.805  26.328  1.00  0.00     0.178 HD
BRANCH  16  18
HETATM   18  C5  UNL     1       1.210  11.859  25.602  1.00  0.00     0.165 C 
BRANCH  18  19
HETATM   19  C4  UNL     1       0.618  11.634  24.284  1.00  0.00    -0.007 C 
HETATM   20  C3  UNL     1       1.105  10.739  23.441  1.00  0.00    -0.003 C 
BRANCH  20  21
HETATM   21  C2  UNL     1       0.514  10.520  22.135  1.00  0.00    -0.011 C 
HETATM   22  C1  UNL     1       1.005  11.157  21.092  1.00  0.00     0.011 C 
ENDBRANCH  20  21
ENDBRANCH  18  19
ENDBRANCH  16  18
ENDBRANCH   1  16
BRANCH  12  23
HETATM   23  C10 UNL     1       0.901  17.885  24.960  1.00  0.00     0.042 A 
HETATM   24  C11 UNL     1       0.198  19.057  24.761  1.00  0.00     0.030 A 
HETATM   25  C12 UNL     1      -0.393  19.764  25.785  1.00  0.00     0.009 A 
HETATM   26  C13 UNL     1      -0.287  19.290  27.072  1.00  0.00    -0.062 A 
HETATM   27  C14 UNL     1      -0.934  20.065  28.184  1.00  0.00     0.048 C 
HETATM   28  C15 UNL     1       0.407  18.121  27.318  1.00  0.00     0.009 A 
HETATM   29  C16 UNL     1       0.994  17.428  26.269  1.00  0.00     0.030 A 
ENDBRANCH  12  23
TORSDOF 5
ENDMDL
MODEL 5
REMARK VINA RESULT: -4.972711161      2.475      7.014
REMARK  5 active torsions:
REMARK  status: ('A' for Active; 'I' for Inactive)
REMARK    1  A    between atoms: C2_2  and  C3_3 
REMARK    2  A    between atoms: C4_4  and  C5_5 
REMARK    3  A    between atoms: C5_5  and  N1_6 
REMARK    4  A    between atoms: N1_6  and  C6_8 
REMARK    5  A    between atoms: N5_19  and  C10_20 
ROOT
HETATM    1  C6  UNL     1       2.316  13.678  24.685  1.00  0.00     0.681 A 
HETATM    2  N2  UNL     1       2.858  13.323  23.504  1.00  0.00    -0.175 N 
ATOM      3  H2  UNL     1       3.209  12.378  23.350  1.00  0.00     0.186 HD
HETATM    4  C7  UNL     1       2.923  14.255  22.532  1.00  0.00     0.145 A 
HETATM    5  N3  UNL     1       3.453  13.886  21.395  1.00  0.00    -0.383 N 
ATOM      6  H31 UNL     1       3.502  14.591  20.660  1.00  0.00     0.157 HD
ATOM      7  H32 UNL     1       3.797  12.935  21.263  1.00  0.00     0.157 HD
HETATM    8  C8  UNL     1       2.458  15.537  22.709  1.00  0.00     0.123 A 
HETATM    9  N4  UNL     1       2.409  16.606  21.931  1.00  0.00    -0.346 N 
ATOM     10  H4  UNL     1       2.741  16.663  20.969  1.00  0.00     0.167 HD
HETATM   11  C9  UNL     1       1.836  17.617  22.638  1.00  0.00     0.191 A 
HETATM   12  N5  UNL     1       1.518  17.190  23.874  1.00  0.00    -0.291 N 
HETATM   13  C17 UNL     1       1.906  15.887  23.920  1.00  0.00     0.159 A 
HETATM   14  N6  UNL     1       1.850  14.950  24.874  1.00  0.00    -0.174 N 
ATOM     15  H6  UNL     1       1.444  15.194  25.777  1.00  0.00     0.186 HD
ENDROOT
BRANCH   1  16
HETATM   16  N1  UNL     1       2.231  12.825  25.646  1.00  0.00    -0.223 N 
ATOM     17  H1  UNL     1       2.899  12.841  26.416  1.00  0.00     0.178 HD
BRANCH  16  18
HETATM   18  C5  UNL     1       1.172  11.846  25.612  1.00  0.00     0.165 C 
BRANCH  18  19
HETATM   19  C4  UNL     1       1.108  11.099  24.357  1.00  0.00    -0.007 C 
HETATM   20  C3  UNL     1       0.428  11.540  23.313  1.00  0.00    -0.003 C 
BRANCH  20  21
HETATM   21  C2  UNL     1       0.369  10.795  22.070  1.00  0.00    -0.011 C 
HETATM   22  C1  UNL     1       1.356  10.906  21.205  1.00  0.00     0.011 C 
ENDBRANCH  20  21
ENDBRANCH  18  19
ENDBRANCH  16  18
ENDBRANCH   1  16
BRANCH  12  23
HETATM   23  C10 UNL     1       0.904  17.905  24.942  1.00  0.00     0.042 A 
HETATM   24  C11 UNL     1       0.979  17.455  26.245  1.00  0.00     0.030 A 
HETATM   25  C12 UNL     1       0.398  18.116  27.305  1.00  0.00     0.009 A 
HETATM   26  C13 UNL     1      -0.291  19.284  27.066  1.00  0.00    -0.062 A 
HETATM   27  C14 UNL     1      -0.921  20.001  28.226  1.00  0.00     0.048 C 
HETATM   28  C15 UNL     1      -0.391  19.771  25.777  1.00  0.00     0.009 A 
HETATM   29  C16 UNL     1       0.203  19.085  24.728  1.00  0.00     0.030 A 
ENDBRANCH  12  23
TORSDOF 5
ENDMDL
