MODEL 1
REMARK VINA RESULT: -8.034295890      0.000      0.000
REMARK  7 active torsions:
REMARK  status: ('A' for Active; 'I' for Inactive)
REMARK    1  A    between atoms: C2_2  and  O1_3 
REMARK    2  A    between atoms: O1_3  and  C3_4 
REMARK    3  A    between atoms: C8_9  and  C9_10 
REMARK    4  A    between atoms: C9_10  and  N1_11 
REMARK    5  A    between atoms: N1_11  and  N2_13 
REMARK    6  A    between atoms: N2_13  and  C10_15 
REMARK    7  A    between atoms: C13_24  and  N6_25 
ROOT
HETATM    1  C10 UNL     1       2.086  12.561  24.615  1.00  0.00     0.152 A 
HETATM    2  N3  UNL     1       1.331  11.747  25.421  1.00  0.00    -0.336 N 
ATOM      3  H3  UNL     1       1.334  11.889  26.432  1.00  0.00     0.168 HD
HETATM    4  C11 UNL     1       0.592  10.766  24.889  1.00  0.00     0.183 A 
HETATM    5  N4  UNL     1       0.566  10.553  23.570  1.00  0.00    -0.336 N 
ATOM      6  H4  UNL     1      -0.008   9.797  23.197  1.00  0.00     0.168 HD
HETATM    7  C12 UNL     1       1.272  11.306  22.737  1.00  0.00     0.153 A 
HETATM    8  N5  UNL     1       1.455  11.345  21.404  1.00  0.00    -0.174 N 
ATOM      9  H5  UNL     1       1.007  10.706  20.748  1.00  0.00     0.186 HD
HETATM   10  C13 UNL     1       2.291  12.319  21.043  1.00  0.00     0.678 A 
HETATM   11  N7  UNL     1       2.655  12.925  22.193  1.00  0.00    -0.184 N 
ATOM     12  H7  UNL     1       3.294  13.718  22.255  1.00  0.00     0.184 HD
HETATM   13  C14 UNL     1       2.051  12.332  23.258  1.00  0.00     0.139 A 
ENDROOT
BRANCH   1  14
HETATM   14  N2  UNL     1       2.789  13.493  25.121  1.00  0.00    -0.284 N 
ATOM     15  H2  UNL     1       3.785  13.320  24.985  1.00  0.00     0.188 HD
BRANCH  14  16
HETATM   16  N1  UNL     1       2.587  14.602  25.761  1.00  0.00    -0.309 N 
ATOM     17  H1  UNL     1       3.428  15.176  25.702  1.00  0.00     0.186 HD
BRANCH  16  18
HETATM   18  C9  UNL     1       1.725  15.215  26.424  1.00  0.00     0.121 C 
BRANCH  18  19
HETATM   19  C8  UNL     1       1.358  16.594  26.199  1.00  0.00     0.014 A 
HETATM   20  C3  UNL     1       1.312  17.052  24.879  1.00  0.00     0.080 A 
HETATM   21  C4  UNL     1       0.970  18.361  24.610  1.00  0.00     0.037 A 
HETATM   22  C5  UNL     1       0.667  19.248  25.616  1.00  0.00     0.003 A 
HETATM   23  C6  UNL     1       0.705  18.830  26.914  1.00  0.00     0.001 A 
HETATM   24  C7  UNL     1       1.051  17.503  27.189  1.00  0.00     0.015 A 
BRANCH  20  25
HETATM   25  O1  UNL     1       1.614  16.164  23.871  1.00  0.00    -0.351 OA
BRANCH  25  26
HETATM   26  C2  UNL     1       2.040  16.666  22.628  1.00  0.00     0.171 C 
HETATM   27  C1  UNL     1       3.394  16.125  22.222  1.00  0.00     0.034 C 
ENDBRANCH  25  26
ENDBRANCH  20  25
ENDBRANCH  18  19
ENDBRANCH  16  18
ENDBRANCH  14  16
ENDBRANCH   1  14
BRANCH  10  28
HETATM   28  N6  UNL     1       2.675  12.629  19.872  1.00  0.00    -0.234 N 
ATOM     29  H62 UNL     1       2.125  13.108  19.159  1.00  0.00     0.174 HD
ATOM     30  H61 UNL     1       3.585  12.457  19.442  1.00  0.00     0.174 HD
ENDBRANCH  10  28
TORSDOF 7
ENDMDL
MODEL 2
REMARK VINA RESULT: -7.485034642      1.543      3.373
REMARK  7 active torsions:
REMARK  status: ('A' for Active; 'I' for Inactive)
REMARK    1  A    between atoms: C2_2  and  O1_3 
REMARK    2  A    between atoms: O1_3  and  C3_4 
REMARK    3  A    between atoms: C8_9  and  C9_10 
REMARK    4  A    between atoms: C9_10  and  N1_11 
REMARK    5  A    between atoms: N1_11  and  N2_13 
REMARK    6  A    between atoms: N2_13  and  C10_15 
REMARK    7  A    between atoms: C13_24  and  N6_25 
ROOT
HETATM    1  C10 UNL     1       1.644  12.939  21.950  1.00  0.00     0.152 A 
HETATM    2  N3  UNL     1       1.199  11.965  21.091  1.00  0.00    -0.336 N 
ATOM      3  H3  UNL     1       1.222  12.128  20.084  1.00  0.00     0.168 HD
HETATM    4  C11 UNL     1       0.736  10.804  21.568  1.00  0.00     0.183 A 
HETATM    5  N4  UNL     1       0.693  10.559  22.881  1.00  0.00    -0.336 N 
ATOM      6  H4  UNL     1       0.334   9.664  23.211  1.00  0.00     0.168 HD
HETATM    7  C12 UNL     1       1.109  11.458  23.763  1.00  0.00     0.153 A 
HETATM    8  N5  UNL     1       1.192  11.514  25.105  1.00  0.00    -0.174 N 
ATOM      9  H5  UNL     1       0.905  10.758  25.727  1.00  0.00     0.186 HD
HETATM   10  C13 UNL     1       1.694  12.676  25.526  1.00  0.00     0.678 A 
HETATM   11  N7  UNL     1       1.941  13.387  24.406  1.00  0.00    -0.184 N 
ATOM     12  H7  UNL     1       2.334  14.329  24.391  1.00  0.00     0.184 HD
HETATM   13  C14 UNL     1       1.595  12.675  23.300  1.00  0.00     0.139 A 
ENDROOT
BRANCH   1  14
HETATM   14  N2  UNL     1       2.084  14.043  21.497  1.00  0.00    -0.284 N 
ATOM     15  H2  UNL     1       1.458  14.430  20.791  1.00  0.00     0.188 HD
BRANCH  14  16
HETATM   16  N1  UNL     1       3.111  14.812  21.687  1.00  0.00    -0.309 N 
ATOM     17  H1  UNL     1       3.899  14.452  21.149  1.00  0.00     0.186 HD
BRANCH  16  18
HETATM   18  C9  UNL     1       3.474  15.839  22.298  1.00  0.00     0.121 C 
BRANCH  18  19
HETATM   19  C8  UNL     1       2.795  16.377  23.453  1.00  0.00     0.014 A 
HETATM   20  C3  UNL     1       1.563  17.007  23.254  1.00  0.00     0.080 A 
HETATM   21  C4  UNL     1       0.875  17.540  24.324  1.00  0.00     0.037 A 
HETATM   22  C5  UNL     1       1.370  17.472  25.605  1.00  0.00     0.003 A 
HETATM   23  C6  UNL     1       2.570  16.865  25.830  1.00  0.00     0.001 A 
HETATM   24  C7  UNL     1       3.269  16.323  24.746  1.00  0.00     0.015 A 
BRANCH  20  25
HETATM   25  O1  UNL     1       1.066  17.075  21.972  1.00  0.00    -0.351 OA
BRANCH  25  26
HETATM   26  C2  UNL     1       0.213  18.139  21.628  1.00  0.00     0.171 C 
HETATM   27  C1  UNL     1      -0.876  17.717  20.666  1.00  0.00     0.034 C 
ENDBRANCH  25  26
ENDBRANCH  20  25
ENDBRANCH  18  19
ENDBRANCH  16  18
ENDBRANCH  14  16
ENDBRANCH   1  14
BRANCH  10  28
HETATM   28  N6  UNL     1       1.904  13.052  26.722  1.00  0.00    -0.234 N 
ATOM     29  H62 UNL     1       2.773  12.946  27.248  1.00  0.00     0.174 HD
ATOM     30  H61 UNL     1       1.257  13.517  27.359  1.00  0.00     0.174 HD
ENDBRANCH  10  28
TORSDOF 7
ENDMDL
MODEL 3
REMARK VINA RESULT: -7.352451913      1.172      2.685
REMARK  7 active torsions:
REMARK  status: ('A' for Active; 'I' for Inactive)
REMARK    1  A    between atoms: C2_2  and  O1_3 
REMARK    2  A    between atoms: O1_3  and  C3_4 
REMARK    3  A    between atoms: C8_9  and  C9_10 
REMARK    4  A    between atoms: C9_10  and  N1_11 
REMARK    5  A    between atoms: N1_11  and  N2_13 
REMARK    6  A    between atoms: N2_13  and  C10_15 
REMARK    7  A    between atoms: C13_24  and  N6_25 
ROOT
HETATM    1  C10 UNL     1       2.613  13.678  22.482  1.00  0.00     0.152 A 
HETATM    2  N3  UNL     1       2.923  13.609  21.148  1.00  0.00    -0.336 N 
ATOM      3  H3  UNL     1       3.503  14.335  20.724  1.00  0.00     0.168 HD
HETATM    4  C11 UNL     1       2.471  12.596  20.400  1.00  0.00     0.183 A 
HETATM    5  N4  UNL     1       1.711  11.630  20.925  1.00  0.00    -0.336 N 
ATOM      6  H4  UNL     1       1.382  10.872  20.327  1.00  0.00     0.168 HD
HETATM    7  C12 UNL     1       1.376  11.638  22.209  1.00  0.00     0.153 A 
HETATM    8  N5  UNL     1       0.648  10.841  23.013  1.00  0.00    -0.174 N 
ATOM      9  H5  UNL     1       0.184   9.988  22.701  1.00  0.00     0.186 HD
HETATM   10  C13 UNL     1       0.608  11.298  24.265  1.00  0.00     0.678 A 
HETATM   11  N7  UNL     1       1.340  12.432  24.257  1.00  0.00    -0.184 N 
ATOM     12  H7  UNL     1       1.503  13.023  25.072  1.00  0.00     0.184 HD
HETATM   13  C14 UNL     1       1.829  12.678  23.013  1.00  0.00     0.139 A 
ENDROOT
BRANCH   1  14
HETATM   14  N2  UNL     1       3.043  14.641  23.194  1.00  0.00    -0.284 N 
ATOM     15  H2  UNL     1       3.514  15.342  22.621  1.00  0.00     0.188 HD
BRANCH  14  16
HETATM   16  N1  UNL     1       3.046  14.977  24.446  1.00  0.00    -0.309 N 
ATOM     17  H1  UNL     1       4.011  15.049  24.767  1.00  0.00     0.186 HD
BRANCH  16  18
HETATM   18  C9  UNL     1       2.283  15.243  25.397  1.00  0.00     0.121 C 
BRANCH  18  19
HETATM   19  C8  UNL     1       1.823  16.575  25.719  1.00  0.00     0.014 A 
HETATM   20  C3  UNL     1       1.268  17.342  24.691  1.00  0.00     0.080 A 
HETATM   21  C4  UNL     1       0.816  18.620  24.945  1.00  0.00     0.037 A 
HETATM   22  C5  UNL     1       0.894  19.176  26.200  1.00  0.00     0.003 A 
HETATM   23  C6  UNL     1       1.431  18.452  27.223  1.00  0.00     0.001 A 
HETATM   24  C7  UNL     1       1.890  17.155  26.968  1.00  0.00     0.015 A 
BRANCH  20  25
HETATM   25  O1  UNL     1       1.189  16.786  23.433  1.00  0.00    -0.351 OA
BRANCH  25  26
HETATM   26  C2  UNL     1       1.393  17.610  22.312  1.00  0.00     0.171 C 
HETATM   27  C1  UNL     1       0.126  17.816  21.511  1.00  0.00     0.034 C 
ENDBRANCH  25  26
ENDBRANCH  20  25
ENDBRANCH  18  19
ENDBRANCH  16  18
ENDBRANCH  14  16
ENDBRANCH   1  14
BRANCH  10  28
HETATM   28  N6  UNL     1       0.013  10.789  25.267  1.00  0.00    -0.234 N 
ATOM     29  H62 UNL     1       0.063  11.115  26.232  1.00  0.00     0.174 HD
ATOM     30  H61 UNL     1      -0.608   9.980  25.286  1.00  0.00     0.174 HD
ENDBRANCH  10  28
TORSDOF 7
ENDMDL
MODEL 4
REMARK VINA RESULT: -7.261314605      1.421      3.300
REMARK  7 active torsions:
REMARK  status: ('A' for Active; 'I' for Inactive)
REMARK    1  A    between atoms: C2_2  and  O1_3 
REMARK    2  A    between atoms: O1_3  and  C3_4 
REMARK    3  A    between atoms: C8_9  and  C9_10 
REMARK    4  A    between atoms: C9_10  and  N1_11 
REMARK    5  A    between atoms: N1_11  and  N2_13 
REMARK    6  A    between atoms: N2_13  and  C10_15 
REMARK    7  A    between atoms: C13_24  and  N6_25 
ROOT
HETATM    1  C10 UNL     1       1.812  13.775  21.718  1.00  0.00     0.152 A 
HETATM    2  N3  UNL     1       2.580  13.421  20.638  1.00  0.00    -0.336 N 
ATOM      3  H3  UNL     1       2.916  14.140  19.996  1.00  0.00     0.168 HD
HETATM    4  C11 UNL     1       2.891  12.137  20.421  1.00  0.00     0.183 A 
HETATM    5  N4  UNL     1       2.467  11.172  21.242  1.00  0.00    -0.336 N 
ATOM      6  H4  UNL     1       2.721  10.203  21.048  1.00  0.00     0.168 HD
HETATM    7  C12 UNL     1       1.722  11.448  22.304  1.00  0.00     0.153 A 
HETATM    8  N5  UNL     1       1.156  10.727  23.290  1.00  0.00    -0.174 N 
ATOM      9  H5  UNL     1       1.232   9.713  23.372  1.00  0.00     0.186 HD
HETATM   10  C13 UNL     1       0.482  11.496  24.147  1.00  0.00     0.678 A 
HETATM   11  N7  UNL     1       0.626  12.757  23.688  1.00  0.00    -0.184 N 
ATOM     12  H7  UNL     1       0.225  13.585  24.129  1.00  0.00     0.184 HD
HETATM   13  C14 UNL     1       1.381  12.772  22.557  1.00  0.00     0.139 A 
ENDROOT
BRANCH   1  14
HETATM   14  N2  UNL     1       1.516  14.995  21.924  1.00  0.00    -0.284 N 
ATOM     15  H2  UNL     1       0.761  15.301  21.311  1.00  0.00     0.188 HD
BRANCH  14  16
HETATM   16  N1  UNL     1       1.911  15.956  22.700  1.00  0.00    -0.309 N 
ATOM     17  H1  UNL     1       2.769  15.669  23.172  1.00  0.00     0.186 HD
BRANCH  16  18
HETATM   18  C9  UNL     1       1.611  17.108  23.073  1.00  0.00     0.121 C 
BRANCH  18  19
HETATM   19  C8  UNL     1       1.375  17.479  24.450  1.00  0.00     0.014 A 
HETATM   20  C3  UNL     1       1.495  16.485  25.425  1.00  0.00     0.080 A 
HETATM   21  C4  UNL     1       1.278  16.786  26.753  1.00  0.00     0.037 A 
HETATM   22  C5  UNL     1       0.941  18.056  27.158  1.00  0.00     0.003 A 
HETATM   23  C6  UNL     1       0.817  19.046  26.230  1.00  0.00     0.001 A 
HETATM   24  C7  UNL     1       1.037  18.743  24.881  1.00  0.00     0.015 A 
BRANCH  20  25
HETATM   25  O1  UNL     1       1.832  15.212  25.020  1.00  0.00    -0.351 OA
BRANCH  25  26
HETATM   26  C2  UNL     1       2.159  14.253  25.995  1.00  0.00     0.171 C 
HETATM   27  C1  UNL     1       3.269  13.329  25.544  1.00  0.00     0.034 C 
ENDBRANCH  25  26
ENDBRANCH  20  25
ENDBRANCH  18  19
ENDBRANCH  16  18
ENDBRANCH  14  16
ENDBRANCH   1  14
BRANCH  10  28
HETATM   28  N6  UNL     1      -0.164  11.137  25.181  1.00  0.00    -0.234 N 
ATOM     29  H62 UNL     1      -0.794  11.718  25.735  1.00  0.00     0.174 HD
ATOM     30  H61 UNL     1      -0.169  10.223  25.634  1.00  0.00     0.174 HD
ENDBRANCH  10  28
TORSDOF 7
ENDMDL
MODEL 5
REMARK VINA RESULT: -7.252091677      0.944      1.117
REMARK  7 active torsions:
REMARK  status: ('A' for Active; 'I' for Inactive)
REMARK    1  A    between atoms: C2_2  and  O1_3 
REMARK    2  A    between atoms: O1_3  and  C3_4 
REMARK    3  A    between atoms: C8_9  and  C9_10 
REMARK    4  A    between atoms: C9_10  and  N1_11 
REMARK    5  A    between atoms: N1_11  and  N2_13 
REMARK    6  A    between atoms: N2_13  and  C10_15 
REMARK    7  A    between atoms: C13_24  and  N6_25 
ROOT
HETATM    1  C10 UNL     1       1.991  12.748  24.759  1.00  0.00     0.152 A 
HETATM    2  N3  UNL     1       1.213  12.037  25.637  1.00  0.00    -0.336 N 
ATOM      3  H3  UNL     1       1.203  12.290  26.626  1.00  0.00     0.168 HD
HETATM    4  C11 UNL     1       0.469  11.012  25.205  1.00  0.00     0.183 A 
HETATM    5  N4  UNL     1       0.460  10.655  23.917  1.00  0.00    -0.336 N 
ATOM      6  H4  UNL     1      -0.118   9.870  23.620  1.00  0.00     0.168 HD
HETATM    7  C12 UNL     1       1.188  11.304  23.017  1.00  0.00     0.153 A 
HETATM    8  N5  UNL     1       1.391  11.194  21.691  1.00  0.00    -0.174 N 
ATOM      9  H5  UNL     1       0.944  10.491  21.102  1.00  0.00     0.186 HD
HETATM   10  C13 UNL     1       2.245  12.113  21.239  1.00  0.00     0.678 A 
HETATM   11  N7  UNL     1       2.600  12.837  22.321  1.00  0.00    -0.184 N 
ATOM     12  H7  UNL     1       3.249  13.624  22.306  1.00  0.00     0.184 HD
HETATM   13  C14 UNL     1       1.973  12.372  23.435  1.00  0.00     0.139 A 
ENDROOT
BRANCH   1  14
HETATM   14  N2  UNL     1       2.698  13.722  25.170  1.00  0.00    -0.284 N 
ATOM     15  H2  UNL     1       3.154  13.500  26.056  1.00  0.00     0.188 HD
BRANCH  14  16
HETATM   16  N1  UNL     1       3.000  14.919  24.773  1.00  0.00    -0.309 N 
ATOM     17  H1  UNL     1       3.055  14.926  23.755  1.00  0.00     0.186 HD
BRANCH  16  18
HETATM   18  C9  UNL     1       3.246  16.067  25.198  1.00  0.00     0.121 C 
BRANCH  18  19
HETATM   19  C8  UNL     1       2.235  17.005  25.630  1.00  0.00     0.014 A 
HETATM   20  C3  UNL     1       1.655  17.833  24.665  1.00  0.00     0.080 A 
HETATM   21  C4  UNL     1       0.688  18.747  25.026  1.00  0.00     0.037 A 
HETATM   22  C5  UNL     1       0.267  18.874  26.329  1.00  0.00     0.003 A 
HETATM   23  C6  UNL     1       0.815  18.081  27.292  1.00  0.00     0.001 A 
HETATM   24  C7  UNL     1       1.797  17.152  26.929  1.00  0.00     0.015 A 
BRANCH  20  25
HETATM   25  O1  UNL     1       2.076  17.706  23.360  1.00  0.00    -0.351 OA
BRANCH  25  26
HETATM   26  C2  UNL     1       1.294  16.956  22.463  1.00  0.00     0.171 C 
HETATM   27  C1  UNL     1       0.374  17.826  21.635  1.00  0.00     0.034 C 
ENDBRANCH  25  26
ENDBRANCH  20  25
ENDBRANCH  18  19
ENDBRANCH  16  18
ENDBRANCH  14  16
ENDBRANCH   1  14
BRANCH  10  28
HETATM   28  N6  UNL     1       2.651  12.287  20.047  1.00  0.00    -0.234 N 
ATOM     29  H62 UNL     1       3.623  12.341  19.738  1.00  0.00     0.174 HD
ATOM     30  H61 UNL     1       2.092  12.401  19.201  1.00  0.00     0.174 HD
ENDBRANCH  10  28
TORSDOF 7
ENDMDL
