MODEL 1
REMARK VINA RESULT: -7.342377429      0.000      0.000
REMARK  7 active torsions:
REMARK  status: ('A' for Active; 'I' for Inactive)
REMARK    1  A    between atoms: C11_14  and  C12_15 
REMARK    2  A    between atoms: C12_15  and  C13_16 
REMARK    3  A    between atoms: C13_16  and  C14_17 
REMARK    4  A    between atoms: C14_17  and  C15_18 
REMARK    5  A    between atoms: C15_18  and  C16_19 
REMARK    6  A    between atoms: C16_19  and  C17_20 
REMARK    7  A    between atoms: C17_20  and  C18_21 
ROOT
HETATM    1  C18 UNL     1       2.265   2.170  18.770  1.00  0.00     0.124 C 
HETATM    2  C19 UNL     1       1.454   1.726  17.635  1.00  0.00     0.059 C 
HETATM    3  N2  UNL     1       0.816   1.362  16.757  1.00  0.00    -0.197 NA
ENDROOT
BRANCH   1   4
HETATM    4  C17 UNL     1       3.244   1.039  19.105  1.00  0.00     0.014 C 
BRANCH   4   5
HETATM    5  C16 UNL     1       2.948   0.612  20.506  1.00  0.00     0.001 C 
BRANCH   5   6
HETATM    6  C15 UNL     1       1.802  -0.359  20.608  1.00  0.00     0.000 C 
BRANCH   6   7
HETATM    7  C14 UNL     1       1.191  -0.398  21.983  1.00  0.00     0.000 C 
BRANCH   7   8
HETATM    8  C13 UNL     1      -0.140   0.265  22.075  1.00  0.00     0.002 C 
BRANCH   8   9
HETATM    9  C12 UNL     1      -0.678   0.739  20.759  1.00  0.00     0.024 C 
BRANCH   9  10
HETATM   10  C11 UNL     1      -0.804   2.262  20.702  1.00  0.00     0.077 C 
HETATM   11  C10 UNL     1      -0.552   2.787  22.043  1.00  0.00     0.030 C 
HETATM   12  C9  UNL     1      -0.858   4.250  22.245  1.00  0.00    -0.001 C 
HETATM   13  C8  UNL     1      -0.977   4.362  23.725  1.00  0.00     0.007 C 
HETATM   14  C25 UNL     1      -1.962   4.822  21.398  1.00  0.00    -0.006 C 
HETATM   15  C7  UNL     1      -1.809   5.419  24.296  1.00  0.00     0.026 C 
HETATM   16  C6  UNL     1      -2.987   5.839  23.485  1.00  0.00     0.093 C 
HETATM   17  C2  UNL     1      -2.494   6.007  22.056  1.00  0.00    -0.013 C 
HETATM   18  N1  UNL     1      -3.418   7.089  24.080  1.00  0.00    -0.356 N 
HETATM   19  C1  UNL     1      -1.376   7.033  22.217  1.00  0.00     0.018 C 
HETATM   20  C3  UNL     1      -3.536   6.807  21.345  1.00  0.00     0.021 C 
HETATM   21  C4  UNL     1      -3.794   8.180  21.929  1.00  0.00     0.103 C 
HETATM   22  C5  UNL     1      -4.110   8.073  23.356  1.00  0.00     0.217 C 
HETATM   23  O1  UNL     1      -4.947   8.820  23.881  1.00  0.00    -0.274 OA
ATOM     24  H1  UNL     1      -3.210   7.260  25.063  1.00  0.00     0.162 HD
HETATM   25  C20 UNL     1      -2.807   3.708  20.893  1.00  0.00     0.034 C 
HETATM   26  C26 UNL     1      -1.278   5.364  20.121  1.00  0.00     0.019 C 
HETATM   27  N3  UNL     1      -1.954   2.758  20.132  1.00  0.00    -0.408 N 
HETATM   28  C21 UNL     1      -3.507   2.862  21.905  1.00  0.00     0.031 C 
HETATM   29  C24 UNL     1      -3.862   3.989  19.873  1.00  0.00     0.031 C 
ATOM     30  H3  UNL     1      -2.220   2.474  19.189  1.00  0.00     0.154 HD
HETATM   31  C22 UNL     1      -5.002   2.983  21.733  1.00  0.00     0.002 C 
HETATM   32  C23 UNL     1      -5.187   3.452  20.359  1.00  0.00     0.002 C 
ENDBRANCH   9  10
ENDBRANCH   8   9
ENDBRANCH   7   8
ENDBRANCH   6   7
ENDBRANCH   5   6
ENDBRANCH   4   5
ENDBRANCH   1   4
TORSDOF 7
ENDMDL
MODEL 2
REMARK VINA RESULT: -7.154621456      1.184      1.325
REMARK  7 active torsions:
REMARK  status: ('A' for Active; 'I' for Inactive)
REMARK    1  A    between atoms: C11_14  and  C12_15 
REMARK    2  A    between atoms: C12_15  and  C13_16 
REMARK    3  A    between atoms: C13_16  and  C14_17 
REMARK    4  A    between atoms: C14_17  and  C15_18 
REMARK    5  A    between atoms: C15_18  and  C16_19 
REMARK    6  A    between atoms: C16_19  and  C17_20 
REMARK    7  A    between atoms: C17_20  and  C18_21 
ROOT
HETATM    1  C18 UNL     1       3.510   2.406  18.981  1.00  0.00     0.124 C 
HETATM    2  C19 UNL     1       4.947   2.299  19.240  1.00  0.00     0.059 C 
HETATM    3  N2  UNL     1       6.072   2.202  19.428  1.00  0.00    -0.197 NA
ENDROOT
BRANCH   1   4
HETATM    4  C17 UNL     1       2.945   0.982  18.931  1.00  0.00     0.014 C 
BRANCH   4   5
HETATM    5  C16 UNL     1       2.811   0.520  20.346  1.00  0.00     0.001 C 
BRANCH   5   6
HETATM    6  C15 UNL     1       1.641  -0.400  20.567  1.00  0.00     0.000 C 
BRANCH   6   7
HETATM    7  C14 UNL     1       1.147  -0.384  21.989  1.00  0.00     0.000 C 
BRANCH   7   8
HETATM    8  C13 UNL     1      -0.198   0.233  22.158  1.00  0.00     0.002 C 
BRANCH   8   9
HETATM    9  C12 UNL     1      -0.824   0.694  20.875  1.00  0.00     0.024 C 
BRANCH   9  10
HETATM   10  C11 UNL     1      -0.915   2.218  20.793  1.00  0.00     0.077 C 
HETATM   11  C10 UNL     1      -0.641   2.760  22.123  1.00  0.00     0.030 C 
HETATM   12  C9  UNL     1      -0.911   4.234  22.302  1.00  0.00    -0.001 C 
HETATM   13  C8  UNL     1      -1.017   4.373  23.780  1.00  0.00     0.007 C 
HETATM   14  C25 UNL     1      -2.008   4.816  21.452  1.00  0.00    -0.006 C 
HETATM   15  C7  UNL     1      -1.821   5.459  24.339  1.00  0.00     0.026 C 
HETATM   16  C6  UNL     1      -2.995   5.892  23.528  1.00  0.00     0.093 C 
HETATM   17  C2  UNL     1      -2.508   6.025  22.093  1.00  0.00    -0.013 C 
HETATM   18  N1  UNL     1      -3.392   7.162  24.104  1.00  0.00    -0.356 N 
HETATM   19  C1  UNL     1      -1.365   7.027  22.228  1.00  0.00     0.018 C 
HETATM   20  C3  UNL     1      -3.536   6.836  21.375  1.00  0.00     0.021 C 
HETATM   21  C4  UNL     1      -3.758   8.224  21.937  1.00  0.00     0.103 C 
HETATM   22  C5  UNL     1      -4.066   8.149  23.368  1.00  0.00     0.217 C 
HETATM   23  O1  UNL     1      -4.882   8.925  23.886  1.00  0.00    -0.274 OA
ATOM     24  H1  UNL     1      -3.173   7.345  25.083  1.00  0.00     0.162 HD
HETATM   25  C20 UNL     1      -2.882   3.713  20.972  1.00  0.00     0.034 C 
HETATM   26  C26 UNL     1      -1.321   5.320  20.161  1.00  0.00     0.019 C 
HETATM   27  N3  UNL     1      -2.057   2.731  20.222  1.00  0.00    -0.408 N 
HETATM   28  C21 UNL     1      -3.595   2.902  22.003  1.00  0.00     0.031 C 
HETATM   29  C24 UNL     1      -3.937   4.001  19.955  1.00  0.00     0.031 C 
ATOM     30  H3  UNL     1      -2.336   2.438  19.286  1.00  0.00     0.154 HD
HETATM   31  C22 UNL     1      -5.087   3.055  21.840  1.00  0.00     0.002 C 
HETATM   32  C23 UNL     1      -5.272   3.503  20.459  1.00  0.00     0.002 C 
ENDBRANCH   9  10
ENDBRANCH   8   9
ENDBRANCH   7   8
ENDBRANCH   6   7
ENDBRANCH   5   6
ENDBRANCH   4   5
ENDBRANCH   1   4
TORSDOF 7
ENDMDL
MODEL 3
REMARK VINA RESULT: -6.624494944      1.363      2.627
REMARK  7 active torsions:
REMARK  status: ('A' for Active; 'I' for Inactive)
REMARK    1  A    between atoms: C11_14  and  C12_15 
REMARK    2  A    between atoms: C12_15  and  C13_16 
REMARK    3  A    between atoms: C13_16  and  C14_17 
REMARK    4  A    between atoms: C14_17  and  C15_18 
REMARK    5  A    between atoms: C15_18  and  C16_19 
REMARK    6  A    between atoms: C16_19  and  C17_20 
REMARK    7  A    between atoms: C17_20  and  C18_21 
ROOT
HETATM    1  C18 UNL     1       2.576   1.172  18.949  1.00  0.00     0.124 C 
HETATM    2  C19 UNL     1       1.958   2.486  19.136  1.00  0.00     0.059 C 
HETATM    3  N2  UNL     1       1.489   3.518  19.293  1.00  0.00    -0.197 NA
ENDROOT
BRANCH   1   4
HETATM    4  C17 UNL     1       2.894   0.613  20.341  1.00  0.00     0.014 C 
BRANCH   4   5
HETATM    5  C16 UNL     1       1.820  -0.375  20.665  1.00  0.00     0.001 C 
BRANCH   5   6
HETATM    6  C15 UNL     1       1.196  -0.160  22.017  1.00  0.00     0.000 C 
BRANCH   6   7
HETATM    7  C14 UNL     1      -0.308  -0.121  21.966  1.00  0.00     0.000 C 
BRANCH   7   8
HETATM    8  C13 UNL     1      -0.870  -0.129  20.587  1.00  0.00     0.002 C 
BRANCH   8   9
HETATM    9  C12 UNL     1      -1.340   1.213  20.112  1.00  0.00     0.024 C 
BRANCH   9  10
HETATM   10  C11 UNL     1      -1.566   2.187  21.269  1.00  0.00     0.077 C 
HETATM   11  C10 UNL     1      -3.001   2.231  21.550  1.00  0.00     0.030 C 
HETATM   12  C9  UNL     1      -3.451   3.309  22.504  1.00  0.00    -0.001 C 
HETATM   13  C8  UNL     1      -4.908   3.416  22.217  1.00  0.00     0.007 C 
HETATM   14  C25 UNL     1      -2.634   4.572  22.515  1.00  0.00    -0.006 C 
HETATM   15  C7  UNL     1      -5.594   4.681  22.472  1.00  0.00     0.026 C 
HETATM   16  C6  UNL     1      -4.777   5.917  22.312  1.00  0.00     0.093 C 
HETATM   17  C2  UNL     1      -3.457   5.660  23.024  1.00  0.00    -0.013 C 
HETATM   18  N1  UNL     1      -5.559   6.962  22.943  1.00  0.00    -0.356 N 
HETATM   19  C1  UNL     1      -3.911   5.322  24.441  1.00  0.00     0.018 C 
HETATM   20  C3  UNL     1      -2.821   6.998  23.223  1.00  0.00     0.021 C 
HETATM   21  C4  UNL     1      -3.633   7.971  24.052  1.00  0.00     0.103 C 
HETATM   22  C5  UNL     1      -4.978   8.117  23.490  1.00  0.00     0.217 C 
HETATM   23  O1  UNL     1      -5.560   9.211  23.504  1.00  0.00    -0.274 OA
ATOM     24  H1  UNL     1      -6.571   6.853  22.992  1.00  0.00     0.162 HD
HETATM   25  C20 UNL     1      -1.850   4.648  21.254  1.00  0.00     0.034 C 
HETATM   26  C26 UNL     1      -1.551   4.366  23.601  1.00  0.00     0.019 C 
HETATM   27  N3  UNL     1      -1.001   3.434  21.136  1.00  0.00    -0.408 N 
HETATM   28  C21 UNL     1      -2.613   4.704  19.972  1.00  0.00     0.031 C 
HETATM   29  C24 UNL     1      -0.813   5.711  21.096  1.00  0.00     0.031 C 
ATOM     30  H3  UNL     1      -0.001   3.525  20.956  1.00  0.00     0.154 HD
HETATM   31  C22 UNL     1      -2.334   6.006  19.261  1.00  0.00     0.002 C 
HETATM   32  C23 UNL     1      -1.065   6.475  19.817  1.00  0.00     0.002 C 
ENDBRANCH   9  10
ENDBRANCH   8   9
ENDBRANCH   7   8
ENDBRANCH   6   7
ENDBRANCH   5   6
ENDBRANCH   4   5
ENDBRANCH   1   4
TORSDOF 7
ENDMDL
MODEL 4
REMARK VINA RESULT: -6.622997756      1.941      3.334
REMARK  7 active torsions:
REMARK  status: ('A' for Active; 'I' for Inactive)
REMARK    1  A    between atoms: C11_14  and  C12_15 
REMARK    2  A    between atoms: C12_15  and  C13_16 
REMARK    3  A    between atoms: C13_16  and  C14_17 
REMARK    4  A    between atoms: C14_17  and  C15_18 
REMARK    5  A    between atoms: C15_18  and  C16_19 
REMARK    6  A    between atoms: C16_19  and  C17_20 
REMARK    7  A    between atoms: C17_20  and  C18_21 
ROOT
HETATM    1  C18 UNL     1       0.993   1.631  18.305  1.00  0.00     0.124 C 
HETATM    2  C19 UNL     1       1.122   1.698  16.848  1.00  0.00     0.059 C 
HETATM    3  N2  UNL     1       1.207   1.741  15.707  1.00  0.00    -0.197 NA
ENDROOT
BRANCH   1   4
HETATM    4  C17 UNL     1       0.674   0.178  18.671  1.00  0.00     0.014 C 
BRANCH   4   5
HETATM    5  C16 UNL     1       1.847  -0.343  19.437  1.00  0.00     0.001 C 
BRANCH   5   6
HETATM    6  C15 UNL     1       1.945   0.212  20.832  1.00  0.00     0.000 C 
BRANCH   6   7
HETATM    7  C14 UNL     1       1.021  -0.477  21.800  1.00  0.00     0.000 C 
BRANCH   7   8
HETATM    8  C13 UNL     1      -0.053   0.400  22.344  1.00  0.00     0.002 C 
BRANCH   8   9
HETATM    9  C12 UNL     1       0.077   1.840  21.949  1.00  0.00     0.024 C 
BRANCH   9  10
HETATM   10  C11 UNL     1      -1.142   2.664  22.365  1.00  0.00     0.077 C 
HETATM   11  C10 UNL     1      -2.316   2.106  21.696  1.00  0.00     0.030 C 
HETATM   12  C9  UNL     1      -3.581   2.922  21.796  1.00  0.00    -0.001 C 
HETATM   13  C8  UNL     1      -4.405   2.392  20.675  1.00  0.00     0.007 C 
HETATM   14  C25 UNL     1      -3.404   4.412  21.906  1.00  0.00    -0.006 C 
HETATM   15  C7  UNL     1      -5.412   3.254  20.060  1.00  0.00     0.026 C 
HETATM   16  C6  UNL     1      -5.112   4.715  20.053  1.00  0.00     0.093 C 
HETATM   17  C2  UNL     1      -4.623   5.065  21.451  1.00  0.00    -0.013 C 
HETATM   18  N1  UNL     1      -6.373   5.350  19.725  1.00  0.00    -0.356 N 
HETATM   19  C1  UNL     1      -5.789   4.612  22.326  1.00  0.00     0.018 C 
HETATM   20  C3  UNL     1      -4.718   6.551  21.567  1.00  0.00     0.021 C 
HETATM   21  C4  UNL     1      -6.112   7.116  21.390  1.00  0.00     0.103 C 
HETATM   22  C5  UNL     1      -6.687   6.659  20.122  1.00  0.00     0.217 C 
HETATM   23  O1  UNL     1      -7.410   7.404  19.445  1.00  0.00    -0.274 OA
ATOM     24  H1  UNL     1      -7.060   4.824  19.186  1.00  0.00     0.162 HD
HETATM   25  C20 UNL     1      -2.044   4.771  21.425  1.00  0.00     0.034 C 
HETATM   26  C26 UNL     1      -3.344   4.720  23.421  1.00  0.00     0.019 C 
HETATM   27  N3  UNL     1      -1.034   4.029  22.223  1.00  0.00    -0.408 N 
HETATM   28  C21 UNL     1      -1.711   4.456  20.003  1.00  0.00     0.031 C 
HETATM   29  C24 UNL     1      -1.546   6.168  21.605  1.00  0.00     0.031 C 
ATOM     30  H3  UNL     1      -0.262   4.529  22.664  1.00  0.00     0.154 HD
HETATM   31  C22 UNL     1      -1.424   5.729  19.246  1.00  0.00     0.002 C 
HETATM   32  C23 UNL     1      -1.077   6.711  20.275  1.00  0.00     0.002 C 
ENDBRANCH   9  10
ENDBRANCH   8   9
ENDBRANCH   7   8
ENDBRANCH   6   7
ENDBRANCH   5   6
ENDBRANCH   4   5
ENDBRANCH   1   4
TORSDOF 7
ENDMDL
MODEL 5
REMARK VINA RESULT: -6.513004404      2.116      3.470
REMARK  7 active torsions:
REMARK  status: ('A' for Active; 'I' for Inactive)
REMARK    1  A    between atoms: C11_14  and  C12_15 
REMARK    2  A    between atoms: C12_15  and  C13_16 
REMARK    3  A    between atoms: C13_16  and  C14_17 
REMARK    4  A    between atoms: C14_17  and  C15_18 
REMARK    5  A    between atoms: C15_18  and  C16_19 
REMARK    6  A    between atoms: C16_19  and  C17_20 
REMARK    7  A    between atoms: C17_20  and  C18_21 
ROOT
HETATM    1  C18 UNL     1       3.274   1.851  17.152  1.00  0.00     0.124 C 
HETATM    2  C19 UNL     1       4.212   0.952  17.828  1.00  0.00     0.059 C 
HETATM    3  N2  UNL     1       4.930   0.236  18.359  1.00  0.00    -0.197 NA
ENDROOT
BRANCH   1   4
HETATM    4  C17 UNL     1       2.043   1.993  18.053  1.00  0.00     0.014 C 
BRANCH   4   5
HETATM    5  C16 UNL     1       0.927   1.264  17.378  1.00  0.00     0.001 C 
BRANCH   5   6
HETATM    6  C15 UNL     1       0.269   0.231  18.253  1.00  0.00     0.000 C 
BRANCH   6   7
HETATM    7  C14 UNL     1       1.092  -0.117  19.464  1.00  0.00     0.000 C 
BRANCH   7   8
HETATM    8  C13 UNL     1       0.399   0.127  20.760  1.00  0.00     0.002 C 
BRANCH   8   9
HETATM    9  C12 UNL     1       0.860   1.362  21.476  1.00  0.00     0.024 C 
BRANCH   9  10
HETATM   10  C11 UNL     1      -0.307   2.168  22.046  1.00  0.00     0.077 C 
HETATM   11  C10 UNL     1      -1.551   1.552  21.585  1.00  0.00     0.030 C 
HETATM   12  C9  UNL     1      -2.811   2.336  21.850  1.00  0.00    -0.001 C 
HETATM   13  C8  UNL     1      -3.779   1.742  20.887  1.00  0.00     0.007 C 
HETATM   14  C25 UNL     1      -2.669   3.834  21.880  1.00  0.00    -0.006 C 
HETATM   15  C7  UNL     1      -4.896   2.552  20.406  1.00  0.00     0.026 C 
HETATM   16  C6  UNL     1      -4.648   4.018  20.302  1.00  0.00     0.093 C 
HETATM   17  C2  UNL     1      -3.964   4.436  21.595  1.00  0.00    -0.013 C 
HETATM   18  N1  UNL     1      -5.965   4.606  20.151  1.00  0.00    -0.356 N 
HETATM   19  C1  UNL     1      -4.966   3.986  22.654  1.00  0.00     0.018 C 
HETATM   20  C3  UNL     1      -4.089   5.922  21.674  1.00  0.00     0.021 C 
HETATM   21  C4  UNL     1      -5.511   6.442  21.694  1.00  0.00     0.103 C 
HETATM   22  C5  UNL     1      -6.257   5.921  20.546  1.00  0.00     0.217 C 
HETATM   23  O1  UNL     1      -7.099   6.619  19.963  1.00  0.00    -0.274 OA
ATOM     24  H1  UNL     1      -6.708   4.041  19.742  1.00  0.00     0.162 HD
HETATM   25  C20 UNL     1      -1.411   4.211  21.183  1.00  0.00     0.034 C 
HETATM   26  C26 UNL     1      -2.388   4.202  23.356  1.00  0.00     0.019 C 
HETATM   27  N3  UNL     1      -0.267   3.528  21.842  1.00  0.00    -0.408 N 
HETATM   28  C21 UNL     1      -1.289   3.850  19.740  1.00  0.00     0.031 C 
HETATM   29  C24 UNL     1      -0.937   5.627  21.237  1.00  0.00     0.031 C 
ATOM     30  H3  UNL     1       0.547   4.065  22.141  1.00  0.00     0.154 HD
HETATM   31  C22 UNL     1      -1.162   5.100  18.904  1.00  0.00     0.002 C 
HETATM   32  C23 UNL     1      -0.694   6.130  19.833  1.00  0.00     0.002 C 
ENDBRANCH   9  10
ENDBRANCH   8   9
ENDBRANCH   7   8
ENDBRANCH   6   7
ENDBRANCH   5   6
ENDBRANCH   4   5
ENDBRANCH   1   4
TORSDOF 7
ENDMDL
