MODEL 1
REMARK VINA RESULT: -7.277005812      0.000      0.000
REMARK  7 active torsions:
REMARK  status: ('A' for Active; 'I' for Inactive)
REMARK    1  A    between atoms: C2_2  and  N1_3 
REMARK       I    between atoms: N1_3  and  C3_4 
REMARK    2  A    between atoms: N1_3  and  C9_11 
REMARK    3  A    between atoms: C3_4  and  C4_6 
REMARK    4  A    between atoms: C12_14  and  N2_15 
REMARK       I    between atoms: N2_15  and  C13_17 
REMARK       I    between atoms: C13_17  and  N3_19 
REMARK    5  A    between atoms: N3_19  and  C14_21 
REMARK    6  A    between atoms: C14_21  and  C15_22 
REMARK    7  A    between atoms: C15_22  and  C16_23 
ROOT
HETATM    1  N2  UNL     1      -1.548   1.553  20.401  1.00  0.00    -0.339 N 
ATOM      2  H2  UNL     1      -1.943   1.385  19.476  1.00  0.00     0.164 HD
HETATM    3  C13 UNL     1      -2.345   2.212  21.361  1.00  0.00     0.316 C 
HETATM    4  O2  UNL     1      -1.927   2.458  22.536  1.00  0.00    -0.247 OA
HETATM    5  N3  UNL     1      -3.649   2.619  21.027  1.00  0.00    -0.343 N 
ATOM      6  H3  UNL     1      -4.018   2.439  20.094  1.00  0.00     0.164 HD
ENDROOT
BRANCH   1   7
HETATM    7  C12 UNL     1      -0.199   1.102  20.663  1.00  0.00     0.086 C 
HETATM    8  C11 UNL     1       0.218  -0.108  19.907  1.00  0.00     0.027 C 
HETATM    9  C10 UNL     1       0.568   0.108  18.480  1.00  0.00     0.027 C 
HETATM   10  C9  UNL     1       0.823   1.510  18.050  1.00  0.00     0.087 C 
HETATM   11  C26 UNL     1       1.222   2.484  19.095  1.00  0.00     0.027 C 
HETATM   12  C25 UNL     1       0.800   2.187  20.488  1.00  0.00     0.027 C 
BRANCH  10  13
HETATM   13  N1  UNL     1       1.771   1.573  16.958  1.00  0.00    -0.347 N 
HETATM   14  C3  UNL     1       3.111   1.177  17.072  1.00  0.00     0.225 C 
HETATM   15  O1  UNL     1       3.823   1.288  15.998  1.00  0.00    -0.273 OA
BRANCH  13  16
HETATM   16  C2  UNL     1       1.299   2.072  15.676  1.00  0.00     0.122 C 
HETATM   17  C1  UNL     1       1.133   3.575  15.690  1.00  0.00     0.026 C 
ENDBRANCH  13  16
BRANCH  14  18
HETATM   18  C4  UNL     1       3.775   0.651  18.297  1.00  0.00     0.086 A 
HETATM   19  C5  UNL     1       5.279   0.458  18.091  1.00  0.00     0.024 A 
HETATM   20  C6  UNL     1       4.764   1.469  19.038  1.00  0.00    -0.035 A 
HETATM   21  C7  UNL     1       4.941   1.061  20.509  1.00  0.00     0.015 C 
HETATM   22  C8  UNL     1       4.876   2.935  18.780  1.00  0.00     0.015 C 
ENDBRANCH  14  18
ENDBRANCH  10  13
ENDBRANCH   1   7
BRANCH   5  23
HETATM   23  C14 UNL     1      -4.463   3.292  22.011  1.00  0.00     0.125 C 
BRANCH  23  24
HETATM   24  C15 UNL     1      -4.532   4.748  21.704  1.00  0.00     0.029 C 
BRANCH  24  25
HETATM   25  C16 UNL     1      -3.955   5.580  22.801  1.00  0.00    -0.035 C 
HETATM   26  C17 UNL     1      -4.782   6.855  23.030  1.00  0.00     0.014 C 
HETATM   27  C18 UNL     1      -3.702   7.737  23.671  1.00  0.00    -0.013 C 
HETATM   28  C19 UNL     1      -3.349   7.125  24.989  1.00  0.00     0.009 C 
HETATM   29  C23 UNL     1      -2.589   7.570  22.638  1.00  0.00     0.010 C 
HETATM   30  C20 UNL     1      -2.862   5.710  24.853  1.00  0.00    -0.013 C 
HETATM   31  C21 UNL     1      -1.753   5.606  23.796  1.00  0.00     0.010 C 
HETATM   32  C24 UNL     1      -3.948   4.884  24.144  1.00  0.00     0.014 C 
HETATM   33  C22 UNL     1      -2.546   6.038  22.556  1.00  0.00    -0.005 C 
ENDBRANCH  24  25
ENDBRANCH  23  24
ENDBRANCH   5  23
TORSDOF 7
ENDMDL
MODEL 2
REMARK VINA RESULT: -7.133362419      2.298      9.233
REMARK  7 active torsions:
REMARK  status: ('A' for Active; 'I' for Inactive)
REMARK    1  A    between atoms: C2_2  and  N1_3 
REMARK       I    between atoms: N1_3  and  C3_4 
REMARK    2  A    between atoms: N1_3  and  C9_11 
REMARK    3  A    between atoms: C3_4  and  C4_6 
REMARK    4  A    between atoms: C12_14  and  N2_15 
REMARK       I    between atoms: N2_15  and  C13_17 
REMARK       I    between atoms: C13_17  and  N3_19 
REMARK    5  A    between atoms: N3_19  and  C14_21 
REMARK    6  A    between atoms: C14_21  and  C15_22 
REMARK    7  A    between atoms: C15_22  and  C16_23 
ROOT
HETATM    1  N2  UNL     1      -2.476   2.457  22.155  1.00  0.00    -0.339 N 
ATOM      2  H2  UNL     1      -2.177   2.841  23.051  1.00  0.00     0.164 HD
HETATM    3  C13 UNL     1      -1.759   1.364  21.621  1.00  0.00     0.316 C 
HETATM    4  O2  UNL     1      -2.068   0.827  20.512  1.00  0.00    -0.247 OA
HETATM    5  N3  UNL     1      -0.662   0.838  22.325  1.00  0.00    -0.343 N 
ATOM      6  H3  UNL     1      -0.384   1.244  23.218  1.00  0.00     0.164 HD
ENDROOT
BRANCH   1   7
HETATM    7  C12 UNL     1      -3.616   3.057  21.497  1.00  0.00     0.086 C 
HETATM    8  C11 UNL     1      -4.816   3.236  22.354  1.00  0.00     0.027 C 
HETATM    9  C10 UNL     1      -4.769   4.373  23.307  1.00  0.00     0.027 C 
HETATM   10  C9  UNL     1      -3.731   5.413  23.069  1.00  0.00     0.087 C 
HETATM   11  C26 UNL     1      -3.194   5.541  21.692  1.00  0.00     0.027 C 
HETATM   12  C25 UNL     1      -3.267   4.335  20.827  1.00  0.00     0.027 C 
BRANCH  10  13
HETATM   13  N1  UNL     1      -4.159   6.716  23.532  1.00  0.00    -0.347 N 
HETATM   14  C3  UNL     1      -5.394   7.290  23.199  1.00  0.00     0.225 C 
HETATM   15  O1  UNL     1      -5.627   8.456  23.704  1.00  0.00    -0.273 OA
BRANCH  13  16
HETATM   16  C2  UNL     1      -3.255   7.462  24.393  1.00  0.00     0.122 C 
HETATM   17  C1  UNL     1      -2.558   6.558  25.384  1.00  0.00     0.026 C 
ENDBRANCH  13  16
BRANCH  14  18
HETATM   18  C4  UNL     1      -6.442   6.685  22.329  1.00  0.00     0.086 A 
HETATM   19  C5  UNL     1      -7.433   7.734  21.820  1.00  0.00     0.024 A 
HETATM   20  C6  UNL     1      -6.527   7.028  20.890  1.00  0.00    -0.035 A 
HETATM   21  C7  UNL     1      -7.246   5.972  20.035  1.00  0.00     0.015 C 
HETATM   22  C8  UNL     1      -5.390   7.713  20.208  1.00  0.00     0.015 C 
ENDBRANCH  14  18
ENDBRANCH  10  13
ENDBRANCH   1   7
BRANCH   5  23
HETATM   23  C14 UNL     1       0.070  -0.280  21.778  1.00  0.00     0.125 C 
BRANCH  23  24
HETATM   24  C15 UNL     1       1.492   0.102  21.557  1.00  0.00     0.029 C 
BRANCH  24  25
HETATM   25  C16 UNL     1       1.741   0.555  20.156  1.00  0.00    -0.035 C 
HETATM   26  C17 UNL     1       3.171   0.220  19.705  1.00  0.00     0.014 C 
HETATM   27  C18 UNL     1       3.336   1.278  18.605  1.00  0.00    -0.013 C 
HETATM   28  C19 UNL     1       2.374   0.940  17.512  1.00  0.00     0.009 C 
HETATM   29  C23 UNL     1       2.916   2.523  19.383  1.00  0.00     0.010 C 
HETATM   30  C20 UNL     1       0.951   0.897  17.993  1.00  0.00    -0.013 C 
HETATM   31  C21 UNL     1       0.591   2.170  18.773  1.00  0.00     0.010 C 
HETATM   32  C24 UNL     1       0.852  -0.123  19.139  1.00  0.00     0.014 C 
HETATM   33  C22 UNL     1       1.574   2.032  19.944  1.00  0.00    -0.005 C 
ENDBRANCH  24  25
ENDBRANCH  23  24
ENDBRANCH   5  23
TORSDOF 7
ENDMDL
MODEL 3
REMARK VINA RESULT: -7.108016298      1.130      1.986
REMARK  7 active torsions:
REMARK  status: ('A' for Active; 'I' for Inactive)
REMARK    1  A    between atoms: C2_2  and  N1_3 
REMARK       I    between atoms: N1_3  and  C3_4 
REMARK    2  A    between atoms: N1_3  and  C9_11 
REMARK    3  A    between atoms: C3_4  and  C4_6 
REMARK    4  A    between atoms: C12_14  and  N2_15 
REMARK       I    between atoms: N2_15  and  C13_17 
REMARK       I    between atoms: C13_17  and  N3_19 
REMARK    5  A    between atoms: N3_19  and  C14_21 
REMARK    6  A    between atoms: C14_21  and  C15_22 
REMARK    7  A    between atoms: C15_22  and  C16_23 
ROOT
HETATM    1  N2  UNL     1      -1.469   1.057  20.293  1.00  0.00    -0.339 N 
ATOM      2  H2  UNL     1      -1.732   0.515  19.471  1.00  0.00     0.164 HD
HETATM    3  C13 UNL     1      -2.488   1.713  21.018  1.00  0.00     0.316 C 
HETATM    4  O2  UNL     1      -2.244   2.408  22.053  1.00  0.00    -0.247 OA
HETATM    5  N3  UNL     1      -3.825   1.607  20.596  1.00  0.00    -0.343 N 
ATOM      6  H3  UNL     1      -4.058   1.058  19.769  1.00  0.00     0.164 HD
ENDROOT
BRANCH   1   7
HETATM    7  C12 UNL     1      -0.071   1.115  20.659  1.00  0.00     0.086 C 
HETATM    8  C11 UNL     1       0.748  -0.038  20.202  1.00  0.00     0.027 C 
HETATM    9  C10 UNL     1       1.124  -0.037  18.766  1.00  0.00     0.027 C 
HETATM   10  C9  UNL     1       0.976   1.248  18.028  1.00  0.00     0.087 C 
HETATM   11  C26 UNL     1       0.983   2.499  18.826  1.00  0.00     0.027 C 
HETATM   12  C25 UNL     1       0.564   2.393  20.247  1.00  0.00     0.027 C 
BRANCH  10  13
HETATM   13  N1  UNL     1       1.943   1.367  16.956  1.00  0.00    -0.347 N 
HETATM   14  C3  UNL     1       3.301   1.054  17.099  1.00  0.00     0.225 C 
HETATM   15  O1  UNL     1       4.028   1.205  16.041  1.00  0.00    -0.273 OA
BRANCH  13  16
HETATM   16  C2  UNL     1       1.468   1.832  15.663  1.00  0.00     0.122 C 
HETATM   17  C1  UNL     1       1.521   3.340  15.560  1.00  0.00     0.026 C 
ENDBRANCH  13  16
BRANCH  14  18
HETATM   18  C4  UNL     1       3.970   0.573  18.341  1.00  0.00     0.086 A 
HETATM   19  C5  UNL     1       5.495   0.585  18.206  1.00  0.00     0.024 A 
HETATM   20  C6  UNL     1       4.807   1.484  19.157  1.00  0.00    -0.035 A 
HETATM   21  C7  UNL     1       4.966   1.048  20.622  1.00  0.00     0.015 C 
HETATM   22  C8  UNL     1       4.737   2.961  18.951  1.00  0.00     0.015 C 
ENDBRANCH  14  18
ENDBRANCH  10  13
ENDBRANCH   1   7
BRANCH   5  23
HETATM   23  C14 UNL     1      -4.865   2.277  21.339  1.00  0.00     0.125 C 
BRANCH  23  24
HETATM   24  C15 UNL     1      -5.203   3.571  20.685  1.00  0.00     0.029 C 
BRANCH  24  25
HETATM   25  C16 UNL     1      -5.427   4.661  21.681  1.00  0.00    -0.035 C 
HETATM   26  C17 UNL     1      -4.174   5.534  21.847  1.00  0.00     0.014 C 
HETATM   27  C18 UNL     1      -4.441   6.083  23.255  1.00  0.00    -0.013 C 
HETATM   28  C19 UNL     1      -5.652   6.956  23.172  1.00  0.00     0.009 C 
HETATM   29  C23 UNL     1      -4.719   4.774  23.991  1.00  0.00     0.010 C 
HETATM   30  C20 UNL     1      -6.856   6.220  22.656  1.00  0.00    -0.013 C 
HETATM   31  C21 UNL     1      -7.078   4.911  23.429  1.00  0.00     0.010 C 
HETATM   32  C24 UNL     1      -6.516   5.630  21.277  1.00  0.00     0.014 C 
HETATM   33  C22 UNL     1      -5.782   4.178  23.058  1.00  0.00    -0.005 C 
ENDBRANCH  24  25
ENDBRANCH  23  24
ENDBRANCH   5  23
TORSDOF 7
ENDMDL
MODEL 4
REMARK VINA RESULT: -7.070015475      2.292      8.794
REMARK  7 active torsions:
REMARK  status: ('A' for Active; 'I' for Inactive)
REMARK    1  A    between atoms: C2_2  and  N1_3 
REMARK       I    between atoms: N1_3  and  C3_4 
REMARK    2  A    between atoms: N1_3  and  C9_11 
REMARK    3  A    between atoms: C3_4  and  C4_6 
REMARK    4  A    between atoms: C12_14  and  N2_15 
REMARK       I    between atoms: N2_15  and  C13_17 
REMARK       I    between atoms: C13_17  and  N3_19 
REMARK    5  A    between atoms: N3_19  and  C14_21 
REMARK    6  A    between atoms: C14_21  and  C15_22 
REMARK    7  A    between atoms: C15_22  and  C16_23 
ROOT
HETATM    1  N2  UNL     1      -2.580   2.506  21.826  1.00  0.00    -0.339 N 
ATOM      2  H2  UNL     1      -2.270   3.070  22.617  1.00  0.00     0.164 HD
HETATM    3  C13 UNL     1      -1.824   1.366  21.478  1.00  0.00     0.316 C 
HETATM    4  O2  UNL     1      -2.143   0.611  20.507  1.00  0.00    -0.247 OA
HETATM    5  N3  UNL     1      -0.675   1.037  22.218  1.00  0.00    -0.343 N 
ATOM      6  H3  UNL     1      -0.388   1.620  23.004  1.00  0.00     0.164 HD
ENDROOT
BRANCH   1   7
HETATM    7  C12 UNL     1      -3.774   2.914  21.118  1.00  0.00     0.086 C 
HETATM    8  C11 UNL     1      -4.965   3.150  21.976  1.00  0.00     0.027 C 
HETATM    9  C10 UNL     1      -4.976   4.427  22.731  1.00  0.00     0.027 C 
HETATM   10  C9  UNL     1      -4.021   5.482  22.294  1.00  0.00     0.087 C 
HETATM   11  C26 UNL     1      -3.526   5.419  20.897  1.00  0.00     0.027 C 
HETATM   12  C25 UNL     1      -3.532   4.087  20.240  1.00  0.00     0.027 C 
BRANCH  10  13
HETATM   13  N1  UNL     1      -4.530   6.811  22.556  1.00  0.00    -0.347 N 
HETATM   14  C3  UNL     1      -4.335   7.493  23.765  1.00  0.00     0.225 C 
HETATM   15  O1  UNL     1      -4.847   8.678  23.832  1.00  0.00    -0.273 OA
BRANCH  13  16
HETATM   16  C2  UNL     1      -5.281   7.471  21.499  1.00  0.00     0.122 C 
HETATM   17  C1  UNL     1      -6.754   7.135  21.569  1.00  0.00     0.026 C 
ENDBRANCH  13  16
BRANCH  14  18
HETATM   18  C4  UNL     1      -3.604   6.981  24.958  1.00  0.00     0.086 A 
HETATM   19  C5  UNL     1      -2.159   6.606  24.621  1.00  0.00     0.024 A 
HETATM   20  C6  UNL     1      -2.461   7.731  25.531  1.00  0.00    -0.035 A 
HETATM   21  C7  UNL     1      -2.174   7.408  27.006  1.00  0.00     0.015 C 
HETATM   22  C8  UNL     1      -2.224   9.154  25.147  1.00  0.00     0.015 C 
ENDBRANCH  14  18
ENDBRANCH  10  13
ENDBRANCH   1   7
BRANCH   5  23
HETATM   23  C14 UNL     1       0.097  -0.129  21.861  1.00  0.00     0.125 C 
BRANCH  23  24
HETATM   24  C15 UNL     1       1.514   0.255  21.613  1.00  0.00     0.029 C 
BRANCH  24  25
HETATM   25  C16 UNL     1       1.748   0.653  20.193  1.00  0.00    -0.035 C 
HETATM   26  C17 UNL     1       3.182   0.327  19.749  1.00  0.00     0.014 C 
HETATM   27  C18 UNL     1       3.322   1.341  18.605  1.00  0.00    -0.013 C 
HETATM   28  C19 UNL     1       2.361   0.939  17.532  1.00  0.00     0.009 C 
HETATM   29  C23 UNL     1       2.880   2.610  19.333  1.00  0.00     0.010 C 
HETATM   30  C20 UNL     1       0.942   0.889  18.022  1.00  0.00    -0.013 C 
HETATM   31  C21 UNL     1       0.561   2.186  18.750  1.00  0.00     0.010 C 
HETATM   32  C24 UNL     1       0.868  -0.085  19.210  1.00  0.00     0.014 C 
HETATM   33  C22 UNL     1       1.551   2.116  19.921  1.00  0.00    -0.005 C 
ENDBRANCH  24  25
ENDBRANCH  23  24
ENDBRANCH   5  23
TORSDOF 7
ENDMDL
MODEL 5
REMARK VINA RESULT: -7.023159820      1.374      3.403
REMARK  7 active torsions:
REMARK  status: ('A' for Active; 'I' for Inactive)
REMARK    1  A    between atoms: C2_2  and  N1_3 
REMARK       I    between atoms: N1_3  and  C3_4 
REMARK    2  A    between atoms: N1_3  and  C9_11 
REMARK    3  A    between atoms: C3_4  and  C4_6 
REMARK    4  A    between atoms: C12_14  and  N2_15 
REMARK       I    between atoms: N2_15  and  C13_17 
REMARK       I    between atoms: C13_17  and  N3_19 
REMARK    5  A    between atoms: N3_19  and  C14_21 
REMARK    6  A    between atoms: C14_21  and  C15_22 
REMARK    7  A    between atoms: C15_22  and  C16_23 
ROOT
HETATM    1  N2  UNL     1      -0.904   1.055  20.563  1.00  0.00    -0.339 N 
ATOM      2  H2  UNL     1      -0.987   0.489  19.719  1.00  0.00     0.164 HD
HETATM    3  C13 UNL     1      -2.080   1.604  21.119  1.00  0.00     0.316 C 
HETATM    4  O2  UNL     1      -2.063   2.320  22.168  1.00  0.00    -0.247 OA
HETATM    5  N3  UNL     1      -3.322   1.362  20.506  1.00  0.00    -0.343 N 
ATOM      6  H3  UNL     1      -3.374   0.792  19.662  1.00  0.00     0.164 HD
ENDROOT
BRANCH   1   7
HETATM    7  C12 UNL     1       0.411   1.256  21.129  1.00  0.00     0.086 C 
HETATM    8  C11 UNL     1       1.333   0.096  21.007  1.00  0.00     0.027 C 
HETATM    9  C10 UNL     1       1.941  -0.109  19.668  1.00  0.00     0.027 C 
HETATM   10  C9  UNL     1       1.875   1.030  18.712  1.00  0.00     0.087 C 
HETATM   11  C26 UNL     1       1.707   2.390  19.280  1.00  0.00     0.027 C 
HETATM   12  C25 UNL     1       1.063   2.487  20.616  1.00  0.00     0.027 C 
BRANCH  10  13
HETATM   13  N1  UNL     1       3.001   1.034  17.802  1.00  0.00    -0.347 N 
HETATM   14  C3  UNL     1       2.898   1.362  16.443  1.00  0.00     0.225 C 
HETATM   15  O1  UNL     1       4.001   1.328  15.771  1.00  0.00    -0.273 OA
BRANCH  13  16
HETATM   16  C2  UNL     1       4.307   0.682  18.336  1.00  0.00     0.122 C 
HETATM   17  C1  UNL     1       4.971   1.864  19.006  1.00  0.00     0.026 C 
ENDBRANCH  13  16
BRANCH  14  18
HETATM   18  C4  UNL     1       1.652   1.739  15.719  1.00  0.00     0.086 A 
HETATM   19  C5  UNL     1       1.446   3.255  15.693  1.00  0.00     0.024 A 
HETATM   20  C6  UNL     1       1.710   2.501  14.449  1.00  0.00    -0.035 A 
HETATM   21  C7  UNL     1       0.464   2.343  13.564  1.00  0.00     0.015 C 
HETATM   22  C8  UNL     1       2.995   2.622  13.700  1.00  0.00     0.015 C 
ENDBRANCH  14  18
ENDBRANCH  10  13
ENDBRANCH   1   7
BRANCH   5  23
HETATM   23  C14 UNL     1      -4.523   1.923  21.077  1.00  0.00     0.125 C 
BRANCH  23  24
HETATM   24  C15 UNL     1      -4.816   3.242  20.451  1.00  0.00     0.029 C 
BRANCH  24  25
HETATM   25  C16 UNL     1      -5.163   4.280  21.466  1.00  0.00    -0.035 C 
HETATM   26  C17 UNL     1      -3.982   5.228  21.724  1.00  0.00     0.014 C 
HETATM   27  C18 UNL     1      -4.356   5.711  23.132  1.00  0.00    -0.013 C 
HETATM   28  C19 UNL     1      -5.618   6.504  23.011  1.00  0.00     0.009 C 
HETATM   29  C23 UNL     1      -4.582   4.362  23.813  1.00  0.00     0.010 C 
HETATM   30  C20 UNL     1      -6.742   5.707  22.411  1.00  0.00    -0.013 C 
HETATM   31  C21 UNL     1      -6.913   4.362  23.131  1.00  0.00     0.010 C 
HETATM   32  C24 UNL     1      -6.293   5.188  21.035  1.00  0.00     0.014 C 
HETATM   33  C22 UNL     1      -5.553   3.729  22.807  1.00  0.00    -0.005 C 
ENDBRANCH  24  25
ENDBRANCH  23  24
ENDBRANCH   5  23
TORSDOF 7
ENDMDL
