MODEL 1
REMARK VINA RESULT: -7.286211735      0.000      0.000
REMARK  7 active torsions:
REMARK  status: ('A' for Active; 'I' for Inactive)
REMARK    1  A    between atoms: C9_9  and  C10_10 
REMARK       I    between atoms: C10_10  and  N1_12 
REMARK    2  A    between atoms: N1_12  and  C11_14 
REMARK    3  A    between atoms: C11_14  and  C12_15 
REMARK    4  A    between atoms: C12_15  and  C13_16 
REMARK    5  A    between atoms: C13_16  and  C14_17 
REMARK    6  A    between atoms: C14_17  and  N2_18 
REMARK       I    between atoms: N2_18  and  C15_20 
REMARK    7  A    between atoms: C15_20  and  C16_22 
ROOT
HETATM    1  C12 UNL     1       1.176  -0.460  22.095  1.00  0.00     0.021 C 
ENDROOT
BRANCH   1   2
HETATM    2  C11 UNL     1      -0.282  -0.270  21.780  1.00  0.00     0.122 C 
BRANCH   2   3
HETATM    3  N1  UNL     1      -0.685   1.029  22.272  1.00  0.00    -0.360 N 
HETATM    4  C10 UNL     1      -0.899   2.138  21.404  1.00  0.00     0.226 C 
HETATM    5  O1  UNL     1      -0.728   1.967  20.177  1.00  0.00    -0.273 OA
ATOM      6  H1  UNL     1      -0.822   1.155  23.276  1.00  0.00     0.162 HD
BRANCH   4   7
HETATM    7  C9  UNL     1      -1.311   3.467  21.895  1.00  0.00     0.042 C 
HETATM    8  C8  UNL     1      -0.579   3.790  23.155  1.00  0.00     0.024 C 
HETATM    9  C7  UNL     1      -1.017   5.123  23.729  1.00  0.00    -0.009 C 
HETATM   10  C2  UNL     1      -2.490   5.048  24.006  1.00  0.00    -0.010 C 
HETATM   11  C6  UNL     1      -0.675   6.184  22.712  1.00  0.00     0.010 C 
HETATM   12  C1  UNL     1      -3.026   6.210  24.777  1.00  0.00     0.011 C 
HETATM   13  C3  UNL     1      -3.207   4.826  22.701  1.00  0.00    -0.009 C 
HETATM   14  C4  UNL     1      -2.879   5.919  21.717  1.00  0.00     0.010 C 
HETATM   15  C27 UNL     1      -2.807   3.511  22.114  1.00  0.00     0.024 C 
HETATM   16  C5  UNL     1      -1.386   5.872  21.429  1.00  0.00    -0.013 C 
HETATM   17  C26 UNL     1      -0.983   4.539  20.877  1.00  0.00     0.024 C 
ENDBRANCH   4   7
ENDBRANCH   2   3
ENDBRANCH   1   2
BRANCH   1  18
HETATM   18  C13 UNL     1       2.089   0.059  21.006  1.00  0.00     0.021 C 
BRANCH  18  19
HETATM   19  C14 UNL     1       1.727  -0.454  19.654  1.00  0.00     0.122 C 
BRANCH  19  20
HETATM   20  N2  UNL     1       1.743   0.614  18.680  1.00  0.00    -0.360 N 
HETATM   21  C15 UNL     1       2.878   1.017  17.934  1.00  0.00     0.226 C 
HETATM   22  O2  UNL     1       4.009   0.479  18.046  1.00  0.00    -0.273 OA
ATOM     23  H2  UNL     1       0.870   1.116  18.517  1.00  0.00     0.162 HD
BRANCH  21  24
HETATM   24  C16 UNL     1       2.745   2.132  16.963  1.00  0.00     0.042 C 
HETATM   25  C17 UNL     1       1.265   2.358  16.748  1.00  0.00     0.024 C 
HETATM   26  C18 UNL     1       1.021   3.506  15.790  1.00  0.00    -0.013 C 
HETATM   27  C19 UNL     1       1.640   4.736  16.403  1.00  0.00     0.009 C 
HETATM   28  C23 UNL     1       1.640   3.148  14.468  1.00  0.00     0.009 C 
HETATM   29  C20 UNL     1       3.117   4.507  16.519  1.00  0.00    -0.013 C 
HETATM   30  C21 UNL     1       3.754   4.147  15.192  1.00  0.00     0.009 C 
HETATM   31  C25 UNL     1       3.383   3.400  17.484  1.00  0.00     0.024 C 
HETATM   32  C22 UNL     1       3.121   2.893  14.682  1.00  0.00    -0.013 C 
HETATM   33  C24 UNL     1       3.345   1.762  15.639  1.00  0.00     0.024 C 
ENDBRANCH  21  24
ENDBRANCH  19  20
ENDBRANCH  18  19
ENDBRANCH   1  18
TORSDOF 7
ENDMDL
MODEL 2
REMARK VINA RESULT: -7.281964506      0.563      1.508
REMARK  7 active torsions:
REMARK  status: ('A' for Active; 'I' for Inactive)
REMARK    1  A    between atoms: C9_9  and  C10_10 
REMARK       I    between atoms: C10_10  and  N1_12 
REMARK    2  A    between atoms: N1_12  and  C11_14 
REMARK    3  A    between atoms: C11_14  and  C12_15 
REMARK    4  A    between atoms: C12_15  and  C13_16 
REMARK    5  A    between atoms: C13_16  and  C14_17 
REMARK    6  A    between atoms: C14_17  and  N2_18 
REMARK       I    between atoms: N2_18  and  C15_20 
REMARK    7  A    between atoms: C15_20  and  C16_22 
ROOT
HETATM    1  C12 UNL     1       1.193  -0.471  21.998  1.00  0.00     0.021 C 
ENDROOT
BRANCH   1   2
HETATM    2  C11 UNL     1      -0.303  -0.381  21.886  1.00  0.00     0.122 C 
BRANCH   2   3
HETATM    3  N1  UNL     1      -0.713   0.934  22.326  1.00  0.00    -0.360 N 
HETATM    4  C10 UNL     1      -0.805   2.040  21.433  1.00  0.00     0.226 C 
HETATM    5  O1  UNL     1      -0.519   1.851  20.229  1.00  0.00    -0.273 OA
ATOM      6  H1  UNL     1      -0.943   1.075  23.310  1.00  0.00     0.162 HD
BRANCH   4   7
HETATM    7  C9  UNL     1      -1.221   3.386  21.870  1.00  0.00     0.042 C 
HETATM    8  C8  UNL     1      -0.532   3.739  23.146  1.00  0.00     0.024 C 
HETATM    9  C7  UNL     1      -0.977   5.092  23.666  1.00  0.00    -0.009 C 
HETATM   10  C2  UNL     1      -2.460   5.038  23.891  1.00  0.00    -0.010 C 
HETATM   11  C6  UNL     1      -0.589   6.120  22.632  1.00  0.00     0.010 C 
HETATM   12  C1  UNL     1      -3.012   6.226  24.608  1.00  0.00     0.011 C 
HETATM   13  C3  UNL     1      -3.132   4.784  22.567  1.00  0.00    -0.009 C 
HETATM   14  C4  UNL     1      -2.758   5.846  21.565  1.00  0.00     0.010 C 
HETATM   15  C27 UNL     1      -2.724   3.449  22.033  1.00  0.00     0.024 C 
HETATM   16  C5  UNL     1      -1.256   5.778  21.333  1.00  0.00    -0.013 C 
HETATM   17  C26 UNL     1      -0.846   4.426  20.834  1.00  0.00     0.024 C 
ENDBRANCH   4   7
ENDBRANCH   2   3
ENDBRANCH   1   2
BRANCH   1  18
HETATM   18  C13 UNL     1       1.888  -0.480  20.654  1.00  0.00     0.021 C 
BRANCH  18  19
HETATM   19  C14 UNL     1       2.856   0.643  20.495  1.00  0.00     0.122 C 
BRANCH  19  20
HETATM   20  N2  UNL     1       2.606   1.365  19.268  1.00  0.00    -0.360 N 
HETATM   21  C15 UNL     1       3.296   1.157  18.048  1.00  0.00     0.226 C 
HETATM   22  O2  UNL     1       4.213   0.309  17.904  1.00  0.00    -0.273 OA
ATOM     23  H2  UNL     1       1.878   2.079  19.282  1.00  0.00     0.162 HD
BRANCH  21  24
HETATM   24  C16 UNL     1       2.929   1.973  16.864  1.00  0.00     0.042 C 
HETATM   25  C17 UNL     1       3.778   1.488  15.711  1.00  0.00     0.024 C 
HETATM   26  C18 UNL     1       3.454   2.242  14.437  1.00  0.00    -0.013 C 
HETATM   27  C19 UNL     1       1.998   2.000  14.135  1.00  0.00     0.009 C 
HETATM   28  C23 UNL     1       3.761   3.696  14.668  1.00  0.00     0.009 C 
HETATM   29  C20 UNL     1       1.186   2.574  15.258  1.00  0.00    -0.013 C 
HETATM   30  C21 UNL     1       1.484   4.039  15.500  1.00  0.00     0.009 C 
HETATM   31  C25 UNL     1       1.465   1.822  16.517  1.00  0.00     0.024 C 
HETATM   32  C22 UNL     1       2.931   4.183  15.843  1.00  0.00    -0.013 C 
HETATM   33  C24 UNL     1       3.256   3.420  17.091  1.00  0.00     0.024 C 
ENDBRANCH  21  24
ENDBRANCH  19  20
ENDBRANCH  18  19
ENDBRANCH   1  18
TORSDOF 7
ENDMDL
MODEL 3
REMARK VINA RESULT: -7.245712119      0.537      1.360
REMARK  7 active torsions:
REMARK  status: ('A' for Active; 'I' for Inactive)
REMARK    1  A    between atoms: C9_9  and  C10_10 
REMARK       I    between atoms: C10_10  and  N1_12 
REMARK    2  A    between atoms: N1_12  and  C11_14 
REMARK    3  A    between atoms: C11_14  and  C12_15 
REMARK    4  A    between atoms: C12_15  and  C13_16 
REMARK    5  A    between atoms: C13_16  and  C14_17 
REMARK    6  A    between atoms: C14_17  and  N2_18 
REMARK       I    between atoms: N2_18  and  C15_20 
REMARK    7  A    between atoms: C15_20  and  C16_22 
ROOT
HETATM    1  C12 UNL     1       1.201  -0.452  21.988  1.00  0.00     0.021 C 
ENDROOT
BRANCH   1   2
HETATM    2  C11 UNL     1      -0.297  -0.353  21.902  1.00  0.00     0.122 C 
BRANCH   2   3
HETATM    3  N1  UNL     1      -0.689   0.967  22.345  1.00  0.00    -0.360 N 
HETATM    4  C10 UNL     1      -0.808   2.066  21.447  1.00  0.00     0.226 C 
HETATM    5  O1  UNL     1      -0.559   1.868  20.236  1.00  0.00    -0.273 OA
ATOM      6  H1  UNL     1      -0.889   1.115  23.334  1.00  0.00     0.162 HD
BRANCH   4   7
HETATM    7  C9  UNL     1      -1.207   3.416  21.887  1.00  0.00     0.042 C 
HETATM    8  C8  UNL     1      -0.516   3.757  23.165  1.00  0.00     0.024 C 
HETATM    9  C7  UNL     1      -0.945   5.114  23.687  1.00  0.00    -0.009 C 
HETATM   10  C2  UNL     1      -2.429   5.078  23.910  1.00  0.00    -0.010 C 
HETATM   11  C6  UNL     1      -0.542   6.140  22.657  1.00  0.00     0.010 C 
HETATM   12  C1  UNL     1      -2.967   6.271  24.629  1.00  0.00     0.011 C 
HETATM   13  C3  UNL     1      -3.102   4.836  22.585  1.00  0.00    -0.009 C 
HETATM   14  C4  UNL     1      -2.713   5.895  21.585  1.00  0.00     0.010 C 
HETATM   15  C27 UNL     1      -2.709   3.498  22.047  1.00  0.00     0.024 C 
HETATM   16  C5  UNL     1      -1.212   5.809  21.355  1.00  0.00    -0.013 C 
HETATM   17  C26 UNL     1      -0.818   4.454  20.854  1.00  0.00     0.024 C 
ENDBRANCH   4   7
ENDBRANCH   2   3
ENDBRANCH   1   2
BRANCH   1  18
HETATM   18  C13 UNL     1       1.873  -0.458  20.633  1.00  0.00     0.021 C 
BRANCH  18  19
HETATM   19  C14 UNL     1       2.818   0.681  20.450  1.00  0.00     0.122 C 
BRANCH  19  20
HETATM   20  N2  UNL     1       2.569   1.357  19.196  1.00  0.00    -0.360 N 
HETATM   21  C15 UNL     1       3.297   1.144  18.000  1.00  0.00     0.226 C 
HETATM   22  O2  UNL     1       4.253   0.333  17.904  1.00  0.00    -0.273 OA
ATOM     23  H2  UNL     1       1.811   2.039  19.172  1.00  0.00     0.162 HD
BRANCH  21  24
HETATM   24  C16 UNL     1       2.927   1.910  16.784  1.00  0.00     0.042 C 
HETATM   25  C17 UNL     1       3.150   3.373  17.097  1.00  0.00     0.024 C 
HETATM   26  C18 UNL     1       2.829   4.243  15.898  1.00  0.00    -0.013 C 
HETATM   27  C19 UNL     1       3.744   3.816  14.780  1.00  0.00     0.009 C 
HETATM   28  C23 UNL     1       1.377   4.051  15.560  1.00  0.00     0.009 C 
HETATM   29  C20 UNL     1       3.431   2.389  14.440  1.00  0.00    -0.013 C 
HETATM   30  C21 UNL     1       1.971   2.182  14.096  1.00  0.00     0.009 C 
HETATM   31  C25 UNL     1       3.772   1.508  15.596  1.00  0.00     0.024 C 
HETATM   32  C22 UNL     1       1.140   2.579  15.272  1.00  0.00    -0.013 C 
HETATM   33  C24 UNL     1       1.472   1.732  16.463  1.00  0.00     0.024 C 
ENDBRANCH  21  24
ENDBRANCH  19  20
ENDBRANCH  18  19
ENDBRANCH   1  18
TORSDOF 7
ENDMDL
MODEL 4
REMARK VINA RESULT: -7.211898343      2.352      7.299
REMARK  7 active torsions:
REMARK  status: ('A' for Active; 'I' for Inactive)
REMARK    1  A    between atoms: C9_9  and  C10_10 
REMARK       I    between atoms: C10_10  and  N1_12 
REMARK    2  A    between atoms: N1_12  and  C11_14 
REMARK    3  A    between atoms: C11_14  and  C12_15 
REMARK    4  A    between atoms: C12_15  and  C13_16 
REMARK    5  A    between atoms: C13_16  and  C14_17 
REMARK    6  A    between atoms: C14_17  and  N2_18 
REMARK       I    between atoms: N2_18  and  C15_20 
REMARK    7  A    between atoms: C15_20  and  C16_22 
ROOT
HETATM    1  C12 UNL     1       0.507   6.248  16.362  1.00  0.00     0.021 C 
ENDROOT
BRANCH   1   2
HETATM    2  C11 UNL     1       1.654   5.741  17.192  1.00  0.00     0.122 C 
BRANCH   2   3
HETATM    3  N1  UNL     1       1.218   4.548  17.884  1.00  0.00    -0.360 N 
HETATM    4  C10 UNL     1       2.098   3.460  18.151  1.00  0.00     0.226 C 
HETATM    5  O1  UNL     1       3.285   3.553  17.766  1.00  0.00    -0.273 OA
ATOM      6  H1  UNL     1       0.248   4.484  18.192  1.00  0.00     0.162 HD
BRANCH   4   7
HETATM    7  C9  UNL     1       1.664   2.238  18.856  1.00  0.00     0.042 C 
HETATM    8  C8  UNL     1       0.449   2.529  19.671  1.00  0.00     0.024 C 
HETATM    9  C7  UNL     1       0.003   1.315  20.462  1.00  0.00    -0.009 C 
HETATM   10  C2  UNL     1       1.132   0.910  21.365  1.00  0.00    -0.010 C 
HETATM   11  C6  UNL     1      -0.354   0.237  19.469  1.00  0.00     0.010 C 
HETATM   12  C1  UNL     1       0.767  -0.138  22.365  1.00  0.00     0.011 C 
HETATM   13  C3  UNL     1       2.309   0.523  20.510  1.00  0.00    -0.009 C 
HETATM   14  C4  UNL     1       1.936  -0.580  19.553  1.00  0.00     0.010 C 
HETATM   15  C27 UNL     1       2.782   1.704  19.725  1.00  0.00     0.024 C 
HETATM   16  C5  UNL     1       0.849  -0.062  18.624  1.00  0.00    -0.013 C 
HETATM   17  C26 UNL     1       1.314   1.145  17.868  1.00  0.00     0.024 C 
ENDBRANCH   4   7
ENDBRANCH   2   3
ENDBRANCH   1   2
BRANCH   1  18
HETATM   18  C13 UNL     1      -0.799   5.551  16.667  1.00  0.00     0.021 C 
BRANCH  18  19
HETATM   19  C14 UNL     1      -1.755   6.414  17.419  1.00  0.00     0.122 C 
BRANCH  19  20
HETATM   20  N2  UNL     1      -2.049   5.845  18.715  1.00  0.00    -0.360 N 
HETATM   21  C15 UNL     1      -1.290   6.065  19.891  1.00  0.00     0.226 C 
HETATM   22  O2  UNL     1      -0.263   6.790  19.929  1.00  0.00    -0.273 OA
ATOM     23  H2  UNL     1      -2.866   5.238  18.788  1.00  0.00     0.162 HD
BRANCH  21  24
HETATM   24  C16 UNL     1      -1.714   5.415  21.156  1.00  0.00     0.042 C 
HETATM   25  C17 UNL     1      -2.536   4.204  20.777  1.00  0.00     0.024 C 
HETATM   26  C18 UNL     1      -2.993   3.447  22.008  1.00  0.00    -0.013 C 
HETATM   27  C19 UNL     1      -1.755   3.011  22.748  1.00  0.00     0.009 C 
HETATM   28  C23 UNL     1      -3.858   4.366  22.824  1.00  0.00     0.009 C 
HETATM   29  C20 UNL     1      -1.014   4.240  23.182  1.00  0.00    -0.013 C 
HETATM   30  C21 UNL     1      -1.874   5.175  24.007  1.00  0.00     0.009 C 
HETATM   31  C25 UNL     1      -0.525   4.985  21.985  1.00  0.00     0.024 C 
HETATM   32  C22 UNL     1      -3.047   5.598  23.184  1.00  0.00    -0.013 C 
HETATM   33  C24 UNL     1      -2.594   6.329  21.957  1.00  0.00     0.024 C 
ENDBRANCH  21  24
ENDBRANCH  19  20
ENDBRANCH  18  19
ENDBRANCH   1  18
TORSDOF 7
ENDMDL
MODEL 5
REMARK VINA RESULT: -7.175678246      2.549      7.344
REMARK  7 active torsions:
REMARK  status: ('A' for Active; 'I' for Inactive)
REMARK    1  A    between atoms: C9_9  and  C10_10 
REMARK       I    between atoms: C10_10  and  N1_12 
REMARK    2  A    between atoms: N1_12  and  C11_14 
REMARK    3  A    between atoms: C11_14  and  C12_15 
REMARK    4  A    between atoms: C12_15  and  C13_16 
REMARK    5  A    between atoms: C13_16  and  C14_17 
REMARK    6  A    between atoms: C14_17  and  N2_18 
REMARK       I    between atoms: N2_18  and  C15_20 
REMARK    7  A    between atoms: C15_20  and  C16_22 
ROOT
HETATM    1  C12 UNL     1      -1.501   6.073  16.808  1.00  0.00     0.021 C 
ENDROOT
BRANCH   1   2
HETATM    2  C11 UNL     1      -0.182   5.370  16.641  1.00  0.00     0.122 C 
BRANCH   2   3
HETATM    3  N1  UNL     1      -0.248   4.110  17.348  1.00  0.00    -0.360 N 
HETATM    4  C10 UNL     1       0.807   3.654  18.189  1.00  0.00     0.226 C 
HETATM    5  O1  UNL     1       1.819   4.380  18.311  1.00  0.00    -0.273 OA
ATOM      6  H1  UNL     1      -1.079   3.527  17.239  1.00  0.00     0.162 HD
BRANCH   4   7
HETATM    7  C9  UNL     1       0.751   2.370  18.914  1.00  0.00     0.042 C 
HETATM    8  C8  UNL     1      -0.467   2.329  19.775  1.00  0.00     0.024 C 
HETATM    9  C7  UNL     1      -0.534   1.050  20.587  1.00  0.00    -0.009 C 
HETATM   10  C2  UNL     1       0.695   0.981  21.446  1.00  0.00    -0.010 C 
HETATM   11  C6  UNL     1      -0.619  -0.098  19.611  1.00  0.00     0.010 C 
HETATM   12  C1  UNL     1       0.668  -0.113  22.463  1.00  0.00     0.011 C 
HETATM   13  C3  UNL     1       1.901   0.919  20.546  1.00  0.00    -0.009 C 
HETATM   14  C4  UNL     1       1.809  -0.257  19.608  1.00  0.00     0.010 C 
HETATM   15  C27 UNL     1       2.003   2.174  19.740  1.00  0.00     0.024 C 
HETATM   16  C5  UNL     1       0.588  -0.068  18.720  1.00  0.00    -0.013 C 
HETATM   17  C26 UNL     1       0.677   1.210  17.943  1.00  0.00     0.024 C 
ENDBRANCH   4   7
ENDBRANCH   2   3
ENDBRANCH   1   2
BRANCH   1  18
HETATM   18  C13 UNL     1      -2.689   5.171  16.559  1.00  0.00     0.021 C 
BRANCH  18  19
HETATM   19  C14 UNL     1      -3.712   5.250  17.641  1.00  0.00     0.122 C 
BRANCH  19  20
HETATM   20  N2  UNL     1      -3.088   5.502  18.920  1.00  0.00    -0.360 N 
HETATM   21  C15 UNL     1      -3.296   4.733  20.092  1.00  0.00     0.226 C 
HETATM   22  O2  UNL     1      -4.059   3.735  20.141  1.00  0.00    -0.273 OA
ATOM     23  H2  UNL     1      -2.449   6.294  18.984  1.00  0.00     0.162 HD
BRANCH  21  24
HETATM   24  C16 UNL     1      -2.582   5.108  21.337  1.00  0.00     0.042 C 
HETATM   25  C17 UNL     1      -2.561   3.883  22.223  1.00  0.00     0.024 C 
HETATM   26  C18 UNL     1      -1.820   4.155  23.516  1.00  0.00    -0.013 C 
HETATM   27  C19 UNL     1      -0.411   4.543  23.150  1.00  0.00     0.009 C 
HETATM   28  C23 UNL     1      -2.548   5.250  24.246  1.00  0.00     0.009 C 
HETATM   29  C20 UNL     1      -0.469   5.809  22.348  1.00  0.00    -0.013 C 
HETATM   30  C21 UNL     1      -1.198   6.922  23.073  1.00  0.00     0.009 C 
HETATM   31  C25 UNL     1      -1.166   5.555  21.052  1.00  0.00     0.024 C 
HETATM   32  C22 UNL     1      -2.597   6.476  23.351  1.00  0.00    -0.013 C 
HETATM   33  C24 UNL     1      -3.323   6.186  22.072  1.00  0.00     0.024 C 
ENDBRANCH  21  24
ENDBRANCH  19  20
ENDBRANCH  18  19
ENDBRANCH   1  18
TORSDOF 7
ENDMDL
