MODEL 1
REMARK VINA RESULT: -4.581124619      0.000      0.000
REMARK  1 active torsions:
REMARK  status: ('A' for Active; 'I' for Inactive)
REMARK    1  A    between atoms: C5_7  and  C6_8 
ROOT
HETATM    1  O1  UNL     1       5.992   2.110  10.236  1.00  0.00    -0.297 OA
HETATM    2  C1  UNL     1       6.449   1.534  11.188  1.00  0.00     0.141 C 
HETATM    3  C2  UNL     1       6.102   1.985  12.550  1.00  0.00     0.080 C 
HETATM    4  C3  UNL     1       5.143   0.968  13.133  1.00  0.00     0.018 C 
HETATM    5  C4  UNL     1       5.880  -0.329  13.393  1.00  0.00     0.075 C 
HETATM    6  S1  UNL     1       6.561  -1.032  11.862  1.00  0.00    -0.156 SA
HETATM    7  C5  UNL     1       7.352   0.384  11.000  1.00  0.00     0.126 C 
ENDROOT
BRANCH   7   8
HETATM    8  C6  UNL     1       7.499   0.102   9.540  1.00  0.00     0.109 C 
HETATM    9  S2  UNL     1       8.623  -1.286   9.224  1.00  0.00    -0.096 SA
ENDBRANCH   7   8
TORSDOF 1
ENDMDL
MODEL 2
REMARK VINA RESULT: -4.231643893      3.045      5.076
REMARK  1 active torsions:
REMARK  status: ('A' for Active; 'I' for Inactive)
REMARK    1  A    between atoms: C5_7  and  C6_8 
ROOT
HETATM    1  O1  UNL     1       9.322  -2.058   9.567  1.00  0.00    -0.297 OA
HETATM    2  C1  UNL     1       8.772  -1.356   8.759  1.00  0.00     0.141 C 
HETATM    3  C2  UNL     1       9.022  -1.564   7.320  1.00  0.00     0.080 C 
HETATM    4  C3  UNL     1       7.782  -2.208   6.734  1.00  0.00     0.018 C 
HETATM    5  C4  UNL     1       6.647  -1.207   6.731  1.00  0.00     0.075 C 
HETATM    6  S1  UNL     1       6.234  -0.654   8.411  1.00  0.00    -0.156 SA
HETATM    7  C5  UNL     1       7.852  -0.292   9.203  1.00  0.00     0.126 C 
ENDROOT
BRANCH   7   8
HETATM    8  C6  UNL     1       7.735  -0.325  10.691  1.00  0.00     0.109 C 
HETATM    9  S2  UNL     1       6.753   1.060  11.328  1.00  0.00    -0.096 SA
ENDBRANCH   7   8
TORSDOF 1
ENDMDL
MODEL 3
REMARK VINA RESULT: -4.155439140      2.952      3.763
REMARK  1 active torsions:
REMARK  status: ('A' for Active; 'I' for Inactive)
REMARK    1  A    between atoms: C5_7  and  C6_8 
ROOT
HETATM    1  O1  UNL     1       9.400  -1.661  10.004  1.00  0.00    -0.297 OA
HETATM    2  C1  UNL     1       8.286  -1.284   9.750  1.00  0.00     0.141 C 
HETATM    3  C2  UNL     1       7.376  -0.900  10.847  1.00  0.00     0.080 C 
HETATM    4  C3  UNL     1       7.261   0.610  10.830  1.00  0.00     0.018 C 
HETATM    5  C4  UNL     1       6.495   1.045   9.599  1.00  0.00     0.075 C 
HETATM    6  S1  UNL     1       7.339   0.543   8.070  1.00  0.00    -0.156 SA
HETATM    7  C5  UNL     1       7.828  -1.206   8.350  1.00  0.00     0.126 C 
ENDROOT
BRANCH   7   8
HETATM    8  C6  UNL     1       8.946  -1.597   7.440  1.00  0.00     0.109 C 
HETATM    9  S2  UNL     1       8.700  -0.975   5.754  1.00  0.00    -0.096 SA
ENDBRANCH   7   8
TORSDOF 1
ENDMDL
MODEL 4
REMARK VINA RESULT: -4.115784980      1.087      1.087
REMARK  1 active torsions:
REMARK  status: ('A' for Active; 'I' for Inactive)
REMARK    1  A    between atoms: C5_7  and  C6_8 
ROOT
HETATM    1  O1  UNL     1       5.952   2.519   9.861  1.00  0.00    -0.297 OA
HETATM    2  C1  UNL     1       6.531   1.881  10.700  1.00  0.00     0.141 C 
HETATM    3  C2  UNL     1       6.379   2.238  12.124  1.00  0.00     0.080 C 
HETATM    4  C3  UNL     1       5.502   1.181  12.763  1.00  0.00     0.018 C 
HETATM    5  C4  UNL     1       6.258  -0.129  12.830  1.00  0.00     0.075 C 
HETATM    6  S1  UNL     1       6.717  -0.725  11.176  1.00  0.00    -0.156 SA
HETATM    7  C5  UNL     1       7.392   0.748  10.311  1.00  0.00     0.126 C 
ENDROOT
BRANCH   7   8
HETATM    8  C6  UNL     1       7.335   0.568   8.829  1.00  0.00     0.109 C 
HETATM    9  S2  UNL     1       6.205  -0.768   8.350  1.00  0.00    -0.096 SA
ENDBRANCH   7   8
TORSDOF 1
ENDMDL
MODEL 5
REMARK VINA RESULT: -4.109817803      2.169      2.620
REMARK  1 active torsions:
REMARK  status: ('A' for Active; 'I' for Inactive)
REMARK    1  A    between atoms: C5_7  and  C6_8 
ROOT
HETATM    1  O1  UNL     1       8.076  -1.747  10.834  1.00  0.00    -0.297 OA
HETATM    2  C1  UNL     1       7.117  -1.022  10.883  1.00  0.00     0.141 C 
HETATM    3  C2  UNL     1       6.294  -0.981  12.107  1.00  0.00     0.080 C 
HETATM    4  C3  UNL     1       6.589   0.330  12.807  1.00  0.00     0.018 C 
HETATM    5  C4  UNL     1       6.025   1.474  11.992  1.00  0.00     0.075 C 
HETATM    6  S1  UNL     1       6.774   1.555  10.338  1.00  0.00    -0.156 SA
HETATM    7  C5  UNL     1       6.762  -0.178   9.727  1.00  0.00     0.126 C 
ENDROOT
BRANCH   7   8
HETATM    8  C6  UNL     1       7.774  -0.367   8.645  1.00  0.00     0.109 C 
HETATM    9  S2  UNL     1       7.160  -1.439   7.317  1.00  0.00    -0.096 SA
ENDBRANCH   7   8
TORSDOF 1
ENDMDL
