MODEL 1
REMARK VINA RESULT: -4.755279375      0.000      0.000
REMARK  2 active torsions:
REMARK  status: ('A' for Active; 'I' for Inactive)
REMARK    1  A    between atoms: O1_2  and  C2_3 
REMARK    2  A    between atoms: C2_3  and  C3_5 
ROOT
HETATM    1  C3  UNL     1       8.961  -1.764   7.909  1.00  0.00     0.118 C 
HETATM    2  C4  UNL     1       8.270  -1.272   8.926  1.00  0.00     0.071 C 
HETATM    3  N1  UNL     1       8.512  -1.316  10.325  1.00  0.00    -0.383 N 
ATOM      4  H1  UNL     1       9.446  -1.372  10.730  1.00  0.00     0.160 HD
HETATM    5  C5  UNL     1       7.320  -1.275  11.107  1.00  0.00     0.135 C 
HETATM    6  C6  UNL     1       6.451  -0.120  10.593  1.00  0.00     0.067 C 
HETATM    7  C7  UNL     1       7.060   1.152  11.077  1.00  0.00     0.023 C 
HETATM    8  S1  UNL     1       6.724  -0.343   8.787  1.00  0.00    -0.106 SA
ENDROOT
BRANCH   1   9
HETATM    9  C2  UNL     1       8.489  -1.577   6.550  1.00  0.00     0.285 C 
HETATM   10  O2  UNL     1       7.614  -2.335   6.074  1.00  0.00    -0.260 OA
BRANCH   9  11
HETATM   11  O1  UNL     1       8.981  -0.567   5.740  1.00  0.00    -0.323 OA
HETATM   12  C1  UNL     1      10.167  -0.751   5.011  1.00  0.00     0.213 C 
ENDBRANCH   9  11
ENDBRANCH   1   9
TORSDOF 2
ENDMDL
MODEL 2
REMARK VINA RESULT: -4.752378876      2.385      3.106
REMARK  2 active torsions:
REMARK  status: ('A' for Active; 'I' for Inactive)
REMARK    1  A    between atoms: O1_2  and  C2_3 
REMARK    2  A    between atoms: C2_3  and  C3_5 
ROOT
HETATM    1  C3  UNL     1       7.072  -1.270  10.397  1.00  0.00     0.118 C 
HETATM    2  C4  UNL     1       6.839  -0.140  11.046  1.00  0.00     0.071 C 
HETATM    3  N1  UNL     1       6.573   0.108  12.419  1.00  0.00    -0.383 N 
ATOM      4  H1  UNL     1       6.922  -0.483  13.172  1.00  0.00     0.160 HD
HETATM    5  C5  UNL     1       5.768   1.265  12.640  1.00  0.00     0.135 C 
HETATM    6  C6  UNL     1       6.367   2.424  11.833  1.00  0.00     0.067 C 
HETATM    7  C7  UNL     1       7.591   2.885  12.546  1.00  0.00     0.023 C 
HETATM    8  S1  UNL     1       6.796   1.507  10.297  1.00  0.00    -0.106 SA
ENDROOT
BRANCH   1   9
HETATM    9  C2  UNL     1       7.320  -1.250   8.967  1.00  0.00     0.285 C 
HETATM   10  O2  UNL     1       8.491  -1.199   8.529  1.00  0.00    -0.260 OA
BRANCH   9  11
HETATM   11  O1  UNL     1       6.284  -1.284   8.047  1.00  0.00    -0.323 OA
HETATM   12  C1  UNL     1       6.405  -2.035   6.867  1.00  0.00     0.213 C 
ENDBRANCH   9  11
ENDBRANCH   1   9
TORSDOF 2
ENDMDL
MODEL 3
REMARK VINA RESULT: -4.740689075      2.088      2.923
REMARK  2 active torsions:
REMARK  status: ('A' for Active; 'I' for Inactive)
REMARK    1  A    between atoms: O1_2  and  C2_3 
REMARK    2  A    between atoms: C2_3  and  C3_5 
ROOT
HETATM    1  C3  UNL     1       6.992  -1.230  10.501  1.00  0.00     0.118 C 
HETATM    2  C4  UNL     1       6.792  -0.069  11.105  1.00  0.00     0.071 C 
HETATM    3  N1  UNL     1       6.488   0.237  12.458  1.00  0.00    -0.383 N 
ATOM      4  H1  UNL     1       6.780  -0.346  13.243  1.00  0.00     0.160 HD
HETATM    5  C5  UNL     1       5.735   1.438  12.612  1.00  0.00     0.135 C 
HETATM    6  C6  UNL     1       6.419   2.539  11.793  1.00  0.00     0.067 C 
HETATM    7  C7  UNL     1       7.638   2.964  12.538  1.00  0.00     0.023 C 
HETATM    8  S1  UNL     1       6.859   1.553  10.304  1.00  0.00    -0.106 SA
ENDROOT
BRANCH   1   9
HETATM    9  C2  UNL     1       7.293  -1.268   9.081  1.00  0.00     0.285 C 
HETATM   10  O2  UNL     1       6.369  -1.327   8.240  1.00  0.00    -0.260 OA
BRANCH   9  11
HETATM   11  O1  UNL     1       8.596  -1.242   8.612  1.00  0.00    -0.323 OA
HETATM   12  C1  UNL     1       8.871  -1.498   7.259  1.00  0.00     0.213 C 
ENDBRANCH   9  11
ENDBRANCH   1   9
TORSDOF 2
ENDMDL
MODEL 4
REMARK VINA RESULT: -4.650170332      0.960      1.744
REMARK  2 active torsions:
REMARK  status: ('A' for Active; 'I' for Inactive)
REMARK    1  A    between atoms: O1_2  and  C2_3 
REMARK    2  A    between atoms: C2_3  and  C3_5 
ROOT
HETATM    1  C3  UNL     1       8.711  -1.508   8.225  1.00  0.00     0.118 C 
HETATM    2  C4  UNL     1       8.074  -0.961   9.248  1.00  0.00     0.071 C 
HETATM    3  N1  UNL     1       8.271  -1.097  10.649  1.00  0.00    -0.383 N 
ATOM      4  H1  UNL     1       9.176  -1.306  11.069  1.00  0.00     0.160 HD
HETATM    5  C5  UNL     1       7.078  -0.913  11.409  1.00  0.00     0.135 C 
HETATM    6  C6  UNL     1       6.400   0.377  10.929  1.00  0.00     0.067 C 
HETATM    7  C7  UNL     1       7.174   1.525  11.480  1.00  0.00     0.023 C 
HETATM    8  S1  UNL     1       6.683   0.190   9.121  1.00  0.00    -0.106 SA
ENDROOT
BRANCH   1   9
HETATM    9  C2  UNL     1       8.305  -1.198   6.866  1.00  0.00     0.285 C 
HETATM   10  O2  UNL     1       8.665  -0.127   6.328  1.00  0.00    -0.260 OA
BRANCH   9  11
HETATM   11  O1  UNL     1       7.516  -2.062   6.126  1.00  0.00    -0.323 OA
HETATM   12  C1  UNL     1       6.198  -2.341   6.522  1.00  0.00     0.213 C 
ENDBRANCH   9  11
ENDBRANCH   1   9
TORSDOF 2
ENDMDL
MODEL 5
REMARK VINA RESULT: -4.615071948      4.024      5.815
REMARK  2 active torsions:
REMARK  status: ('A' for Active; 'I' for Inactive)
REMARK    1  A    between atoms: O1_2  and  C2_3 
REMARK    2  A    between atoms: C2_3  and  C3_5 
ROOT
HETATM    1  C3  UNL     1       6.632   2.362  10.575  1.00  0.00     0.118 C 
HETATM    2  C4  UNL     1       6.943   1.230   9.962  1.00  0.00     0.071 C 
HETATM    3  N1  UNL     1       7.273   0.966   8.605  1.00  0.00    -0.383 N 
ATOM      4  H1  UNL     1       7.717   1.650   7.994  1.00  0.00     0.160 HD
HETATM    5  C5  UNL     1       6.921  -0.350   8.183  1.00  0.00     0.135 C 
HETATM    6  C6  UNL     1       7.446  -1.343   9.227  1.00  0.00     0.067 C 
HETATM    7  C7  UNL     1       8.921  -1.455   9.041  1.00  0.00     0.023 C 
HETATM    8  S1  UNL     1       7.037  -0.395  10.750  1.00  0.00    -0.106 SA
ENDROOT
BRANCH   1   9
HETATM    9  C2  UNL     1       6.332   2.361  11.995  1.00  0.00     0.285 C 
HETATM   10  O2  UNL     1       7.242   2.545  12.834  1.00  0.00    -0.260 OA
BRANCH   9  11
HETATM   11  O1  UNL     1       5.046   2.157  12.468  1.00  0.00    -0.323 OA
HETATM   12  C1  UNL     1       4.791   1.178  13.441  1.00  0.00     0.213 C 
ENDBRANCH   9  11
ENDBRANCH   1   9
TORSDOF 2
ENDMDL
