MODEL 1
REMARK VINA RESULT: -4.421936588      0.000      0.000
REMARK  1 active torsions:
REMARK  status: ('A' for Active; 'I' for Inactive)
REMARK    1  A    between atoms: C2_3  and  C3_4 
ROOT
HETATM    1  N1  UNL     1       5.739  -2.754   6.289  1.00  0.00    -0.194 NA
HETATM    2  C1  UNL     1       6.402  -1.962   6.799  1.00  0.00     0.103 C 
HETATM    3  C2  UNL     1       7.244  -0.987   7.436  1.00  0.00     0.233 C 
HETATM    4  S1  UNL     1       6.602  -0.661   9.097  1.00  0.00    -0.121 SA
HETATM    5  C4  UNL     1       7.828  -1.176  10.259  1.00  0.00     0.087 C 
HETATM    6  C5  UNL     1       9.082  -1.545   9.595  1.00  0.00     0.087 C 
HETATM    7  S2  UNL     1       8.889  -1.628   7.841  1.00  0.00    -0.121 SA
ENDROOT
BRANCH   3   8
HETATM    8  C3  UNL     1       7.325   0.278   6.673  1.00  0.00     0.218 C 
HETATM    9  O1  UNL     1       7.585   1.325   7.319  1.00  0.00    -0.645 OA
HETATM   10  O2  UNL     1       7.134   0.377   5.317  1.00  0.00    -0.645 OA
ENDBRANCH   3   8
TORSDOF 1
ENDMDL
MODEL 2
REMARK VINA RESULT: -4.352262539      2.351      3.005
REMARK  1 active torsions:
REMARK  status: ('A' for Active; 'I' for Inactive)
REMARK    1  A    between atoms: C2_3  and  C3_4 
ROOT
HETATM    1  N1  UNL     1       5.772  -2.271   6.980  1.00  0.00    -0.194 NA
HETATM    2  C1  UNL     1       6.506  -1.678   7.642  1.00  0.00     0.103 C 
HETATM    3  C2  UNL     1       7.409  -0.942   8.484  1.00  0.00     0.233 C 
HETATM    4  S1  UNL     1       7.421   0.788   7.948  1.00  0.00    -0.121 SA
HETATM    5  C4  UNL     1       6.791   1.767   9.276  1.00  0.00     0.087 C 
HETATM    6  C5  UNL     1       6.606   0.973  10.494  1.00  0.00     0.087 C 
HETATM    7  S2  UNL     1       6.802  -0.755  10.180  1.00  0.00    -0.121 SA
ENDROOT
BRANCH   3   8
HETATM    8  C3  UNL     1       8.784  -1.486   8.454  1.00  0.00     0.218 C 
HETATM    9  O1  UNL     1       9.280  -1.738   7.326  1.00  0.00    -0.645 OA
HETATM   10  O2  UNL     1       9.543  -1.730   9.571  1.00  0.00    -0.645 OA
ENDBRANCH   3   8
TORSDOF 1
ENDMDL
MODEL 3
REMARK VINA RESULT: -4.323206400      2.276      2.865
REMARK  1 active torsions:
REMARK  status: ('A' for Active; 'I' for Inactive)
REMARK    1  A    between atoms: C2_3  and  C3_4 
ROOT
HETATM    1  N1  UNL     1       6.717   1.662   6.483  1.00  0.00    -0.194 NA
HETATM    2  C1  UNL     1       6.734   0.613   6.961  1.00  0.00     0.103 C 
HETATM    3  C2  UNL     1       6.753  -0.685   7.575  1.00  0.00     0.233 C 
HETATM    4  S1  UNL     1       8.393  -1.416   7.338  1.00  0.00    -0.121 SA
HETATM    5  C4  UNL     1       9.123  -1.629   8.932  1.00  0.00     0.087 C 
HETATM    6  C5  UNL     1       8.168  -1.344  10.007  1.00  0.00     0.087 C 
HETATM    7  S2  UNL     1       6.685  -0.615   9.383  1.00  0.00    -0.121 SA
ENDROOT
BRANCH   3   8
HETATM    8  C3  UNL     1       5.718  -1.588   7.026  1.00  0.00     0.218 C 
HETATM    9  O1  UNL     1       4.519  -1.225   7.135  1.00  0.00    -0.645 OA
HETATM   10  O2  UNL     1       5.984  -2.787   6.411  1.00  0.00    -0.645 OA
ENDBRANCH   3   8
TORSDOF 1
ENDMDL
MODEL 4
REMARK VINA RESULT: -4.302247490      2.337      2.899
REMARK  1 active torsions:
REMARK  status: ('A' for Active; 'I' for Inactive)
REMARK    1  A    between atoms: C2_3  and  C3_4 
ROOT
HETATM    1  N1  UNL     1       5.604  -1.725   7.360  1.00  0.00    -0.194 NA
HETATM    2  C1  UNL     1       6.379  -1.346   8.123  1.00  0.00     0.103 C 
HETATM    3  C2  UNL     1       7.336  -0.883   9.091  1.00  0.00     0.233 C 
HETATM    4  S1  UNL     1       7.287   0.927   9.135  1.00  0.00    -0.121 SA
HETATM    5  C4  UNL     1       6.750   1.412  10.746  1.00  0.00     0.087 C 
HETATM    6  C5  UNL     1       6.669   0.266  11.657  1.00  0.00     0.087 C 
HETATM    7  S2  UNL     1       6.860  -1.265  10.796  1.00  0.00    -0.121 SA
ENDROOT
BRANCH   3   8
HETATM    8  C3  UNL     1       8.711  -1.340   8.793  1.00  0.00     0.218 C 
HETATM    9  O1  UNL     1       9.512  -1.424   9.759  1.00  0.00    -0.645 OA
HETATM   10  O2  UNL     1       9.161  -1.675   7.540  1.00  0.00    -0.645 OA
ENDBRANCH   3   8
TORSDOF 1
ENDMDL
MODEL 5
REMARK VINA RESULT: -4.250459032      2.801      3.883
REMARK  1 active torsions:
REMARK  status: ('A' for Active; 'I' for Inactive)
REMARK    1  A    between atoms: C2_3  and  C3_4 
ROOT
HETATM    1  N1  UNL     1       6.438  -1.478  11.676  1.00  0.00    -0.194 NA
HETATM    2  C1  UNL     1       6.780  -1.101  10.642  1.00  0.00     0.103 C 
HETATM    3  C2  UNL     1       7.203  -0.611   9.360  1.00  0.00     0.233 C 
HETATM    4  S1  UNL     1       5.981  -1.104   8.117  1.00  0.00    -0.121 SA
HETATM    5  C4  UNL     1       5.265   0.368   7.453  1.00  0.00     0.087 C 
HETATM    6  C5  UNL     1       5.960   1.569   7.928  1.00  0.00     0.087 C 
HETATM    7  S2  UNL     1       7.103   1.191   9.221  1.00  0.00    -0.121 SA
ENDROOT
BRANCH   3   8
HETATM    8  C3  UNL     1       8.540  -1.114   8.973  1.00  0.00     0.218 C 
HETATM    9  O1  UNL     1       8.797  -1.181   7.744  1.00  0.00    -0.645 OA
HETATM   10  O2  UNL     1       9.506  -1.508   9.866  1.00  0.00    -0.645 OA
ENDBRANCH   3   8
TORSDOF 1
ENDMDL
