MODEL 1
REMARK VINA RESULT: -4.237280305      0.000      0.000
REMARK  2 active torsions:
REMARK  status: ('A' for Active; 'I' for Inactive)
REMARK    1  A    between atoms: C2_2  and  O1_3 
REMARK    2  A    between atoms: C2_2  and  C3_5 
ROOT
HETATM    1  C3  UNL     1       6.268   0.852  11.233  1.00  0.00     0.168 C 
HETATM    2  S1  UNL     1       7.169   0.425   9.698  1.00  0.00    -0.148 SA
HETATM    3  C4  UNL     1       8.151  -1.002  10.244  1.00  0.00     0.088 C 
HETATM    4  C5  UNL     1       7.117  -1.799  11.010  1.00  0.00     0.120 C 
HETATM    5  S2  UNL     1       6.576  -0.592  12.245  1.00  0.00     0.032 S 
HETATM    6  O2  UNL     1       5.374  -1.057  13.007  1.00  0.00    -0.257 OA
ENDROOT
BRANCH   1   7
HETATM    7  C2  UNL     1       6.962   2.087  11.817  1.00  0.00     0.140 C 
HETATM    8  C1  UNL     1       7.021   3.204  10.810  1.00  0.00     0.041 C 
BRANCH   7   9
HETATM    9  O1  UNL     1       6.230   2.483  12.929  1.00  0.00    -0.394 OA
ATOM     10  H1  UNL     1       6.800   2.565  13.684  1.00  0.00     0.210 HD
ENDBRANCH   7   9
ENDBRANCH   1   7
TORSDOF 2
ENDMDL
MODEL 2
REMARK VINA RESULT: -4.209565735      1.821      3.126
REMARK  2 active torsions:
REMARK  status: ('A' for Active; 'I' for Inactive)
REMARK    1  A    between atoms: C2_2  and  O1_3 
REMARK    2  A    between atoms: C2_2  and  C3_5 
ROOT
HETATM    1  C3  UNL     1       7.034   0.372  12.321  1.00  0.00     0.168 C 
HETATM    2  S1  UNL     1       7.149  -0.980  11.092  1.00  0.00    -0.148 SA
HETATM    3  C4  UNL     1       6.284  -0.247   9.672  1.00  0.00     0.088 C 
HETATM    4  C5  UNL     1       6.889   1.140   9.639  1.00  0.00     0.120 C 
HETATM    5  S2  UNL     1       6.497   1.740  11.301  1.00  0.00     0.032 S 
HETATM    6  O2  UNL     1       7.187   3.031  11.617  1.00  0.00    -0.257 OA
ENDROOT
BRANCH   1   7
HETATM    7  C2  UNL     1       5.941  -0.033  13.314  1.00  0.00     0.140 C 
HETATM    8  C1  UNL     1       4.792   0.939  13.283  1.00  0.00     0.041 C 
BRANCH   7   9
HETATM    9  O1  UNL     1       5.505  -1.301  12.951  1.00  0.00    -0.394 OA
ATOM     10  H1  UNL     1       5.414  -1.849  13.722  1.00  0.00     0.210 HD
ENDBRANCH   7   9
ENDBRANCH   1   7
TORSDOF 2
ENDMDL
MODEL 3
REMARK VINA RESULT: -4.093823489      2.567      3.170
REMARK  2 active torsions:
REMARK  status: ('A' for Active; 'I' for Inactive)
REMARK    1  A    between atoms: C2_2  and  O1_3 
REMARK    2  A    between atoms: C2_2  and  C3_5 
ROOT
HETATM    1  C3  UNL     1       7.223  -1.039  10.049  1.00  0.00     0.168 C 
HETATM    2  S1  UNL     1       6.367  -0.443   8.545  1.00  0.00    -0.148 SA
HETATM    3  C4  UNL     1       7.769  -0.134   7.433  1.00  0.00     0.088 C 
HETATM    4  C5  UNL     1       8.595  -1.385   7.641  1.00  0.00     0.120 C 
HETATM    5  S2  UNL     1       8.875  -1.336   9.428  1.00  0.00     0.032 S 
HETATM    6  O2  UNL     1       9.490  -2.601   9.942  1.00  0.00    -0.257 OA
ENDROOT
BRANCH   1   7
HETATM    7  C2  UNL     1       7.214   0.124  11.046  1.00  0.00     0.140 C 
HETATM    8  C1  UNL     1       6.539   1.335  10.462  1.00  0.00     0.041 C 
BRANCH   7   9
HETATM    9  O1  UNL     1       6.530  -0.308  12.175  1.00  0.00    -0.394 OA
ATOM     10  H1  UNL     1       7.017  -0.082  12.959  1.00  0.00     0.210 HD
ENDBRANCH   7   9
ENDBRANCH   1   7
TORSDOF 2
ENDMDL
MODEL 4
REMARK VINA RESULT: -4.057179967      2.243      2.867
REMARK  2 active torsions:
REMARK  status: ('A' for Active; 'I' for Inactive)
REMARK    1  A    between atoms: C2_2  and  O1_3 
REMARK    2  A    between atoms: C2_2  and  C3_5 
ROOT
HETATM    1  C3  UNL     1       7.401   0.686  10.969  1.00  0.00     0.168 C 
HETATM    2  S1  UNL     1       6.646   1.753  12.250  1.00  0.00    -0.148 SA
HETATM    3  C4  UNL     1       5.379   0.648  12.937  1.00  0.00     0.088 C 
HETATM    4  C5  UNL     1       6.161  -0.639  13.092  1.00  0.00     0.120 C 
HETATM    5  S2  UNL     1       6.731  -0.917  11.397  1.00  0.00     0.032 S 
HETATM    6  O2  UNL     1       7.731  -2.028  11.308  1.00  0.00    -0.257 OA
ENDROOT
BRANCH   1   7
HETATM    7  C2  UNL     1       6.852   1.167   9.622  1.00  0.00     0.140 C 
HETATM    8  C1  UNL     1       6.198   0.040   8.869  1.00  0.00     0.041 C 
BRANCH   7   9
HETATM    9  O1  UNL     1       5.925   2.166   9.889  1.00  0.00    -0.394 OA
ATOM     10  H1  UNL     1       5.103   1.783  10.175  1.00  0.00     0.210 HD
ENDBRANCH   7   9
ENDBRANCH   1   7
TORSDOF 2
ENDMDL
MODEL 5
REMARK VINA RESULT: -4.056289728      3.298      4.288
REMARK  2 active torsions:
REMARK  status: ('A' for Active; 'I' for Inactive)
REMARK    1  A    between atoms: C2_2  and  O1_3 
REMARK    2  A    between atoms: C2_2  and  C3_5 
ROOT
HETATM    1  C3  UNL     1       7.960  -0.189   8.711  1.00  0.00     0.168 C 
HETATM    2  S1  UNL     1       8.327  -1.419   7.407  1.00  0.00    -0.148 SA
HETATM    3  C4  UNL     1       6.661  -2.018   7.000  1.00  0.00     0.088 C 
HETATM    4  C5  UNL     1       5.892  -0.718   6.911  1.00  0.00     0.120 C 
HETATM    5  S2  UNL     1       6.186  -0.014   8.552  1.00  0.00     0.032 S 
HETATM    6  O2  UNL     1       5.711   1.402   8.657  1.00  0.00    -0.257 OA
ENDROOT
BRANCH   1   7
HETATM    7  C2  UNL     1       8.327  -0.845  10.046  1.00  0.00     0.140 C 
HETATM    8  C1  UNL     1       7.108  -1.401  10.731  1.00  0.00     0.041 C 
BRANCH   7   9
HETATM    9  O1  UNL     1       9.227  -1.865   9.768  1.00  0.00    -0.394 OA
ATOM     10  H1  UNL     1       8.815  -2.712   9.901  1.00  0.00     0.210 HD
ENDBRANCH   7   9
ENDBRANCH   1   7
TORSDOF 2
ENDMDL
