MODEL 1
REMARK VINA RESULT: -6.212824402      0.000      0.000
REMARK  4 active torsions:
REMARK  status: ('A' for Active; 'I' for Inactive)
REMARK    1  A    between atoms: C2_2  and  C3_3 
REMARK    2  A    between atoms: C2_2  and  C9_11 
REMARK    3  A    between atoms: C3_3  and  C4_4 
REMARK    4  A    between atoms: C4_4  and  N1_5 
ROOT
HETATM    1  C1  UNL     1      67.811  32.287  26.295  1.00  0.00     0.016 C 
HETATM    2  C2  UNL     1      67.324  33.379  26.871  1.00  0.00    -0.057 C 
ENDROOT
BRANCH   2   3
HETATM    3  C3  UNL     1      68.146  34.629  26.955  1.00  0.00     0.065 C 
BRANCH   3   4
HETATM    4  C4  UNL     1      67.242  35.821  26.867  1.00  0.00     0.277 C 
BRANCH   4   5
HETATM    5  N1  UNL     1      67.071  36.290  25.506  1.00  0.00     0.092 N 
HETATM    6  C5  UNL     1      65.716  36.500  25.116  1.00  0.00     0.298 C 
HETATM    7  C6  UNL     1      65.218  37.895  25.419  1.00  0.00     0.198 C 
HETATM    8  O1  UNL     1      66.028  38.891  24.929  1.00  0.00    -0.388 OA
HETATM    9  C7  UNL     1      67.211  38.434  24.369  1.00  0.00     0.198 C 
HETATM   10  C8  UNL     1      67.857  37.518  25.388  1.00  0.00     0.298 C 
ENDBRANCH   4   5
ENDBRANCH   3   4
ENDBRANCH   2   3
BRANCH   2  11
HETATM   11  C9  UNL     1      65.961  33.335  27.430  1.00  0.00     0.214 C 
HETATM   12  C10 UNL     1      65.772  32.330  28.501  1.00  0.00     0.037 C 
HETATM   13  C11 UNL     1      64.360  32.172  28.969  1.00  0.00     0.004 C 
HETATM   14  C12 UNL     1      63.303  32.814  28.168  1.00  0.00     0.027 C 
HETATM   15  C13 UNL     1      63.715  33.703  27.056  1.00  0.00     0.233 C 
HETATM   16  N2  UNL     1      64.917  33.177  26.438  1.00  0.00    -0.067 N 
ATOM     17  H22 UNL     1      65.137  33.605  25.539  1.00  0.00     0.277 HD
ATOM     18  H21 UNL     1      64.817  32.221  26.096  1.00  0.00     0.277 HD
ENDBRANCH   2  11
TORSDOF 4
ENDMDL
MODEL 2
REMARK VINA RESULT: -6.209140575      1.627      2.631
REMARK  4 active torsions:
REMARK  status: ('A' for Active; 'I' for Inactive)
REMARK    1  A    between atoms: C2_2  and  C3_3 
REMARK    2  A    between atoms: C2_2  and  C9_11 
REMARK    3  A    between atoms: C3_3  and  C4_4 
REMARK    4  A    between atoms: C4_4  and  N1_5 
ROOT
HETATM    1  C1  UNL     1      62.975  34.748  25.317  1.00  0.00     0.016 C 
HETATM    2  C2  UNL     1      64.228  34.624  25.737  1.00  0.00    -0.057 C 
ENDROOT
BRANCH   2   3
HETATM    3  C3  UNL     1      65.357  35.241  24.969  1.00  0.00     0.065 C 
BRANCH   3   4
HETATM    4  C4  UNL     1      64.826  35.833  23.700  1.00  0.00     0.277 C 
BRANCH   4   5
HETATM    5  N1  UNL     1      65.649  36.919  23.205  1.00  0.00     0.092 N 
HETATM    6  C5  UNL     1      65.002  38.187  23.170  1.00  0.00     0.298 C 
HETATM    7  C6  UNL     1      65.147  38.966  24.458  1.00  0.00     0.198 C 
HETATM    8  O1  UNL     1      66.447  39.092  24.886  1.00  0.00    -0.388 OA
HETATM    9  C7  UNL     1      67.362  38.372  24.134  1.00  0.00     0.198 C 
HETATM   10  C8  UNL     1      66.844  36.951  24.049  1.00  0.00     0.298 C 
ENDBRANCH   4   5
ENDBRANCH   3   4
ENDBRANCH   2   3
BRANCH   2  11
HETATM   11  C9  UNL     1      64.486  33.862  26.972  1.00  0.00     0.214 C 
HETATM   12  C10 UNL     1      65.776  33.136  26.984  1.00  0.00     0.037 C 
HETATM   13  C11 UNL     1      65.979  32.240  28.165  1.00  0.00     0.004 C 
HETATM   14  C12 UNL     1      64.814  31.977  29.028  1.00  0.00     0.027 C 
HETATM   15  C13 UNL     1      63.570  32.740  28.769  1.00  0.00     0.233 C 
HETATM   16  N2  UNL     1      63.422  32.950  27.341  1.00  0.00    -0.067 N 
ATOM     17  H22 UNL     1      62.493  33.271  27.068  1.00  0.00     0.277 HD
ATOM     18  H21 UNL     1      63.415  32.086  26.799  1.00  0.00     0.277 HD
ENDBRANCH   2  11
TORSDOF 4
ENDMDL
MODEL 3
REMARK VINA RESULT: -6.176823415      1.129      1.656
REMARK  4 active torsions:
REMARK  status: ('A' for Active; 'I' for Inactive)
REMARK    1  A    between atoms: C2_2  and  C3_3 
REMARK    2  A    between atoms: C2_2  and  C9_11 
REMARK    3  A    between atoms: C3_3  and  C4_4 
REMARK    4  A    between atoms: C4_4  and  N1_5 
ROOT
HETATM    1  C1  UNL     1      67.443  31.600  26.275  1.00  0.00     0.016 C 
HETATM    2  C2  UNL     1      67.180  32.736  26.909  1.00  0.00    -0.057 C 
ENDROOT
BRANCH   2   3
HETATM    3  C3  UNL     1      68.201  33.831  26.970  1.00  0.00     0.065 C 
BRANCH   3   4
HETATM    4  C4  UNL     1      67.696  35.022  26.215  1.00  0.00     0.277 C 
BRANCH   4   5
HETATM    5  N1  UNL     1      67.336  36.122  27.088  1.00  0.00     0.092 N 
HETATM    6  C5  UNL     1      68.360  37.096  27.269  1.00  0.00     0.298 C 
HETATM    7  C6  UNL     1      68.322  38.200  26.237  1.00  0.00     0.198 C 
HETATM    8  O1  UNL     1      67.091  38.801  26.113  1.00  0.00    -0.388 OA
HETATM    9  C7  UNL     1      66.089  38.196  26.856  1.00  0.00     0.198 C 
HETATM   10  C8  UNL     1      66.124  36.718  26.525  1.00  0.00     0.298 C 
ENDBRANCH   4   5
ENDBRANCH   3   4
ENDBRANCH   2   3
BRANCH   2  11
HETATM   11  C9  UNL     1      65.865  32.896  27.555  1.00  0.00     0.214 C 
HETATM   12  C10 UNL     1      65.655  32.031  28.738  1.00  0.00     0.037 C 
HETATM   13  C11 UNL     1      64.273  32.075  29.308  1.00  0.00     0.004 C 
HETATM   14  C12 UNL     1      63.229  32.744  28.511  1.00  0.00     0.027 C 
HETATM   15  C13 UNL     1      63.645  33.467  27.285  1.00  0.00     0.233 C 
HETATM   16  N2  UNL     1      64.739  32.754  26.654  1.00  0.00    -0.067 N 
ATOM     17  H22 UNL     1      64.934  33.062  25.701  1.00  0.00     0.277 HD
ATOM     18  H21 UNL     1      64.518  31.785  26.424  1.00  0.00     0.277 HD
ENDBRANCH   2  11
TORSDOF 4
ENDMDL
MODEL 4
REMARK VINA RESULT: -6.149847057      1.322      1.762
REMARK  4 active torsions:
REMARK  status: ('A' for Active; 'I' for Inactive)
REMARK    1  A    between atoms: C2_2  and  C3_3 
REMARK    2  A    between atoms: C2_2  and  C9_11 
REMARK    3  A    between atoms: C3_3  and  C4_4 
REMARK    4  A    between atoms: C4_4  and  N1_5 
ROOT
HETATM    1  C1  UNL     1      67.897  32.761  26.654  1.00  0.00     0.016 C 
HETATM    2  C2  UNL     1      66.848  33.565  26.536  1.00  0.00    -0.057 C 
ENDROOT
BRANCH   2   3
HETATM    3  C3  UNL     1      66.857  34.694  25.552  1.00  0.00     0.065 C 
BRANCH   3   4
HETATM    4  C4  UNL     1      66.227  35.901  26.178  1.00  0.00     0.277 C 
BRANCH   4   5
HETATM    5  N1  UNL     1      65.175  36.468  25.358  1.00  0.00     0.092 N 
HETATM    6  C5  UNL     1      65.361  37.839  25.017  1.00  0.00     0.298 C 
HETATM    7  C6  UNL     1      66.149  38.034  23.741  1.00  0.00     0.198 C 
HETATM    8  O1  UNL     1      65.655  37.326  22.671  1.00  0.00    -0.388 OA
HETATM    9  C7  UNL     1      64.616  36.467  22.992  1.00  0.00     0.198 C 
HETATM   10  C8  UNL     1      65.081  35.628  24.164  1.00  0.00     0.298 C 
ENDBRANCH   4   5
ENDBRANCH   3   4
ENDBRANCH   2   3
BRANCH   2  11
HETATM   11  C9  UNL     1      65.675  33.326  27.397  1.00  0.00     0.214 C 
HETATM   12  C10 UNL     1      65.892  32.316  28.458  1.00  0.00     0.037 C 
HETATM   13  C11 UNL     1      64.667  31.957  29.239  1.00  0.00     0.004 C 
HETATM   14  C12 UNL     1      63.369  32.427  28.723  1.00  0.00     0.027 C 
HETATM   15  C13 UNL     1      63.375  33.355  27.567  1.00  0.00     0.233 C 
HETATM   16  N2  UNL     1      64.462  33.006  26.673  1.00  0.00    -0.067 N 
ATOM     17  H22 UNL     1      64.400  33.452  25.758  1.00  0.00     0.277 HD
ATOM     18  H21 UNL     1      64.425  32.042  26.341  1.00  0.00     0.277 HD
ENDBRANCH   2  11
TORSDOF 4
ENDMDL
MODEL 5
REMARK VINA RESULT: -6.143123293      2.649      3.886
REMARK  4 active torsions:
REMARK  status: ('A' for Active; 'I' for Inactive)
REMARK    1  A    between atoms: C2_2  and  C3_3 
REMARK    2  A    between atoms: C2_2  and  C9_11 
REMARK    3  A    between atoms: C3_3  and  C4_4 
REMARK    4  A    between atoms: C4_4  and  N1_5 
ROOT
HETATM    1  C1  UNL     1      64.068  35.555  23.022  1.00  0.00     0.016 C 
HETATM    2  C2  UNL     1      64.969  35.531  23.996  1.00  0.00    -0.057 C 
ENDROOT
BRANCH   2   3
HETATM    3  C3  UNL     1      66.070  36.546  24.043  1.00  0.00     0.065 C 
BRANCH   3   4
HETATM    4  C4  UNL     1      65.806  37.610  23.022  1.00  0.00     0.277 C 
BRANCH   4   5
HETATM    5  N1  UNL     1      66.847  37.687  22.016  1.00  0.00     0.092 N 
HETATM    6  C5  UNL     1      66.384  38.001  20.706  1.00  0.00     0.298 C 
HETATM    7  C6  UNL     1      66.328  39.487  20.434  1.00  0.00     0.198 C 
HETATM    8  O1  UNL     1      67.503  40.146  20.710  1.00  0.00    -0.388 OA
HETATM    9  C7  UNL     1      68.469  39.352  21.308  1.00  0.00     0.198 C 
HETATM   10  C8  UNL     1      67.814  38.675  22.494  1.00  0.00     0.298 C 
ENDBRANCH   4   5
ENDBRANCH   3   4
ENDBRANCH   2   3
BRANCH   2  11
HETATM   11  C9  UNL     1      64.867  34.483  25.027  1.00  0.00     0.214 C 
HETATM   12  C10 UNL     1      63.713  34.636  25.942  1.00  0.00     0.037 C 
HETATM   13  C11 UNL     1      63.686  33.667  27.082  1.00  0.00     0.004 C 
HETATM   14  C12 UNL     1      64.898  32.864  27.321  1.00  0.00     0.027 C 
HETATM   15  C13 UNL     1      65.995  32.947  26.327  1.00  0.00     0.233 C 
HETATM   16  N2  UNL     1      66.074  34.298  25.808  1.00  0.00    -0.067 N 
ATOM     17  H22 UNL     1      66.931  34.489  25.289  1.00  0.00     0.277 HD
ATOM     18  H21 UNL     1      66.208  35.007  26.529  1.00  0.00     0.277 HD
ENDBRANCH   2  11
TORSDOF 4
ENDMDL
