MODEL 1
REMARK VINA RESULT: -6.552447936      0.000      0.000
REMARK  5 active torsions:
REMARK  status: ('A' for Active; 'I' for Inactive)
REMARK    1  A    between atoms: O1_1  and  N1_3 
REMARK    2  A    between atoms: N1_3  and  C1_4 
REMARK    3  A    between atoms: N1_3  and  C6_9 
REMARK    4  A    between atoms: C1_4  and  C2_5 
REMARK    5  A    between atoms: C6_9  and  C7_10 
ROOT
HETATM    1  C6  UNL     1      64.437  34.515  25.306  1.00  0.00     0.127 C 
ENDROOT
BRANCH   1   2
HETATM    2  N1  UNL     1      64.167  34.249  26.714  1.00  0.00    -0.199 NA
BRANCH   2   3
HETATM    3  O1  UNL     1      62.829  34.219  26.841  1.00  0.00    -0.313 OA
ATOM      4  H1  UNL     1      62.373  34.924  26.396  1.00  0.00     0.237 HD
ENDBRANCH   2   3
BRANCH   2   5
HETATM    5  C1  UNL     1      64.828  33.078  27.154  1.00  0.00     0.124 C 
BRANCH   5   6
HETATM    6  C2  UNL     1      66.095  32.756  26.420  1.00  0.00     0.001 C 
HETATM    7  C3  UNL     1      67.368  33.127  27.156  1.00  0.00     0.006 C 
HETATM    8  C4  UNL     1      67.999  31.926  26.431  1.00  0.00     0.001 C 
HETATM    9  C5  UNL     1      66.579  31.337  26.473  1.00  0.00     0.006 C 
ENDBRANCH   5   6
ENDBRANCH   2   5
ENDBRANCH   1   2
BRANCH   1  10
HETATM   10  C7  UNL     1      64.441  35.961  24.951  1.00  0.00     0.033 C 
HETATM   11  C8  UNL     1      64.852  36.227  23.519  1.00  0.00     0.278 C 
HETATM   12  N2  UNL     1      65.821  37.305  23.441  1.00  0.00     0.088 N 
HETATM   13  C9  UNL     1      65.434  38.494  24.131  1.00  0.00     0.272 C 
HETATM   14  C13 UNL     1      67.070  36.818  23.974  1.00  0.00     0.272 C 
HETATM   15  C10 UNL     1      65.192  38.194  25.585  1.00  0.00     0.035 C 
HETATM   16  C11 UNL     1      65.421  36.695  25.834  1.00  0.00    -0.004 C 
HETATM   17  C12 UNL     1      66.824  36.345  25.388  1.00  0.00     0.035 C 
ENDBRANCH   1  10
TORSDOF 5
ENDMDL
MODEL 2
REMARK VINA RESULT: -6.203928960      0.878      1.670
REMARK  5 active torsions:
REMARK  status: ('A' for Active; 'I' for Inactive)
REMARK    1  A    between atoms: O1_1  and  N1_3 
REMARK    2  A    between atoms: N1_3  and  C1_4 
REMARK    3  A    between atoms: N1_3  and  C6_9 
REMARK    4  A    between atoms: C1_4  and  C2_5 
REMARK    5  A    between atoms: C6_9  and  C7_10 
ROOT
HETATM    1  C6  UNL     1      64.739  35.144  25.283  1.00  0.00     0.127 C 
ENDROOT
BRANCH   1   2
HETATM    2  N1  UNL     1      64.205  34.747  26.581  1.00  0.00    -0.199 NA
BRANCH   2   3
HETATM    3  O1  UNL     1      62.867  34.829  26.478  1.00  0.00    -0.313 OA
ATOM      4  H1  UNL     1      62.481  34.241  25.838  1.00  0.00     0.237 HD
ENDBRANCH   2   3
BRANCH   2   5
HETATM    5  C1  UNL     1      64.690  33.477  26.971  1.00  0.00     0.124 C 
BRANCH   5   6
HETATM    6  C2  UNL     1      65.966  33.057  26.306  1.00  0.00     0.001 C 
HETATM    7  C3  UNL     1      67.223  33.351  27.099  1.00  0.00     0.006 C 
HETATM    8  C4  UNL     1      67.804  32.098  26.422  1.00  0.00     0.001 C 
HETATM    9  C5  UNL     1      66.347  31.609  26.400  1.00  0.00     0.006 C 
ENDBRANCH   5   6
ENDBRANCH   2   5
ENDBRANCH   1   2
BRANCH   1  10
HETATM   10  C7  UNL     1      65.706  36.273  25.343  1.00  0.00     0.033 C 
HETATM   11  C8  UNL     1      65.065  37.596  25.703  1.00  0.00     0.278 C 
HETATM   12  N2  UNL     1      65.522  38.659  24.826  1.00  0.00     0.088 N 
HETATM   13  C9  UNL     1      66.942  38.751  24.706  1.00  0.00     0.272 C 
HETATM   14  C13 UNL     1      64.937  38.443  23.525  1.00  0.00     0.272 C 
HETATM   15  C10 UNL     1      67.505  37.455  24.192  1.00  0.00     0.035 C 
HETATM   16  C11 UNL     1      66.357  36.453  23.992  1.00  0.00    -0.004 C 
HETATM   17  C12 UNL     1      65.345  37.068  23.050  1.00  0.00     0.035 C 
ENDBRANCH   1  10
TORSDOF 5
ENDMDL
MODEL 3
REMARK VINA RESULT: -6.188307764      1.890      2.324
REMARK  5 active torsions:
REMARK  status: ('A' for Active; 'I' for Inactive)
REMARK    1  A    between atoms: O1_1  and  N1_3 
REMARK    2  A    between atoms: N1_3  and  C1_4 
REMARK    3  A    between atoms: N1_3  and  C6_9 
REMARK    4  A    between atoms: C1_4  and  C2_5 
REMARK    5  A    between atoms: C6_9  and  C7_10 
ROOT
HETATM    1  C6  UNL     1      65.952  35.455  26.356  1.00  0.00     0.127 C 
ENDROOT
BRANCH   1   2
HETATM    2  N1  UNL     1      66.406  34.258  25.657  1.00  0.00    -0.199 NA
BRANCH   2   3
HETATM    3  O1  UNL     1      67.743  34.227  25.794  1.00  0.00    -0.313 OA
ATOM      4  H1  UNL     1      68.173  35.066  25.673  1.00  0.00     0.237 HD
ENDBRANCH   2   3
BRANCH   2   5
HETATM    5  C1  UNL     1      65.738  33.102  26.127  1.00  0.00     0.124 C 
BRANCH   5   6
HETATM    6  C2  UNL     1      65.275  33.176  27.551  1.00  0.00     0.001 C 
HETATM    7  C3  UNL     1      63.886  32.621  27.797  1.00  0.00     0.006 C 
HETATM    8  C4  UNL     1      64.411  32.246  29.194  1.00  0.00     0.001 C 
HETATM    9  C5  UNL     1      65.773  32.119  28.491  1.00  0.00     0.006 C 
ENDBRANCH   5   6
ENDBRANCH   2   5
ENDBRANCH   1   2
BRANCH   1  10
HETATM   10  C7  UNL     1      65.311  36.468  25.473  1.00  0.00     0.033 C 
HETATM   11  C8  UNL     1      65.333  36.089  24.009  1.00  0.00     0.278 C 
HETATM   12  N2  UNL     1      65.755  37.206  23.182  1.00  0.00     0.088 N 
HETATM   13  C9  UNL     1      65.040  38.418  23.425  1.00  0.00     0.272 C 
HETATM   14  C13 UNL     1      67.164  37.418  23.408  1.00  0.00     0.272 C 
HETATM   15  C10 UNL     1      65.188  38.827  24.865  1.00  0.00     0.035 C 
HETATM   16  C11 UNL     1      66.042  37.783  25.599  1.00  0.00    -0.004 C 
HETATM   17  C12 UNL     1      67.370  37.663  24.884  1.00  0.00     0.035 C 
ENDBRANCH   1  10
TORSDOF 5
ENDMDL
MODEL 4
REMARK VINA RESULT: -6.125565828      1.364      1.961
REMARK  5 active torsions:
REMARK  status: ('A' for Active; 'I' for Inactive)
REMARK    1  A    between atoms: O1_1  and  N1_3 
REMARK    2  A    between atoms: N1_3  and  C1_4 
REMARK    3  A    between atoms: N1_3  and  C6_9 
REMARK    4  A    between atoms: C1_4  and  C2_5 
REMARK    5  A    between atoms: C6_9  and  C7_10 
ROOT
HETATM    1  C6  UNL     1      64.838  36.046  25.799  1.00  0.00     0.127 C 
ENDROOT
BRANCH   1   2
HETATM    2  N1  UNL     1      64.291  34.705  25.626  1.00  0.00    -0.199 NA
BRANCH   2   3
HETATM    3  O1  UNL     1      64.496  34.379  24.338  1.00  0.00    -0.313 OA
ATOM      4  H1  UNL     1      64.767  35.103  23.784  1.00  0.00     0.237 HD
ENDBRANCH   2   3
BRANCH   2   5
HETATM    5  C1  UNL     1      64.843  33.798  26.560  1.00  0.00     0.124 C 
BRANCH   5   6
HETATM    6  C2  UNL     1      66.105  33.123  26.113  1.00  0.00     0.001 C 
HETATM    7  C3  UNL     1      67.336  33.478  26.923  1.00  0.00     0.006 C 
HETATM    8  C4  UNL     1      67.821  32.056  26.593  1.00  0.00     0.001 C 
HETATM    9  C5  UNL     1      66.324  31.708  26.559  1.00  0.00     0.006 C 
ENDBRANCH   5   6
ENDBRANCH   2   5
ENDBRANCH   1   2
BRANCH   1  10
HETATM   10  C7  UNL     1      65.687  36.507  24.667  1.00  0.00     0.033 C 
HETATM   11  C8  UNL     1      67.139  36.705  25.046  1.00  0.00     0.278 C 
HETATM   12  N2  UNL     1      67.648  37.966  24.538  1.00  0.00     0.088 N 
HETATM   13  C9  UNL     1      67.410  38.177  23.145  1.00  0.00     0.272 C 
HETATM   14  C13 UNL     1      67.043  39.030  25.301  1.00  0.00     0.272 C 
HETATM   15  C10 UNL     1      65.935  38.126  22.858  1.00  0.00     0.035 C 
HETATM   16  C11 UNL     1      65.178  37.836  24.163  1.00  0.00    -0.004 C 
HETATM   17  C12 UNL     1      65.542  38.903  25.173  1.00  0.00     0.035 C 
ENDBRANCH   1  10
TORSDOF 5
ENDMDL
MODEL 5
REMARK VINA RESULT: -5.959132092      1.389      1.832
REMARK  5 active torsions:
REMARK  status: ('A' for Active; 'I' for Inactive)
REMARK    1  A    between atoms: O1_1  and  N1_3 
REMARK    2  A    between atoms: N1_3  and  C1_4 
REMARK    3  A    between atoms: N1_3  and  C6_9 
REMARK    4  A    between atoms: C1_4  and  C2_5 
REMARK    5  A    between atoms: C6_9  and  C7_10 
ROOT
HETATM    1  C6  UNL     1      64.779  35.955  25.349  1.00  0.00     0.127 C 
ENDROOT
BRANCH   1   2
HETATM    2  N1  UNL     1      64.408  34.912  26.299  1.00  0.00    -0.199 NA
BRANCH   2   3
HETATM    3  O1  UNL     1      63.069  34.956  26.401  1.00  0.00    -0.313 OA
ATOM      4  H1  UNL     1      62.619  35.226  25.608  1.00  0.00     0.237 HD
ENDBRANCH   2   3
BRANCH   2   5
HETATM    5  C1  UNL     1      64.929  33.655  25.913  1.00  0.00     0.124 C 
BRANCH   5   6
HETATM    6  C2  UNL     1      66.147  33.217  26.670  1.00  0.00     0.001 C 
HETATM    7  C3  UNL     1      66.501  31.752  26.512  1.00  0.00     0.006 C 
HETATM    8  C4  UNL     1      67.959  32.204  26.699  1.00  0.00     0.001 C 
HETATM    9  C5  UNL     1      67.483  33.519  26.060  1.00  0.00     0.006 C 
ENDBRANCH   5   6
ENDBRANCH   2   5
ENDBRANCH   1   2
BRANCH   1  10
HETATM   10  C7  UNL     1      65.106  37.263  25.980  1.00  0.00     0.033 C 
HETATM   11  C8  UNL     1      65.315  38.378  24.979  1.00  0.00     0.278 C 
HETATM   12  N2  UNL     1      66.508  39.146  25.287  1.00  0.00     0.088 N 
HETATM   13  C9  UNL     1      66.580  39.601  26.639  1.00  0.00     0.272 C 
HETATM   14  C13 UNL     1      67.654  38.324  24.988  1.00  0.00     0.272 C 
HETATM   15  C10 UNL     1      66.528  38.432  27.583  1.00  0.00     0.035 C 
HETATM   16  C11 UNL     1      66.387  37.136  26.770  1.00  0.00    -0.004 C 
HETATM   17  C12 UNL     1      67.544  37.053  25.798  1.00  0.00     0.035 C 
ENDBRANCH   1  10
TORSDOF 5
ENDMDL
