MODEL 1
REMARK VINA RESULT: -5.395318813      0.000      0.000
REMARK  5 active torsions:
REMARK  status: ('A' for Active; 'I' for Inactive)
REMARK    1  A    between atoms: C2_2  and  C5_5 
REMARK    2  A    between atoms: C7_9  and  S1_10 
REMARK    3  A    between atoms: S1_10  and  C8_11 
REMARK    4  A    between atoms: C8_11  and  C9_12 
REMARK    5  A    between atoms: C9_12  and  N2_13 
ROOT
HETATM    1  C5  UNL     1       7.593  -3.433   7.616  1.00  0.00     0.035 C 
HETATM    2  C6  UNL     1       8.138  -4.195   8.781  1.00  0.00     0.129 C 
HETATM    3  N1  UNL     1       7.917  -3.504  10.005  1.00  0.00    -0.365 N 
ATOM      4  H1  UNL     1       8.413  -3.828  10.835  1.00  0.00     0.162 HD
HETATM    5  C7  UNL     1       7.135  -2.503  10.122  1.00  0.00     0.177 C 
HETATM    6  O1  UNL     1       6.428  -1.998   9.057  1.00  0.00    -0.330 OA
HETATM    7  C10 UNL     1       6.233  -2.822   7.924  1.00  0.00     0.184 C 
ENDROOT
BRANCH   5   8
HETATM    8  S1  UNL     1       6.966  -1.739  11.741  1.00  0.00    -0.085 SA
BRANCH   8   9
HETATM    9  C8  UNL     1       6.477  -3.014  12.918  1.00  0.00     0.110 C 
BRANCH   9  10
HETATM   10  C9  UNL     1       5.161  -2.723  13.574  1.00  0.00     0.240 C 
BRANCH  10  11
HETATM   11  N2  UNL     1       5.019  -3.495  14.806  1.00  0.00    -0.079 N 
ATOM     12  H23 UNL     1       4.085  -3.897  14.894  1.00  0.00     0.274 HD
ATOM     13  H22 UNL     1       5.556  -4.362  14.775  1.00  0.00     0.274 HD
ATOM     14  H21 UNL     1       5.264  -2.927  15.617  1.00  0.00     0.274 HD
ENDBRANCH  10  11
ENDBRANCH   9  10
ENDBRANCH   8   9
ENDBRANCH   5   8
BRANCH   1  15
HETATM   15  C2  UNL     1       7.564  -4.245   6.347  1.00  0.00    -0.044 C 
HETATM   16  C1  UNL     1       6.483  -5.294   6.507  1.00  0.00     0.015 C 
HETATM   17  C3  UNL     1       8.886  -4.900   6.130  1.00  0.00     0.015 C 
HETATM   18  C4  UNL     1       7.213  -3.419   5.136  1.00  0.00     0.015 C 
ENDBRANCH   1  15
TORSDOF 5
ENDMDL
MODEL 2
REMARK VINA RESULT: -5.352659995      0.251      1.164
REMARK  5 active torsions:
REMARK  status: ('A' for Active; 'I' for Inactive)
REMARK    1  A    between atoms: C2_2  and  C5_5 
REMARK    2  A    between atoms: C7_9  and  S1_10 
REMARK    3  A    between atoms: S1_10  and  C8_11 
REMARK    4  A    between atoms: C8_11  and  C9_12 
REMARK    5  A    between atoms: C9_12  and  N2_13 
ROOT
HETATM    1  C5  UNL     1       7.443  -3.400   7.681  1.00  0.00     0.035 C 
HETATM    2  C6  UNL     1       7.718  -4.247   8.882  1.00  0.00     0.129 C 
HETATM    3  N1  UNL     1       7.559  -3.510  10.088  1.00  0.00    -0.365 N 
ATOM      4  H1  UNL     1       7.908  -3.923  10.953  1.00  0.00     0.162 HD
HETATM    5  C7  UNL     1       7.006  -2.363  10.149  1.00  0.00     0.177 C 
HETATM    6  O1  UNL     1       6.509  -1.729   9.035  1.00  0.00    -0.330 OA
HETATM    7  C10 UNL     1       6.228  -2.505   7.887  1.00  0.00     0.184 C 
ENDROOT
BRANCH   5   8
HETATM    8  S1  UNL     1       6.882  -1.561  11.754  1.00  0.00    -0.085 SA
BRANCH   8   9
HETATM    9  C8  UNL     1       6.563  -2.829  12.995  1.00  0.00     0.110 C 
BRANCH   9  10
HETATM   10  C9  UNL     1       5.166  -2.771  13.535  1.00  0.00     0.240 C 
BRANCH  10  11
HETATM   11  N2  UNL     1       5.056  -3.555  14.763  1.00  0.00    -0.079 N 
ATOM     12  H23 UNL     1       5.261  -4.541  14.601  1.00  0.00     0.274 HD
ATOM     13  H22 UNL     1       5.813  -3.347  15.414  1.00  0.00     0.274 HD
ATOM     14  H21 UNL     1       4.141  -3.424  15.193  1.00  0.00     0.274 HD
ENDBRANCH  10  11
ENDBRANCH   9  10
ENDBRANCH   8   9
ENDBRANCH   5   8
BRANCH   1  15
HETATM   15  C2  UNL     1       7.336  -4.201   6.410  1.00  0.00    -0.044 C 
HETATM   16  C1  UNL     1       8.684  -4.851   6.172  1.00  0.00     0.015 C 
HETATM   17  C3  UNL     1       6.992  -3.303   5.269  1.00  0.00     0.015 C 
HETATM   18  C4  UNL     1       6.314  -5.304   6.500  1.00  0.00     0.015 C 
ENDBRANCH   1  15
TORSDOF 5
ENDMDL
MODEL 3
REMARK VINA RESULT: -5.344811012      1.087      1.451
REMARK  5 active torsions:
REMARK  status: ('A' for Active; 'I' for Inactive)
REMARK    1  A    between atoms: C2_2  and  C5_5 
REMARK    2  A    between atoms: C7_9  and  S1_10 
REMARK    3  A    between atoms: S1_10  and  C8_11 
REMARK    4  A    between atoms: C8_11  and  C9_12 
REMARK    5  A    between atoms: C9_12  and  N2_13 
ROOT
HETATM    1  C5  UNL     1       6.887  -3.712   8.149  1.00  0.00     0.035 C 
HETATM    2  C6  UNL     1       6.561  -2.257   8.045  1.00  0.00     0.129 C 
HETATM    3  N1  UNL     1       6.550  -1.632   9.322  1.00  0.00    -0.365 N 
ATOM      4  H1  UNL     1       6.152  -0.696   9.397  1.00  0.00     0.162 HD
HETATM    5  C7  UNL     1       7.011  -2.176  10.381  1.00  0.00     0.177 C 
HETATM    6  O1  UNL     1       7.564  -3.434  10.376  1.00  0.00    -0.330 OA
HETATM    7  C10 UNL     1       8.009  -3.971   9.146  1.00  0.00     0.184 C 
ENDROOT
BRANCH   5   8
HETATM    8  S1  UNL     1       6.923  -1.252  11.921  1.00  0.00    -0.085 SA
BRANCH   8   9
HETATM    9  C8  UNL     1       5.553  -1.907  12.894  1.00  0.00     0.110 C 
BRANCH   9  10
HETATM   10  C9  UNL     1       5.848  -3.258  13.472  1.00  0.00     0.240 C 
BRANCH  10  11
HETATM   11  N2  UNL     1       5.034  -3.497  14.661  1.00  0.00    -0.079 N 
ATOM     12  H23 UNL     1       4.272  -2.824  14.740  1.00  0.00     0.274 HD
ATOM     13  H22 UNL     1       4.477  -4.348  14.574  1.00  0.00     0.274 HD
ATOM     14  H21 UNL     1       5.616  -3.510  15.499  1.00  0.00     0.274 HD
ENDBRANCH  10  11
ENDBRANCH   9  10
ENDBRANCH   8   9
ENDBRANCH   5   8
BRANCH   1  15
HETATM   15  C2  UNL     1       7.172  -4.346   6.812  1.00  0.00    -0.044 C 
HETATM   16  C1  UNL     1       6.051  -5.326   6.530  1.00  0.00     0.015 C 
HETATM   17  C3  UNL     1       8.480  -5.062   6.857  1.00  0.00     0.015 C 
HETATM   18  C4  UNL     1       7.190  -3.347   5.685  1.00  0.00     0.015 C 
ENDBRANCH   1  15
TORSDOF 5
ENDMDL
MODEL 4
REMARK VINA RESULT: -5.337892589      1.100      1.880
REMARK  5 active torsions:
REMARK  status: ('A' for Active; 'I' for Inactive)
REMARK    1  A    between atoms: C2_2  and  C5_5 
REMARK    2  A    between atoms: C7_9  and  S1_10 
REMARK    3  A    between atoms: S1_10  and  C8_11 
REMARK    4  A    between atoms: C8_11  and  C9_12 
REMARK    5  A    between atoms: C9_12  and  N2_13 
ROOT
HETATM    1  C5  UNL     1       6.915  -3.722   8.161  1.00  0.00     0.035 C 
HETATM    2  C6  UNL     1       6.472  -2.299   8.040  1.00  0.00     0.129 C 
HETATM    3  N1  UNL     1       6.496  -1.636   9.298  1.00  0.00    -0.365 N 
ATOM      4  H1  UNL     1       6.033  -0.731   9.373  1.00  0.00     0.162 HD
HETATM    5  C7  UNL     1       7.064  -2.110  10.337  1.00  0.00     0.177 C 
HETATM    6  O1  UNL     1       7.711  -3.323  10.329  1.00  0.00    -0.330 OA
HETATM    7  C10 UNL     1       8.115  -3.864   9.087  1.00  0.00     0.184 C 
ENDROOT
BRANCH   5   8
HETATM    8  S1  UNL     1       7.004  -1.147  11.854  1.00  0.00    -0.085 SA
BRANCH   8   9
HETATM    9  C8  UNL     1       5.660  -1.783  12.874  1.00  0.00     0.110 C 
BRANCH   9  10
HETATM   10  C9  UNL     1       5.865  -3.212  13.277  1.00  0.00     0.240 C 
BRANCH  10  11
HETATM   11  N2  UNL     1       5.083  -3.527  14.470  1.00  0.00    -0.079 N 
ATOM     12  H23 UNL     1       4.094  -3.648  14.252  1.00  0.00     0.274 HD
ATOM     13  H22 UNL     1       5.280  -4.467  14.814  1.00  0.00     0.274 HD
ATOM     14  H21 UNL     1       5.228  -2.822  15.192  1.00  0.00     0.274 HD
ENDBRANCH  10  11
ENDBRANCH   9  10
ENDBRANCH   8   9
ENDBRANCH   5   8
BRANCH   1  15
HETATM   15  C2  UNL     1       7.161  -4.375   6.825  1.00  0.00    -0.044 C 
HETATM   16  C1  UNL     1       7.219  -3.273   5.788  1.00  0.00     0.015 C 
HETATM   17  C3  UNL     1       6.052  -5.320   6.509  1.00  0.00     0.015 C 
HETATM   18  C4  UNL     1       8.474  -5.113   6.771  1.00  0.00     0.015 C 
ENDBRANCH   1  15
TORSDOF 5
ENDMDL
MODEL 5
REMARK VINA RESULT: -5.190365560      2.951      4.024
REMARK  5 active torsions:
REMARK  status: ('A' for Active; 'I' for Inactive)
REMARK    1  A    between atoms: C2_2  and  C5_5 
REMARK    2  A    between atoms: C7_9  and  S1_10 
REMARK    3  A    between atoms: S1_10  and  C8_11 
REMARK    4  A    between atoms: C8_11  and  C9_12 
REMARK    5  A    between atoms: C9_12  and  N2_13 
ROOT
HETATM    1  C5  UNL     1       5.678  -0.595   7.134  1.00  0.00     0.035 C 
HETATM    2  C6  UNL     1       5.207  -2.012   7.076  1.00  0.00     0.129 C 
HETATM    3  N1  UNL     1       6.071  -2.880   7.800  1.00  0.00    -0.365 N 
ATOM      4  H1  UNL     1       5.962  -3.885   7.669  1.00  0.00     0.162 HD
HETATM    5  C7  UNL     1       6.974  -2.471   8.603  1.00  0.00     0.177 C 
HETATM    6  O1  UNL     1       7.193  -1.135   8.840  1.00  0.00    -0.330 OA
HETATM    7  C10 UNL     1       6.164  -0.216   8.527  1.00  0.00     0.184 C 
ENDROOT
BRANCH   5   8
HETATM    8  S1  UNL     1       7.986  -3.697   9.443  1.00  0.00    -0.085 SA
BRANCH   8   9
HETATM    9  C8  UNL     1       7.054  -4.330  10.851  1.00  0.00     0.110 C 
BRANCH   9  10
HETATM   10  C9  UNL     1       6.878  -3.309  11.934  1.00  0.00     0.240 C 
BRANCH  10  11
HETATM   11  N2  UNL     1       6.180  -3.889  13.079  1.00  0.00    -0.079 N 
ATOM     12  H23 UNL     1       6.280  -4.904  13.109  1.00  0.00     0.274 HD
ATOM     13  H22 UNL     1       6.644  -3.664  13.960  1.00  0.00     0.274 HD
ATOM     14  H21 UNL     1       5.201  -3.605  13.085  1.00  0.00     0.274 HD
ENDBRANCH  10  11
ENDBRANCH   9  10
ENDBRANCH   8   9
ENDBRANCH   5   8
BRANCH   1  15
HETATM   15  C2  UNL     1       4.658   0.384   6.615  1.00  0.00    -0.044 C 
HETATM   16  C1  UNL     1       3.494  -0.421   6.074  1.00  0.00     0.015 C 
HETATM   17  C3  UNL     1       5.255   1.215   5.529  1.00  0.00     0.015 C 
HETATM   18  C4  UNL     1       4.117   1.288   7.693  1.00  0.00     0.015 C 
ENDBRANCH   1  15
TORSDOF 5
ENDMDL
