MODEL 1
REMARK VINA RESULT: -6.470654780      0.000      0.000
REMARK  5 active torsions:
REMARK  status: ('A' for Active; 'I' for Inactive)
REMARK    1  A    between atoms: C1_2  and  C2_3 
REMARK       I    between atoms: C1_2  and  N1_7 
REMARK    2  A    between atoms: C4_9  and  C5_10 
REMARK    3  A    between atoms: C5_10  and  C6_11 
REMARK    4  A    between atoms: C6_11  and  N2_12 
REMARK    5  A    between atoms: N2_12  and  C7_14 
ROOT
HETATM    1  C5  UNL     1       7.008   1.097   9.146  1.00  0.00     0.034 C 
ENDROOT
BRANCH   1   2
HETATM    2  C4  UNL     1       5.900   1.810   8.501  1.00  0.00     0.092 C 
HETATM    3  N1  UNL     1       4.816   1.145   8.295  1.00  0.00    -0.334 N 
HETATM    4  C1  UNL     1       3.728   1.812   7.673  1.00  0.00     0.250 C 
ATOM      5  H1  UNL     1       4.742   0.166   8.572  1.00  0.00     0.168 HD
HETATM    6  O1  UNL     1       2.542   1.567   8.028  1.00  0.00    -0.268 OA
BRANCH   4   7
HETATM    7  C2  UNL     1       3.996   2.775   6.629  1.00  0.00     0.148 C 
HETATM    8  C3  UNL     1       3.679   4.030   6.797  1.00  0.00     0.272 C 
HETATM    9  F1  UNL     1       3.100   4.450   7.935  1.00  0.00    -0.173 F 
HETATM   10  F2  UNL     1       3.928   4.926   5.826  1.00  0.00    -0.173 F 
ENDBRANCH   4   7
ENDBRANCH   1   2
BRANCH   1  11
HETATM   11  C6  UNL     1       6.870  -0.192   9.381  1.00  0.00     0.091 C 
BRANCH  11  12
HETATM   12  N2  UNL     1       6.757  -0.628  10.727  1.00  0.00    -0.345 N 
ATOM     13  H2  UNL     1       6.590   0.040  11.479  1.00  0.00     0.167 HD
BRANCH  12  14
HETATM   14  C7  UNL     1       6.872  -1.907  10.984  1.00  0.00     0.164 A 
HETATM   15  N3  UNL     1       6.691  -2.531  12.154  1.00  0.00    -0.280 N 
HETATM   16  N4  UNL     1       6.849  -3.789  12.207  1.00  0.00    -0.303 N 
ATOM     17  H3  UNL     1       6.430  -2.005  12.988  1.00  0.00     0.189 HD
HETATM   18  C8  UNL     1       7.187  -4.465  11.118  1.00  0.00     0.160 A 
ATOM     19  H4  UNL     1       6.716  -4.282  13.090  1.00  0.00     0.186 HD
HETATM   20  S1  UNL     1       7.281  -3.211   9.961  1.00  0.00    -0.046 SA
ENDBRANCH  12  14
ENDBRANCH  11  12
ENDBRANCH   1  11
TORSDOF 5
ENDMDL
MODEL 2
REMARK VINA RESULT: -6.416781177      3.859      5.302
REMARK  5 active torsions:
REMARK  status: ('A' for Active; 'I' for Inactive)
REMARK    1  A    between atoms: C1_2  and  C2_3 
REMARK       I    between atoms: C1_2  and  N1_7 
REMARK    2  A    between atoms: C4_9  and  C5_10 
REMARK    3  A    between atoms: C5_10  and  C6_11 
REMARK    4  A    between atoms: C6_11  and  N2_12 
REMARK    5  A    between atoms: N2_12  and  C7_14 
ROOT
HETATM    1  C5  UNL     1       6.951  -3.818  11.410  1.00  0.00     0.034 C 
ENDROOT
BRANCH   1   2
HETATM    2  C4  UNL     1       6.992  -2.379  11.128  1.00  0.00     0.092 C 
HETATM    3  N1  UNL     1       7.149  -1.590  12.135  1.00  0.00    -0.334 N 
HETATM    4  C1  UNL     1       7.193  -0.193  11.890  1.00  0.00     0.250 C 
ATOM      5  H1  UNL     1       7.238  -1.960  13.081  1.00  0.00     0.168 HD
HETATM    6  O1  UNL     1       7.968   0.548  12.555  1.00  0.00    -0.268 OA
BRANCH   4   7
HETATM    7  C2  UNL     1       6.340   0.372  10.869  1.00  0.00     0.148 C 
HETATM    8  C3  UNL     1       6.859   1.032   9.871  1.00  0.00     0.272 C 
HETATM    9  F1  UNL     1       8.189   1.200   9.771  1.00  0.00    -0.173 F 
HETATM   10  F2  UNL     1       6.065   1.557   8.921  1.00  0.00    -0.173 F 
ENDBRANCH   4   7
ENDBRANCH   1   2
BRANCH   1  11
HETATM   11  C6  UNL     1       7.663  -4.626  10.652  1.00  0.00     0.091 C 
BRANCH  11  12
HETATM   12  N2  UNL     1       8.730  -4.078   9.891  1.00  0.00    -0.345 N 
ATOM     13  H2  UNL     1       9.490  -3.574  10.348  1.00  0.00     0.167 HD
BRANCH  12  14
HETATM   14  C7  UNL     1       8.717  -4.233   8.591  1.00  0.00     0.164 A 
HETATM   15  N3  UNL     1       9.667  -4.770   7.817  1.00  0.00    -0.280 N 
HETATM   16  N4  UNL     1       9.472  -4.834   6.564  1.00  0.00    -0.303 N 
ATOM     17  H3  UNL     1      10.533  -5.122   8.226  1.00  0.00     0.189 HD
HETATM   18  C8  UNL     1       8.344  -4.375   6.041  1.00  0.00     0.160 A 
ATOM     19  H4  UNL     1      10.186  -5.240   5.959  1.00  0.00     0.186 HD
HETATM   20  S1  UNL     1       7.528  -3.822   7.437  1.00  0.00    -0.046 SA
ENDBRANCH  12  14
ENDBRANCH  11  12
ENDBRANCH   1  11
TORSDOF 5
ENDMDL
MODEL 3
REMARK VINA RESULT: -6.373136164      6.701      7.759
REMARK  5 active torsions:
REMARK  status: ('A' for Active; 'I' for Inactive)
REMARK    1  A    between atoms: C1_2  and  C2_3 
REMARK       I    between atoms: C1_2  and  N1_7 
REMARK    2  A    between atoms: C4_9  and  C5_10 
REMARK    3  A    between atoms: C5_10  and  C6_11 
REMARK    4  A    between atoms: C6_11  and  N2_12 
REMARK    5  A    between atoms: N2_12  and  C7_14 
ROOT
HETATM    1  C5  UNL     1       6.921  -4.824   7.085  1.00  0.00     0.034 C 
ENDROOT
BRANCH   1   2
HETATM    2  C4  UNL     1       8.237  -4.683   6.452  1.00  0.00     0.092 C 
HETATM    3  N1  UNL     1       8.310  -3.916   5.419  1.00  0.00    -0.334 N 
HETATM    4  C1  UNL     1       9.572  -3.761   4.788  1.00  0.00     0.250 C 
ATOM      5  H1  UNL     1       7.484  -3.434   5.065  1.00  0.00     0.168 HD
HETATM    6  O1  UNL     1       9.913  -2.645   4.308  1.00  0.00    -0.268 OA
BRANCH   4   7
HETATM    7  C2  UNL     1      10.460  -4.897   4.700  1.00  0.00     0.148 C 
HETATM    8  C3  UNL     1      10.696  -5.459   3.546  1.00  0.00     0.272 C 
HETATM    9  F1  UNL     1      10.120  -4.996   2.423  1.00  0.00    -0.173 F 
HETATM   10  F2  UNL     1      11.523  -6.516   3.464  1.00  0.00    -0.173 F 
ENDBRANCH   4   7
ENDBRANCH   1   2
BRANCH   1  11
HETATM   11  C6  UNL     1       6.668  -4.118   8.168  1.00  0.00     0.091 C 
BRANCH  11  12
HETATM   12  N2  UNL     1       7.649  -4.073   9.194  1.00  0.00    -0.345 N 
ATOM     13  H2  UNL     1       8.630  -4.259   8.985  1.00  0.00     0.167 HD
BRANCH  12  14
HETATM   14  C7  UNL     1       7.268  -3.786  10.413  1.00  0.00     0.164 A 
HETATM   15  N3  UNL     1       6.969  -4.636  11.403  1.00  0.00    -0.280 N 
HETATM   16  N4  UNL     1       6.616  -4.164  12.528  1.00  0.00    -0.303 N 
ATOM     17  H3  UNL     1       7.023  -5.644  11.256  1.00  0.00     0.189 HD
HETATM   18  C8  UNL     1       6.549  -2.853  12.710  1.00  0.00     0.160 A 
ATOM     19  H4  UNL     1       6.384  -4.797  13.294  1.00  0.00     0.186 HD
HETATM   20  S1  UNL     1       7.021  -2.277  11.172  1.00  0.00    -0.046 SA
ENDBRANCH  12  14
ENDBRANCH  11  12
ENDBRANCH   1  11
TORSDOF 5
ENDMDL
MODEL 4
REMARK VINA RESULT: -6.356943021      4.927      6.319
REMARK  5 active torsions:
REMARK  status: ('A' for Active; 'I' for Inactive)
REMARK    1  A    between atoms: C1_2  and  C2_3 
REMARK       I    between atoms: C1_2  and  N1_7 
REMARK    2  A    between atoms: C4_9  and  C5_10 
REMARK    3  A    between atoms: C5_10  and  C6_11 
REMARK    4  A    between atoms: C6_11  and  N2_12 
REMARK    5  A    between atoms: N2_12  and  C7_14 
ROOT
HETATM    1  C5  UNL     1       7.750  -4.110   9.240  1.00  0.00     0.034 C 
ENDROOT
BRANCH   1   2
HETATM    2  C4  UNL     1       7.191  -2.998  10.017  1.00  0.00     0.092 C 
HETATM    3  N1  UNL     1       7.162  -1.843   9.447  1.00  0.00    -0.334 N 
HETATM    4  C1  UNL     1       6.625  -0.750  10.177  1.00  0.00     0.250 C 
ATOM      5  H1  UNL     1       7.514  -1.718   8.498  1.00  0.00     0.168 HD
HETATM    6  O1  UNL     1       5.942   0.135   9.591  1.00  0.00    -0.268 OA
BRANCH   4   7
HETATM    7  C2  UNL     1       6.873  -0.662  11.598  1.00  0.00     0.148 C 
HETATM    8  C3  UNL     1       7.600   0.309  12.078  1.00  0.00     0.272 C 
HETATM    9  F1  UNL     1       8.132   1.240  11.267  1.00  0.00    -0.173 F 
HETATM   10  F2  UNL     1       7.830   0.392  13.401  1.00  0.00    -0.173 F 
ENDBRANCH   4   7
ENDBRANCH   1   2
BRANCH   1  11
HETATM   11  C6  UNL     1       8.979  -3.999   8.782  1.00  0.00     0.091 C 
BRANCH  11  12
HETATM   12  N2  UNL     1       9.391  -4.855   7.727  1.00  0.00    -0.345 N 
ATOM     13  H2  UNL     1       9.641  -5.827   7.912  1.00  0.00     0.167 HD
BRANCH  12  14
HETATM   14  C7  UNL     1       9.443  -4.372   6.511  1.00  0.00     0.164 A 
HETATM   15  N3  UNL     1      10.530  -4.065   5.793  1.00  0.00    -0.280 N 
HETATM   16  N4  UNL     1      10.378  -3.604   4.620  1.00  0.00    -0.303 N 
ATOM     17  H3  UNL     1      11.464  -4.200   6.181  1.00  0.00     0.189 HD
HETATM   18  C8  UNL     1       9.161  -3.433   4.123  1.00  0.00     0.160 A 
ATOM     19  H4  UNL     1      11.195  -3.364   4.058  1.00  0.00     0.186 HD
HETATM   20  S1  UNL     1       8.190  -3.968   5.424  1.00  0.00    -0.046 SA
ENDBRANCH  12  14
ENDBRANCH  11  12
ENDBRANCH   1  11
TORSDOF 5
ENDMDL
MODEL 5
REMARK VINA RESULT: -6.278916957      2.542      2.575
REMARK  5 active torsions:
REMARK  status: ('A' for Active; 'I' for Inactive)
REMARK    1  A    between atoms: C1_2  and  C2_3 
REMARK       I    between atoms: C1_2  and  N1_7 
REMARK    2  A    between atoms: C4_9  and  C5_10 
REMARK    3  A    between atoms: C5_10  and  C6_11 
REMARK    4  A    between atoms: C6_11  and  N2_12 
REMARK    5  A    between atoms: N2_12  and  C7_14 
ROOT
HETATM    1  C5  UNL     1       6.145   0.482   8.408  1.00  0.00     0.034 C 
ENDROOT
BRANCH   1   2
HETATM    2  C4  UNL     1       5.272   1.580   7.978  1.00  0.00     0.092 C 
HETATM    3  N1  UNL     1       4.063   1.274   7.654  1.00  0.00    -0.334 N 
HETATM    4  C1  UNL     1       3.197   2.317   7.235  1.00  0.00     0.250 C 
ATOM      5  H1  UNL     1       3.738   0.308   7.697  1.00  0.00     0.168 HD
HETATM    6  O1  UNL     1       1.977   2.302   7.556  1.00  0.00    -0.268 OA
BRANCH   4   7
HETATM    7  C2  UNL     1       3.729   3.398   6.436  1.00  0.00     0.148 C 
HETATM    8  C3  UNL     1       3.683   4.625   6.878  1.00  0.00     0.272 C 
HETATM    9  F1  UNL     1       3.142   4.908   8.075  1.00  0.00    -0.173 F 
HETATM   10  F2  UNL     1       4.178   5.630   6.135  1.00  0.00    -0.173 F 
ENDBRANCH   4   7
ENDBRANCH   1   2
BRANCH   1  11
HETATM   11  C6  UNL     1       5.864  -0.738   8.000  1.00  0.00     0.091 C 
BRANCH  11  12
HETATM   12  N2  UNL     1       6.548  -1.829   8.598  1.00  0.00    -0.345 N 
ATOM     13  H2  UNL     1       7.014  -1.720   9.499  1.00  0.00     0.167 HD
BRANCH  12  14
HETATM   14  C7  UNL     1       6.568  -2.977   7.970  1.00  0.00     0.164 A 
HETATM   15  N3  UNL     1       5.534  -3.774   7.678  1.00  0.00    -0.280 N 
HETATM   16  N4  UNL     1       5.754  -4.860   7.058  1.00  0.00    -0.303 N 
ATOM     17  H3  UNL     1       4.585  -3.515   7.950  1.00  0.00     0.189 HD
HETATM   18  C8  UNL     1       6.989  -5.189   6.708  1.00  0.00     0.160 A 
ATOM     19  H4  UNL     1       4.977  -5.480   6.827  1.00  0.00     0.186 HD
HETATM   20  S1  UNL     1       7.874  -3.858   7.312  1.00  0.00    -0.046 SA
ENDBRANCH  12  14
ENDBRANCH  11  12
ENDBRANCH   1  11
TORSDOF 5
ENDMDL
