MODEL 1
REMARK VINA RESULT: -6.656582288      0.000      0.000
REMARK  2 active torsions:
REMARK  status: ('A' for Active; 'I' for Inactive)
REMARK    1  A    between atoms: C1_2  and  C2_4 
REMARK    2  A    between atoms: C4_8  and  N2_9 
ROOT
HETATM    1  C2  UNL     1       5.141   1.873   7.144  1.00  0.00     0.153 A 
HETATM    2  N1  UNL     1       5.933   2.254   8.132  1.00  0.00    -0.352 N 
ATOM      3  H1  UNL     1       6.114   3.246   8.287  1.00  0.00     0.166 HD
HETATM    4  C3  UNL     1       6.478   1.370   8.903  1.00  0.00     0.126 A 
HETATM    5  C4  UNL     1       6.207   0.046   8.660  1.00  0.00     0.090 A 
HETATM    6  S1  UNL     1       5.158   0.171   7.302  1.00  0.00    -0.046 SA
ENDROOT
BRANCH   5   7
HETATM    7  N2  UNL     1       6.678  -1.113   9.358  1.00  0.00    -0.370 N 
HETATM    8  C5  UNL     1       7.026  -2.280   8.590  1.00  0.00     0.124 C 
HETATM    9  C6  UNL     1       6.834  -3.539   9.395  1.00  0.00     0.024 C 
HETATM   10  C7  UNL     1       7.642  -3.399  10.681  1.00  0.00     0.040 C 
HETATM   11  C8  UNL     1       6.985  -2.313  11.461  1.00  0.00    -0.035 C 
HETATM   12  C9  UNL     1       6.611  -2.505  12.706  1.00  0.00     0.192 C 
HETATM   13  C10 UNL     1       6.767  -1.017  10.796  1.00  0.00     0.160 C 
HETATM   14  F1  UNL     1       6.819  -3.696  13.291  1.00  0.00    -0.219 F 
ENDBRANCH   5   7
BRANCH   1  15
HETATM   15  C1  UNL     1       4.464   2.750   6.205  1.00  0.00     0.234 C 
HETATM   16  O1  UNL     1       4.876   2.879   5.037  1.00  0.00    -0.642 OA
HETATM   17  O2  UNL     1       3.352   3.450   6.603  1.00  0.00    -0.642 OA
ENDBRANCH   1  15
TORSDOF 2
ENDMDL
MODEL 2
REMARK VINA RESULT: -6.648309030      1.313      1.777
REMARK  2 active torsions:
REMARK  status: ('A' for Active; 'I' for Inactive)
REMARK    1  A    between atoms: C1_2  and  C2_4 
REMARK    2  A    between atoms: C4_8  and  N2_9 
ROOT
HETATM    1  C2  UNL     1       4.548   2.185   7.379  1.00  0.00     0.153 A 
HETATM    2  N1  UNL     1       5.645   2.209   8.119  1.00  0.00    -0.352 N 
ATOM      3  H1  UNL     1       6.015   3.099   8.453  1.00  0.00     0.166 HD
HETATM    4  C3  UNL     1       6.247   1.105   8.420  1.00  0.00     0.126 A 
HETATM    5  C4  UNL     1       5.714  -0.071   7.951  1.00  0.00     0.090 A 
HETATM    6  S1  UNL     1       4.346   0.514   7.086  1.00  0.00    -0.046 SA
ENDROOT
BRANCH   5   7
HETATM    7  N2  UNL     1       6.182  -1.411   8.140  1.00  0.00    -0.370 N 
HETATM    8  C5  UNL     1       5.950  -2.370   7.091  1.00  0.00     0.124 C 
HETATM    9  C6  UNL     1       5.848  -3.769   7.646  1.00  0.00     0.024 C 
HETATM   10  C7  UNL     1       7.115  -4.045   8.450  1.00  0.00     0.040 C 
HETATM   11  C8  UNL     1       7.059  -3.135   9.628  1.00  0.00    -0.035 C 
HETATM   12  C9  UNL     1       7.186  -3.601  10.849  1.00  0.00     0.192 C 
HETATM   13  C10 UNL     1       6.858  -1.696   9.384  1.00  0.00     0.160 C 
HETATM   14  F1  UNL     1       7.368  -4.917  11.049  1.00  0.00    -0.219 F 
ENDBRANCH   5   7
BRANCH   1  15
HETATM   15  C1  UNL     1       3.772   3.340   6.966  1.00  0.00     0.234 C 
HETATM   16  O1  UNL     1       2.816   3.749   7.651  1.00  0.00    -0.642 OA
HETATM   17  O2  UNL     1       4.091   3.998   5.803  1.00  0.00    -0.642 OA
ENDBRANCH   1  15
TORSDOF 2
ENDMDL
MODEL 3
REMARK VINA RESULT: -6.435258451      2.403      3.104
REMARK  2 active torsions:
REMARK  status: ('A' for Active; 'I' for Inactive)
REMARK    1  A    between atoms: C1_2  and  C2_4 
REMARK    2  A    between atoms: C4_8  and  N2_9 
ROOT
HETATM    1  C2  UNL     1       4.588   2.213   7.295  1.00  0.00     0.153 A 
HETATM    2  N1  UNL     1       5.702   2.181   8.007  1.00  0.00    -0.352 N 
ATOM      3  H1  UNL     1       6.133   3.051   8.319  1.00  0.00     0.166 HD
HETATM    4  C3  UNL     1       6.246   1.047   8.309  1.00  0.00     0.126 A 
HETATM    5  C4  UNL     1       5.632  -0.101   7.871  1.00  0.00     0.090 A 
HETATM    6  S1  UNL     1       4.280   0.552   7.031  1.00  0.00    -0.046 SA
ENDROOT
BRANCH   5   7
HETATM    7  N2  UNL     1       6.025  -1.464   8.068  1.00  0.00    -0.370 N 
HETATM    8  C5  UNL     1       7.032  -1.751   9.056  1.00  0.00     0.124 C 
HETATM    9  C6  UNL     1       7.805  -2.995   8.701  1.00  0.00     0.024 C 
HETATM   10  C7  UNL     1       6.801  -4.129   8.514  1.00  0.00     0.040 C 
HETATM   11  C8  UNL     1       6.012  -3.781   7.300  1.00  0.00    -0.035 C 
HETATM   12  C9  UNL     1       5.890  -4.630   6.305  1.00  0.00     0.192 C 
HETATM   13  C10 UNL     1       5.370  -2.456   7.247  1.00  0.00     0.160 C 
HETATM   14  F1  UNL     1       6.485  -5.832   6.374  1.00  0.00    -0.219 F 
ENDBRANCH   5   7
BRANCH   1  15
HETATM   15  C1  UNL     1       3.871   3.406   6.884  1.00  0.00     0.234 C 
HETATM   16  O1  UNL     1       4.139   3.977   5.810  1.00  0.00    -0.642 OA
HETATM   17  O2  UNL     1       2.881   3.919   7.686  1.00  0.00    -0.642 OA
ENDBRANCH   1  15
TORSDOF 2
ENDMDL
MODEL 4
REMARK VINA RESULT: -6.265044338      5.543      6.899
REMARK  2 active torsions:
REMARK  status: ('A' for Active; 'I' for Inactive)
REMARK    1  A    between atoms: C1_2  and  C2_4 
REMARK    2  A    between atoms: C4_8  and  N2_9 
ROOT
HETATM    1  C2  UNL     1       6.673  -3.305  12.227  1.00  0.00     0.153 A 
HETATM    2  N1  UNL     1       6.730  -2.200  11.502  1.00  0.00    -0.352 N 
ATOM      3  H1  UNL     1       6.518  -1.298  11.930  1.00  0.00     0.166 HD
HETATM    4  C3  UNL     1       7.055  -2.261  10.252  1.00  0.00     0.126 A 
HETATM    5  C4  UNL     1       7.334  -3.494   9.716  1.00  0.00     0.090 A 
HETATM    6  S1  UNL     1       7.101  -4.506  11.088  1.00  0.00    -0.046 SA
ENDROOT
BRANCH   5   7
HETATM    7  N2  UNL     1       7.713  -3.830   8.377  1.00  0.00    -0.370 N 
HETATM    8  C5  UNL     1       9.027  -4.374   8.153  1.00  0.00     0.124 C 
HETATM    9  C6  UNL     1       9.526  -4.042   6.770  1.00  0.00     0.024 C 
HETATM   10  C7  UNL     1       8.487  -4.539   5.768  1.00  0.00     0.040 C 
HETATM   11  C8  UNL     1       7.278  -3.694   5.979  1.00  0.00    -0.035 C 
HETATM   12  C9  UNL     1       6.715  -3.058   4.977  1.00  0.00     0.192 C 
HETATM   13  C10 UNL     1       6.732  -3.594   7.343  1.00  0.00     0.160 C 
HETATM   14  F1  UNL     1       7.231  -3.163   3.741  1.00  0.00    -0.219 F 
ENDBRANCH   5   7
BRANCH   1  15
HETATM   15  C1  UNL     1       6.325  -3.387  13.634  1.00  0.00     0.234 C 
HETATM   16  O1  UNL     1       5.162  -3.164  14.021  1.00  0.00    -0.642 OA
HETATM   17  O2  UNL     1       7.286  -3.715  14.558  1.00  0.00    -0.642 OA
ENDBRANCH   1  15
TORSDOF 2
ENDMDL
MODEL 5
REMARK VINA RESULT: -6.263296990      1.840      2.209
REMARK  2 active torsions:
REMARK  status: ('A' for Active; 'I' for Inactive)
REMARK    1  A    between atoms: C1_2  and  C2_4 
REMARK    2  A    between atoms: C4_8  and  N2_9 
ROOT
HETATM    1  C2  UNL     1       4.237   1.332   6.962  1.00  0.00     0.153 A 
HETATM    2  N1  UNL     1       3.836   0.273   6.278  1.00  0.00    -0.352 N 
ATOM      3  H1  UNL     1       3.070   0.358   5.609  1.00  0.00     0.166 HD
HETATM    4  C3  UNL     1       4.414  -0.871   6.457  1.00  0.00     0.126 A 
HETATM    5  C4  UNL     1       5.440  -0.941   7.366  1.00  0.00     0.090 A 
HETATM    6  S1  UNL     1       5.502   0.689   7.915  1.00  0.00    -0.046 SA
ENDROOT
BRANCH   5   7
HETATM    7  N2  UNL     1       6.234  -2.072   7.744  1.00  0.00    -0.370 N 
HETATM    8  C5  UNL     1       6.453  -3.110   6.771  1.00  0.00     0.124 C 
HETATM    9  C6  UNL     1       6.665  -4.445   7.438  1.00  0.00     0.024 C 
HETATM   10  C7  UNL     1       7.815  -4.293   8.429  1.00  0.00     0.040 C 
HETATM   11  C8  UNL     1       7.318  -3.380   9.496  1.00  0.00    -0.035 C 
HETATM   12  C9  UNL     1       7.377  -3.724  10.763  1.00  0.00     0.192 C 
HETATM   13  C10 UNL     1       6.758  -2.079   9.090  1.00  0.00     0.160 C 
HETATM   14  F1  UNL     1       7.890  -4.915  11.110  1.00  0.00    -0.219 F 
ENDBRANCH   5   7
BRANCH   1  15
HETATM   15  C1  UNL     1       3.684   2.670   6.865  1.00  0.00     0.234 C 
HETATM   16  O1  UNL     1       4.183   3.516   6.099  1.00  0.00    -0.642 OA
HETATM   17  O2  UNL     1       2.595   3.017   7.626  1.00  0.00    -0.642 OA
ENDBRANCH   1  15
TORSDOF 2
ENDMDL
