MODEL 1
REMARK VINA RESULT: -6.180596524      0.000      0.000
REMARK  2 active torsions:
REMARK  status: ('A' for Active; 'I' for Inactive)
REMARK    1  A    between atoms: C1_2  and  C2_4 
REMARK    2  A    between atoms: C4_8  and  N2_9 
ROOT
HETATM    1  C2  UNL     1       8.111  -4.180   7.490  1.00  0.00     0.100 A 
HETATM    2  C3  UNL     1       9.104  -4.347   8.424  1.00  0.00     0.116 A 
HETATM    3  N1  UNL     1       8.833  -4.023   9.647  1.00  0.00    -0.345 N 
ATOM      4  H1  UNL     1       9.544  -4.133  10.370  1.00  0.00     0.167 HD
HETATM    5  C4  UNL     1       7.641  -3.551   9.964  1.00  0.00     0.148 A 
HETATM    6  S1  UNL     1       6.837  -3.556   8.458  1.00  0.00    -0.046 SA
ENDROOT
BRANCH   5   7
HETATM    7  N2  UNL     1       7.144  -3.137  11.248  1.00  0.00    -0.344 N 
HETATM    8  C5  UNL     1       6.661  -4.041  12.244  1.00  0.00     0.127 C 
HETATM    9  C6  UNL     1       6.224  -3.151  13.413  1.00  0.00     0.023 C 
HETATM   10  C7  UNL     1       5.868  -1.873  12.678  1.00  0.00     0.043 C 
HETATM   11  C8  UNL     1       7.060  -1.776  11.713  1.00  0.00     0.183 C 
HETATM   12 CL1  UNL     1       6.778  -0.608  10.437  1.00  0.00    -0.102 Cl
ENDBRANCH   5   7
BRANCH   1  13
HETATM   13  C1  UNL     1       8.149  -4.465   6.046  1.00  0.00     0.218 C 
HETATM   14  O1  UNL     1       7.088  -4.306   5.404  1.00  0.00    -0.643 OA
HETATM   15  O2  UNL     1       9.302  -4.890   5.421  1.00  0.00    -0.643 OA
ENDBRANCH   1  13
TORSDOF 2
ENDMDL
MODEL 2
REMARK VINA RESULT: -6.079314323      3.709      5.731
REMARK  2 active torsions:
REMARK  status: ('A' for Active; 'I' for Inactive)
REMARK    1  A    between atoms: C1_2  and  C2_4 
REMARK    2  A    between atoms: C4_8  and  N2_9 
ROOT
HETATM    1  C2  UNL     1       6.887  -1.795  11.262  1.00  0.00     0.100 A 
HETATM    2  C3  UNL     1       7.111  -3.131  11.492  1.00  0.00     0.116 A 
HETATM    3  N1  UNL     1       7.360  -3.878  10.466  1.00  0.00    -0.345 N 
ATOM      4  H1  UNL     1       7.532  -4.875  10.596  1.00  0.00     0.167 HD
HETATM    5  C4  UNL     1       7.394  -3.358   9.253  1.00  0.00     0.148 A 
HETATM    6  S1  UNL     1       7.056  -1.712   9.555  1.00  0.00    -0.046 SA
ENDROOT
BRANCH   5   7
HETATM    7  N2  UNL     1       7.651  -4.008   7.996  1.00  0.00    -0.344 N 
HETATM    8  C5  UNL     1       8.958  -4.199   7.451  1.00  0.00     0.127 C 
HETATM    9  C6  UNL     1       8.732  -4.904   6.109  1.00  0.00     0.023 C 
HETATM   10  C7  UNL     1       7.344  -4.403   5.756  1.00  0.00     0.043 C 
HETATM   11  C8  UNL     1       6.649  -4.554   7.117  1.00  0.00     0.183 C 
HETATM   12 CL1  UNL     1       5.119  -3.700   7.171  1.00  0.00    -0.102 Cl
ENDBRANCH   5   7
BRANCH   1  13
HETATM   13  C1  UNL     1       6.585  -0.732  12.235  1.00  0.00     0.218 C 
HETATM   14  O1  UNL     1       5.408  -0.655  12.650  1.00  0.00    -0.643 OA
HETATM   15  O2  UNL     1       7.554   0.146  12.674  1.00  0.00    -0.643 OA
ENDBRANCH   1  13
TORSDOF 2
ENDMDL
MODEL 3
REMARK VINA RESULT: -5.940667016      0.750      1.099
REMARK  2 active torsions:
REMARK  status: ('A' for Active; 'I' for Inactive)
REMARK    1  A    between atoms: C1_2  and  C2_4 
REMARK    2  A    between atoms: C4_8  and  N2_9 
ROOT
HETATM    1  C2  UNL     1       7.579  -3.581   7.120  1.00  0.00     0.100 A 
HETATM    2  C3  UNL     1       8.665  -3.870   7.910  1.00  0.00     0.116 A 
HETATM    3  N1  UNL     1       8.545  -3.677   9.183  1.00  0.00    -0.345 N 
ATOM      4  H1  UNL     1       9.329  -3.880   9.803  1.00  0.00     0.167 HD
HETATM    5  C4  UNL     1       7.413  -3.218   9.686  1.00  0.00     0.148 A 
HETATM    6  S1  UNL     1       6.444  -3.041   8.292  1.00  0.00    -0.046 SA
ENDROOT
BRANCH   5   7
HETATM    7  N2  UNL     1       7.079  -2.938  11.056  1.00  0.00    -0.344 N 
HETATM    8  C5  UNL     1       6.678  -3.936  11.997  1.00  0.00     0.127 C 
HETATM    9  C6  UNL     1       6.407  -3.172  13.298  1.00  0.00     0.023 C 
HETATM   10  C7  UNL     1       6.018  -1.811  12.752  1.00  0.00     0.043 C 
HETATM   11  C8  UNL     1       7.097  -1.637  11.672  1.00  0.00     0.183 C 
HETATM   12 CL1  UNL     1       6.717  -0.326  10.571  1.00  0.00    -0.102 Cl
ENDBRANCH   5   7
BRANCH   1  13
HETATM   13  C1  UNL     1       7.443  -3.706   5.660  1.00  0.00     0.218 C 
HETATM   14  O1  UNL     1       8.443  -3.419   4.966  1.00  0.00    -0.643 OA
HETATM   15  O2  UNL     1       6.266  -4.121   5.074  1.00  0.00    -0.643 OA
ENDBRANCH   1  13
TORSDOF 2
ENDMDL
MODEL 4
REMARK VINA RESULT: -5.927237054      3.805      5.831
REMARK  2 active torsions:
REMARK  status: ('A' for Active; 'I' for Inactive)
REMARK    1  A    between atoms: C1_2  and  C2_4 
REMARK    2  A    between atoms: C4_8  and  N2_9 
ROOT
HETATM    1  C2  UNL     1       6.715  -3.226  12.019  1.00  0.00     0.100 A 
HETATM    2  C3  UNL     1       6.859  -2.155  11.171  1.00  0.00     0.116 A 
HETATM    3  N1  UNL     1       7.217  -2.403   9.953  1.00  0.00    -0.345 N 
ATOM      4  H1  UNL     1       7.335  -1.634   9.293  1.00  0.00     0.167 HD
HETATM    5  C4  UNL     1       7.432  -3.644   9.559  1.00  0.00     0.148 A 
HETATM    6  S1  UNL     1       7.114  -4.535  10.981  1.00  0.00    -0.046 SA
ENDROOT
BRANCH   5   7
HETATM    7  N2  UNL     1       7.831  -4.128   8.265  1.00  0.00    -0.344 N 
HETATM    8  C5  UNL     1       9.191  -4.225   7.837  1.00  0.00     0.127 C 
HETATM    9  C6  UNL     1       9.121  -4.762   6.403  1.00  0.00     0.023 C 
HETATM   10  C7  UNL     1       7.760  -4.247   5.974  1.00  0.00     0.043 C 
HETATM   11  C8  UNL     1       6.938  -4.578   7.229  1.00  0.00     0.183 C 
HETATM   12 CL1  UNL     1       5.385  -3.766   7.230  1.00  0.00    -0.102 Cl
ENDBRANCH   5   7
BRANCH   1  13
HETATM   13  C1  UNL     1       6.323  -3.230  13.438  1.00  0.00     0.218 C 
HETATM   14  O1  UNL     1       5.192  -2.779  13.720  1.00  0.00    -0.643 OA
HETATM   15  O2  UNL     1       7.164  -3.709  14.421  1.00  0.00    -0.643 OA
ENDBRANCH   1  13
TORSDOF 2
ENDMDL
MODEL 5
REMARK VINA RESULT: -5.813025766      3.989      4.781
REMARK  2 active torsions:
REMARK  status: ('A' for Active; 'I' for Inactive)
REMARK    1  A    between atoms: C1_2  and  C2_4 
REMARK    2  A    between atoms: C4_8  and  N2_9 
ROOT
HETATM    1  C2  UNL     1       5.821   1.011   7.831  1.00  0.00     0.100 A 
HETATM    2  C3  UNL     1       6.471   1.352   8.992  1.00  0.00     0.116 A 
HETATM    3  N1  UNL     1       6.865   0.388   9.760  1.00  0.00    -0.345 N 
ATOM      4  H1  UNL     1       7.352   0.601  10.631  1.00  0.00     0.167 HD
HETATM    5  C4  UNL     1       6.641  -0.868   9.424  1.00  0.00     0.148 A 
HETATM    6  S1  UNL     1       5.824  -0.704   7.934  1.00  0.00    -0.046 SA
ENDROOT
BRANCH   5   7
HETATM    7  N2  UNL     1       6.992  -2.071  10.129  1.00  0.00    -0.344 N 
HETATM    8  C5  UNL     1       7.250  -3.322   9.489  1.00  0.00     0.127 C 
HETATM    9  C6  UNL     1       7.556  -4.300  10.629  1.00  0.00     0.023 C 
HETATM   10  C7  UNL     1       6.766  -3.670  11.761  1.00  0.00     0.043 C 
HETATM   11  C8  UNL     1       7.134  -2.192  11.557  1.00  0.00     0.183 C 
HETATM   12 CL1  UNL     1       6.084  -1.123  12.467  1.00  0.00    -0.102 Cl
ENDBRANCH   5   7
BRANCH   1  13
HETATM   13  C1  UNL     1       5.274   1.895   6.789  1.00  0.00     0.218 C 
HETATM   14  O1  UNL     1       5.644   1.689   5.613  1.00  0.00    -0.643 OA
HETATM   15  O2  UNL     1       4.390   2.909   7.091  1.00  0.00    -0.643 OA
ENDBRANCH   1  13
TORSDOF 2
ENDMDL
