MODEL 1
REMARK VINA RESULT: -7.474861503      0.000      0.000
REMARK  10 active torsions:
REMARK  status: ('A' for Active; 'I' for Inactive)
REMARK    1  A    between atoms: N1_1  and  C1_4 
REMARK    2  A    between atoms: C2_7  and  N3_8 
REMARK    3  A    between atoms: N3_8  and  N4_10 
REMARK    4  A    between atoms: C4_16  and  C5_17 
REMARK    5  A    between atoms: C5_17  and  N6_18 
REMARK    6  A    between atoms: N6_18  and  S1_20 
REMARK    7  A    between atoms: S1_20  and  N7_21 
REMARK    8  A    between atoms: S1_20  and  N8_25 
REMARK    9  A    between atoms: N8_25  and  C6_27 
REMARK   10  A    between atoms: N12_34  and  O2_35 
ROOT
HETATM    1  N6  UNL     1      12.413   5.172  21.083  1.00  0.00    -0.315 N 
ATOM      2  H6  UNL     1      12.669   4.801  20.168  1.00  0.00     0.172 HD
ENDROOT
BRANCH   1   3
HETATM    3  C5  UNL     1      13.419   5.907  21.898  1.00  0.00     0.176 C 
BRANCH   3   4
HETATM    4  C4  UNL     1      14.143   6.863  21.078  1.00  0.00     0.020 A 
HETATM    5  C1  UNL     1      13.934   8.172  21.308  1.00  0.00     0.124 A 
HETATM    6  N2  UNL     1      14.532   9.125  20.585  1.00  0.00    -0.175 N 
HETATM    7  C2  UNL     1      15.373   8.718  19.585  1.00  0.00     0.697 A 
ATOM      8  H2  UNL     1      14.367  10.114  20.772  1.00  0.00     0.186 HD
HETATM    9  N5  UNL     1      15.584   7.431  19.339  1.00  0.00    -0.200 N 
HETATM   10  C3  UNL     1      14.996   6.474  20.057  1.00  0.00     0.118 A 
ATOM     11  H5  UNL     1      16.213   7.168  18.581  1.00  0.00     0.183 HD
BRANCH   5  12
HETATM   12  N1  UNL     1      13.137   8.566  22.231  1.00  0.00    -0.385 N 
ATOM     13  H12 UNL     1      13.480   8.792  23.165  1.00  0.00     0.157 HD
ATOM     14  H11 UNL     1      12.150   8.632  21.986  1.00  0.00     0.157 HD
ENDBRANCH   5  12
BRANCH   7  15
HETATM   15  N3  UNL     1      16.083   9.658  19.003  1.00  0.00    -0.138 N 
ATOM     16  H3  UNL     1      15.632  10.369  18.427  1.00  0.00     0.205 HD
BRANCH  15  17
HETATM   17  N4  UNL     1      17.450   9.666  19.187  1.00  0.00    -0.331 N 
ATOM     18  H42 UNL     1      17.938   8.792  19.385  1.00  0.00     0.177 HD
ATOM     19  H41 UNL     1      17.948  10.554  19.121  1.00  0.00     0.177 HD
ENDBRANCH  15  17
ENDBRANCH   7  15
ENDBRANCH   3   4
ENDBRANCH   1   3
BRANCH   1  20
HETATM   20  S1  UNL     1      10.860   4.955  21.672  1.00  0.00     0.206 S 
HETATM   21  O1  UNL     1      10.710   6.687  21.978  1.00  0.00    -0.206 OA
BRANCH  20  22
HETATM   22  N7  UNL     1      10.505   4.309  19.822  1.00  0.00    -0.328 N 
ATOM     23  H72 UNL     1       9.821   4.470  19.083  1.00  0.00     0.168 HD
ATOM     24  H71 UNL     1      11.339   3.747  19.989  1.00  0.00     0.168 HD
ENDBRANCH  20  22
BRANCH  20  25
HETATM   25  N8  UNL     1       9.212   4.912  21.995  1.00  0.00    -0.112 N 
ATOM     26  H8  UNL     1       9.058   4.391  22.859  1.00  0.00     0.197 HD
BRANCH  25  27
HETATM   27  C6  UNL     1       8.137   5.283  21.562  1.00  0.00     0.750 A 
HETATM   28  N9  UNL     1       7.486   6.445  21.659  1.00  0.00    -0.112 N 
HETATM   29  N10 UNL     1       6.250   6.319  21.209  1.00  0.00    -0.211 N 
ATOM     30  H9  UNL     1       7.887   7.307  22.028  1.00  0.00     0.207 HD
HETATM   31  N11 UNL     1       6.077   5.081  20.798  1.00  0.00    -0.186 N 
ATOM     32  H10 UNL     1       5.547   7.058  21.184  1.00  0.00     0.210 HD
HETATM   33  N12 UNL     1       7.171   4.435  20.990  1.00  0.00     0.034 N 
ATOM     34  H11 UNL     1       5.220   4.699  20.395  1.00  0.00     0.213 HD
BRANCH  33  35
HETATM   35  O2  UNL     1       7.489   3.100  20.750  1.00  0.00    -0.253 OA
ATOM     36  H2  UNL     1       7.730   2.828  19.872  1.00  0.00     0.247 HD
ENDBRANCH  33  35
ENDBRANCH  25  27
ENDBRANCH  20  25
ENDBRANCH   1  20
TORSDOF 10
ENDMDL
MODEL 2
REMARK VINA RESULT: -7.440416583      6.013      7.298
REMARK  10 active torsions:
REMARK  status: ('A' for Active; 'I' for Inactive)
REMARK    1  A    between atoms: N1_1  and  C1_4 
REMARK    2  A    between atoms: C2_7  and  N3_8 
REMARK    3  A    between atoms: N3_8  and  N4_10 
REMARK    4  A    between atoms: C4_16  and  C5_17 
REMARK    5  A    between atoms: C5_17  and  N6_18 
REMARK    6  A    between atoms: N6_18  and  S1_20 
REMARK    7  A    between atoms: S1_20  and  N7_21 
REMARK    8  A    between atoms: S1_20  and  N8_25 
REMARK    9  A    between atoms: N8_25  and  C6_27 
REMARK   10  A    between atoms: N12_34  and  O2_35 
ROOT
HETATM    1  N6  UNL     1      11.446   5.957  28.644  1.00  0.00    -0.315 N 
ATOM      2  H6  UNL     1      11.155   5.577  29.545  1.00  0.00     0.172 HD
ENDROOT
BRANCH   1   3
HETATM    3  C5  UNL     1      12.838   6.451  28.457  1.00  0.00     0.176 C 
BRANCH   3   4
HETATM    4  C4  UNL     1      12.907   7.885  28.678  1.00  0.00     0.020 A 
HETATM    5  C1  UNL     1      13.381   8.652  27.679  1.00  0.00     0.124 A 
HETATM    6  N2  UNL     1      13.510   9.977  27.801  1.00  0.00    -0.175 N 
HETATM    7  C2  UNL     1      13.143  10.536  28.995  1.00  0.00     0.697 A 
ATOM      8  H2  UNL     1      13.868  10.548  27.035  1.00  0.00     0.186 HD
HETATM    9  N5  UNL     1      12.681   9.794  29.993  1.00  0.00    -0.200 N 
HETATM   10  C3  UNL     1      12.545   8.473  29.880  1.00  0.00     0.118 A 
ATOM     11  H5  UNL     1      12.423  10.246  30.869  1.00  0.00     0.183 HD
BRANCH   5  12
HETATM   12  N1  UNL     1      13.743   8.139  26.562  1.00  0.00    -0.385 N 
ATOM     13  H12 UNL     1      14.663   8.331  26.165  1.00  0.00     0.157 HD
ATOM     14  H11 UNL     1      13.064   7.542  26.091  1.00  0.00     0.157 HD
ENDBRANCH   5  12
BRANCH   7  15
HETATM   15  N3  UNL     1      13.109  11.849  29.037  1.00  0.00    -0.138 N 
ATOM     16  H3  UNL     1      13.900  12.400  28.703  1.00  0.00     0.205 HD
BRANCH  15  17
HETATM   17  N4  UNL     1      11.985  12.468  29.542  1.00  0.00    -0.331 N 
ATOM     18  H42 UNL     1      11.415  11.989  30.240  1.00  0.00     0.177 HD
ATOM     19  H41 UNL     1      11.744  13.399  29.203  1.00  0.00     0.177 HD
ENDBRANCH  15  17
ENDBRANCH   7  15
ENDBRANCH   3   4
ENDBRANCH   1   3
BRANCH   1  20
HETATM   20  S1  UNL     1      10.359   6.025  27.372  1.00  0.00     0.206 S 
HETATM   21  O1  UNL     1      10.086   4.284  27.482  1.00  0.00    -0.206 OA
BRANCH  20  22
HETATM   22  N7  UNL     1       9.342   7.200  28.617  1.00  0.00    -0.328 N 
ATOM     23  H72 UNL     1       9.221   8.198  28.785  1.00  0.00     0.168 HD
ATOM     24  H71 UNL     1       9.012   6.311  28.992  1.00  0.00     0.168 HD
ENDBRANCH  20  22
BRANCH  20  25
HETATM   25  N8  UNL     1       9.044   6.008  26.326  1.00  0.00    -0.112 N 
ATOM     26  H8  UNL     1       8.191   6.166  26.865  1.00  0.00     0.197 HD
BRANCH  25  27
HETATM   27  C6  UNL     1       8.750   5.873  25.153  1.00  0.00     0.750 A 
HETATM   28  N9  UNL     1       8.601   6.754  24.161  1.00  0.00    -0.112 N 
HETATM   29  N10 UNL     1       8.065   6.170  23.103  1.00  0.00    -0.211 N 
ATOM     30  H9  UNL     1       8.863   7.738  24.213  1.00  0.00     0.207 HD
HETATM   31  N11 UNL     1       7.869   4.898  23.380  1.00  0.00    -0.186 N 
ATOM     32  H10 UNL     1       7.841   6.628  22.220  1.00  0.00     0.210 HD
HETATM   33  N12 UNL     1       8.261   4.682  24.585  1.00  0.00     0.034 N 
ATOM     34  H11 UNL     1       7.474   4.203  22.747  1.00  0.00     0.213 HD
BRANCH  33  35
HETATM   35  O2  UNL     1       8.240   3.517  25.350  1.00  0.00    -0.253 OA
ATOM     36  H2  UNL     1       7.879   2.722  24.978  1.00  0.00     0.247 HD
ENDBRANCH  33  35
ENDBRANCH  25  27
ENDBRANCH  20  25
ENDBRANCH   1  20
TORSDOF 10
ENDMDL
MODEL 3
REMARK VINA RESULT: -7.434588453      5.400      7.706
REMARK  10 active torsions:
REMARK  status: ('A' for Active; 'I' for Inactive)
REMARK    1  A    between atoms: N1_1  and  C1_4 
REMARK    2  A    between atoms: C2_7  and  N3_8 
REMARK    3  A    between atoms: N3_8  and  N4_10 
REMARK    4  A    between atoms: C4_16  and  C5_17 
REMARK    5  A    between atoms: C5_17  and  N6_18 
REMARK    6  A    between atoms: N6_18  and  S1_20 
REMARK    7  A    between atoms: S1_20  and  N7_21 
REMARK    8  A    between atoms: S1_20  and  N8_25 
REMARK    9  A    between atoms: N8_25  and  C6_27 
REMARK   10  A    between atoms: N12_34  and  O2_35 
ROOT
HETATM    1  N6  UNL     1      15.377   9.819  24.494  1.00  0.00    -0.315 N 
ATOM      2  H6  UNL     1      16.229  10.299  24.203  1.00  0.00     0.172 HD
ENDROOT
BRANCH   1   3
HETATM    3  C5  UNL     1      14.815   8.724  23.657  1.00  0.00     0.176 C 
BRANCH   3   4
HETATM    4  C4  UNL     1      15.429   8.718  22.340  1.00  0.00     0.020 A 
HETATM    5  C1  UNL     1      14.614   8.704  21.269  1.00  0.00     0.124 A 
HETATM    6  N2  UNL     1      15.087   8.667  20.019  1.00  0.00    -0.175 N 
HETATM    7  C2  UNL     1      16.446   8.640  19.862  1.00  0.00     0.697 A 
ATOM      8  H2  UNL     1      14.459   8.660  19.215  1.00  0.00     0.186 HD
HETATM    9  N5  UNL     1      17.263   8.645  20.908  1.00  0.00    -0.200 N 
HETATM   10  C3  UNL     1      16.802   8.685  22.158  1.00  0.00     0.118 A 
ATOM     11  H5  UNL     1      18.270   8.618  20.750  1.00  0.00     0.183 HD
BRANCH   5  12
HETATM   12  N1  UNL     1      13.340   8.714  21.402  1.00  0.00    -0.385 N 
ATOM     13  H12 UNL     1      12.726   8.451  20.631  1.00  0.00     0.157 HD
ATOM     14  H11 UNL     1      12.977   9.004  22.310  1.00  0.00     0.157 HD
ENDBRANCH   5  12
BRANCH   7  15
HETATM   15  N3  UNL     1      16.894   8.782  18.635  1.00  0.00    -0.138 N 
ATOM     16  H3  UNL     1      16.253   8.994  17.869  1.00  0.00     0.205 HD
BRANCH  15  17
HETATM   17  N4  UNL     1      18.245   8.639  18.400  1.00  0.00    -0.331 N 
ATOM     18  H42 UNL     1      18.857   9.453  18.461  1.00  0.00     0.177 HD
ATOM     19  H41 UNL     1      18.607   7.714  18.170  1.00  0.00     0.177 HD
ENDBRANCH  15  17
ENDBRANCH   7  15
ENDBRANCH   3   4
ENDBRANCH   1   3
BRANCH   1  20
HETATM   20  S1  UNL     1      14.607  10.262  25.914  1.00  0.00     0.206 S 
HETATM   21  O1  UNL     1      15.492   9.022  26.807  1.00  0.00    -0.206 OA
BRANCH  20  22
HETATM   22  N7  UNL     1      15.525  11.999  25.589  1.00  0.00    -0.328 N 
ATOM     23  H72 UNL     1      16.462  12.328  25.357  1.00  0.00     0.168 HD
ATOM     24  H71 UNL     1      14.599  12.384  25.770  1.00  0.00     0.168 HD
ENDBRANCH  20  22
BRANCH  20  25
HETATM   25  N8  UNL     1      14.139  10.803  27.434  1.00  0.00    -0.112 N 
ATOM     26  H8  UNL     1      13.719  11.729  27.341  1.00  0.00     0.197 HD
BRANCH  25  27
HETATM   27  C6  UNL     1      14.124  10.480  28.607  1.00  0.00     0.750 A 
HETATM   28  N9  UNL     1      15.089  10.396  29.524  1.00  0.00    -0.112 N 
HETATM   29  N10 UNL     1      14.641   9.792  30.612  1.00  0.00    -0.211 N 
ATOM     30  H9  UNL     1      16.039  10.748  29.403  1.00  0.00     0.207 HD
HETATM   31  N11 UNL     1      13.375   9.485  30.429  1.00  0.00    -0.186 N 
ATOM     32  H10 UNL     1      15.186   9.596  31.452  1.00  0.00     0.210 HD
HETATM   33  N12 UNL     1      13.030   9.874  29.254  1.00  0.00     0.034 N 
ATOM     34  H11 UNL     1      12.770   9.017  31.104  1.00  0.00     0.213 HD
BRANCH  33  35
HETATM   35  O2  UNL     1      11.815   9.759  28.580  1.00  0.00    -0.253 OA
ATOM     36  H2  UNL     1      11.531   8.906  28.275  1.00  0.00     0.247 HD
ENDBRANCH  33  35
ENDBRANCH  25  27
ENDBRANCH  20  25
ENDBRANCH   1  20
TORSDOF 10
ENDMDL
MODEL 4
REMARK VINA RESULT: -7.386725825      1.333      1.494
REMARK  10 active torsions:
REMARK  status: ('A' for Active; 'I' for Inactive)
REMARK    1  A    between atoms: N1_1  and  C1_4 
REMARK    2  A    between atoms: C2_7  and  N3_8 
REMARK    3  A    between atoms: N3_8  and  N4_10 
REMARK    4  A    between atoms: C4_16  and  C5_17 
REMARK    5  A    between atoms: C5_17  and  N6_18 
REMARK    6  A    between atoms: N6_18  and  S1_20 
REMARK    7  A    between atoms: S1_20  and  N7_21 
REMARK    8  A    between atoms: S1_20  and  N8_25 
REMARK    9  A    between atoms: N8_25  and  C6_27 
REMARK   10  A    between atoms: N12_34  and  O2_35 
ROOT
HETATM    1  N6  UNL     1      12.352   4.424  21.687  1.00  0.00    -0.315 N 
ATOM      2  H6  UNL     1      12.976   3.627  21.563  1.00  0.00     0.172 HD
ENDROOT
BRANCH   1   3
HETATM    3  C5  UNL     1      12.860   5.681  22.303  1.00  0.00     0.176 C 
BRANCH   3   4
HETATM    4  C4  UNL     1      13.740   6.383  21.384  1.00  0.00     0.020 A 
HETATM    5  C1  UNL     1      13.680   7.727  21.363  1.00  0.00     0.124 A 
HETATM    6  N2  UNL     1      14.429   8.457  20.530  1.00  0.00    -0.175 N 
HETATM    7  C2  UNL     1      15.267   7.783  19.685  1.00  0.00     0.697 A 
ATOM      8  H2  UNL     1      14.377   9.476  20.526  1.00  0.00     0.186 HD
HETATM    9  N5  UNL     1      15.332   6.458  19.687  1.00  0.00    -0.200 N 
HETATM   10  C3  UNL     1      14.593   5.721  20.516  1.00  0.00     0.118 A 
ATOM     11  H5  UNL     1      15.965   5.991  19.038  1.00  0.00     0.183 HD
BRANCH   5  12
HETATM   12  N1  UNL     1      12.889   8.370  22.138  1.00  0.00    -0.385 N 
ATOM     13  H12 UNL     1      12.022   8.779  21.789  1.00  0.00     0.157 HD
ATOM     14  H11 UNL     1      13.174   8.457  23.113  1.00  0.00     0.157 HD
ENDBRANCH   5  12
BRANCH   7  15
HETATM   15  N3  UNL     1      16.119   8.515  19.002  1.00  0.00    -0.138 N 
ATOM     16  H3  UNL     1      17.108   8.266  18.969  1.00  0.00     0.205 HD
BRANCH  15  17
HETATM   17  N4  UNL     1      15.651   9.626  18.332  1.00  0.00    -0.331 N 
ATOM     18  H42 UNL     1      14.744   9.589  17.865  1.00  0.00     0.177 HD
ATOM     19  H41 UNL     1      16.225  10.468  18.317  1.00  0.00     0.177 HD
ENDBRANCH  15  17
ENDBRANCH   7  15
ENDBRANCH   3   4
ENDBRANCH   1   3
BRANCH   1  20
HETATM   20  S1  UNL     1      10.754   4.322  21.198  1.00  0.00     0.206 S 
HETATM   21  O1  UNL     1      10.542   6.057  21.446  1.00  0.00    -0.206 OA
BRANCH  20  22
HETATM   22  N7  UNL     1      11.565   3.726  19.481  1.00  0.00    -0.328 N 
ATOM     23  H72 UNL     1      11.957   4.151  18.642  1.00  0.00     0.168 HD
ATOM     24  H71 UNL     1      11.392   2.796  19.862  1.00  0.00     0.168 HD
ENDBRANCH  20  22
BRANCH  20  25
HETATM   25  N8  UNL     1       9.251   4.403  20.451  1.00  0.00    -0.112 N 
ATOM     26  H8  UNL     1       9.304   3.926  19.550  1.00  0.00     0.197 HD
BRANCH  25  27
HETATM   27  C6  UNL     1       8.122   4.830  20.606  1.00  0.00     0.750 A 
HETATM   28  N9  UNL     1       7.026   4.287  21.140  1.00  0.00    -0.112 N 
HETATM   29  N10 UNL     1       5.971   5.046  20.897  1.00  0.00    -0.211 N 
ATOM     30  H9  UNL     1       7.005   3.412  21.662  1.00  0.00     0.207 HD
HETATM   31  N11 UNL     1       6.361   6.101  20.214  1.00  0.00    -0.186 N 
ATOM     32  H10 UNL     1       5.014   4.848  21.190  1.00  0.00     0.210 HD
HETATM   33  N12 UNL     1       7.628   6.011  20.020  1.00  0.00     0.034 N 
ATOM     34  H11 UNL     1       5.761   6.861  19.893  1.00  0.00     0.213 HD
BRANCH  33  35
HETATM   35  O2  UNL     1       8.503   6.852  19.335  1.00  0.00    -0.253 OA
ATOM     36  H2  UNL     1       8.686   7.716  19.682  1.00  0.00     0.247 HD
ENDBRANCH  33  35
ENDBRANCH  25  27
ENDBRANCH  20  25
ENDBRANCH   1  20
TORSDOF 10
ENDMDL
MODEL 5
REMARK VINA RESULT: -7.374073148      6.433      8.927
REMARK  10 active torsions:
REMARK  status: ('A' for Active; 'I' for Inactive)
REMARK    1  A    between atoms: N1_1  and  C1_4 
REMARK    2  A    between atoms: C2_7  and  N3_8 
REMARK    3  A    between atoms: N3_8  and  N4_10 
REMARK    4  A    between atoms: C4_16  and  C5_17 
REMARK    5  A    between atoms: C5_17  and  N6_18 
REMARK    6  A    between atoms: N6_18  and  S1_20 
REMARK    7  A    between atoms: S1_20  and  N7_21 
REMARK    8  A    between atoms: S1_20  and  N8_25 
REMARK    9  A    between atoms: N8_25  and  C6_27 
REMARK   10  A    between atoms: N12_34  and  O2_35 
ROOT
HETATM    1  N6  UNL     1      16.954   9.141  25.128  1.00  0.00    -0.315 N 
ATOM      2  H6  UNL     1      17.717   9.432  25.739  1.00  0.00     0.172 HD
ENDROOT
BRANCH   1   3
HETATM    3  C5  UNL     1      15.776   8.427  25.693  1.00  0.00     0.176 C 
BRANCH   3   4
HETATM    4  C4  UNL     1      15.232   9.154  26.827  1.00  0.00     0.020 A 
HETATM    5  C1  UNL     1      14.355  10.144  26.575  1.00  0.00     0.124 A 
HETATM    6  N2  UNL     1      13.824  10.887  27.551  1.00  0.00    -0.175 N 
HETATM    7  C2  UNL     1      14.211  10.608  28.834  1.00  0.00     0.697 A 
ATOM      8  H2  UNL     1      13.158  11.632  27.347  1.00  0.00     0.186 HD
HETATM    9  N5  UNL     1      15.081   9.642  29.099  1.00  0.00    -0.200 N 
HETATM   10  C3  UNL     1      15.613   8.892  28.134  1.00  0.00     0.118 A 
ATOM     11  H5  UNL     1      15.349   9.469  30.067  1.00  0.00     0.183 HD
BRANCH   5  12
HETATM   12  N1  UNL     1      13.996  10.425  25.378  1.00  0.00    -0.385 N 
ATOM     13  H12 UNL     1      14.636  10.880  24.727  1.00  0.00     0.157 HD
ATOM     14  H11 UNL     1      13.042  10.179  25.116  1.00  0.00     0.157 HD
ENDBRANCH   5  12
BRANCH   7  15
HETATM   15  N3  UNL     1      13.552  11.226  29.788  1.00  0.00    -0.138 N 
ATOM     16  H3  UNL     1      13.958  11.326  30.719  1.00  0.00     0.205 HD
BRANCH  15  17
HETATM   17  N4  UNL     1      12.301  11.735  29.509  1.00  0.00    -0.331 N 
ATOM     18  H42 UNL     1      12.199  12.725  29.283  1.00  0.00     0.177 HD
ATOM     19  H41 UNL     1      11.499  11.106  29.535  1.00  0.00     0.177 HD
ENDBRANCH  15  17
ENDBRANCH   7  15
ENDBRANCH   3   4
ENDBRANCH   1   3
BRANCH   1  20
HETATM   20  S1  UNL     1      17.024   9.465  23.486  1.00  0.00     0.206 S 
HETATM   21  O1  UNL     1      15.410   8.787  23.260  1.00  0.00    -0.206 OA
BRANCH  20  22
HETATM   22  N7  UNL     1      17.156  11.352  24.106  1.00  0.00    -0.328 N 
ATOM     23  H72 UNL     1      16.546  12.056  24.522  1.00  0.00     0.168 HD
ATOM     24  H71 UNL     1      18.124  11.257  23.802  1.00  0.00     0.168 HD
ENDBRANCH  20  22
BRANCH  20  25
HETATM   25  N8  UNL     1      16.850  10.005  21.905  1.00  0.00    -0.112 N 
ATOM     26  H8  UNL     1      16.803  11.024  21.907  1.00  0.00     0.197 HD
BRANCH  25  27
HETATM   27  C6  UNL     1      16.761   9.608  20.758  1.00  0.00     0.750 A 
HETATM   28  N9  UNL     1      17.681   9.356  19.824  1.00  0.00    -0.112 N 
HETATM   29  N10 UNL     1      17.104   9.146  18.653  1.00  0.00    -0.211 N 
ATOM     30  H9  UNL     1      18.686   9.328  19.991  1.00  0.00     0.207 HD
HETATM   31  N11 UNL     1      15.800   9.244  18.805  1.00  0.00    -0.186 N 
ATOM     32  H10 UNL     1      17.587   8.943  17.779  1.00  0.00     0.210 HD
HETATM   33  N12 UNL     1      15.555   9.517  20.037  1.00  0.00     0.034 N 
ATOM     34  H11 UNL     1      15.102   9.124  18.070  1.00  0.00     0.213 HD
BRANCH  33  35
HETATM   35  O2  UNL     1      14.348   9.744  20.693  1.00  0.00    -0.253 OA
ATOM     36  H2  UNL     1      13.633  10.157  20.224  1.00  0.00     0.247 HD
ENDBRANCH  33  35
ENDBRANCH  25  27
ENDBRANCH  20  25
ENDBRANCH   1  20
TORSDOF 10
ENDMDL
