MODEL 1
REMARK VINA RESULT: -7.684980737      0.000      0.000
REMARK  8 active torsions:
REMARK  status: ('A' for Active; 'I' for Inactive)
REMARK    1  A    between atoms: N1_1  and  N2_4 
REMARK    2  A    between atoms: N2_4  and  S1_6 
REMARK    3  A    between atoms: S1_6  and  N3_8 
REMARK    4  A    between atoms: S1_6  and  N5_13 
REMARK    5  A    between atoms: N3_8  and  N4_10 
REMARK    6  A    between atoms: N5_13  and  N6_15 
REMARK       I    between atoms: N6_15  and  C1_17 
REMARK    7  A    between atoms: N8_19  and  N9_21 
REMARK    8  A    between atoms: N9_21  and  C2_23 
ROOT
HETATM    1  N6  UNL     1      16.493  10.111  22.231  1.00  0.00    -0.263 N 
ATOM      2  H6  UNL     1      17.234  10.802  22.350  1.00  0.00     0.190 HD
HETATM    3  C1  UNL     1      16.171   9.630  20.949  1.00  0.00     0.222 C 
HETATM    4  N7  UNL     1      14.840   9.293  20.629  1.00  0.00    -0.061 NA
HETATM    5  N8  UNL     1      17.081   9.495  20.061  1.00  0.00    -0.271 N 
ATOM      6  H8  UNL     1      18.043   9.740  20.294  1.00  0.00     0.189 HD
ENDROOT
BRANCH   1   7
HETATM    7  N5  UNL     1      15.791   9.635  23.337  1.00  0.00    -0.223 N 
ATOM      8  H5  UNL     1      15.014   8.979  23.261  1.00  0.00     0.200 HD
BRANCH   7   9
HETATM    9  S1  UNL     1      16.344  10.244  24.821  1.00  0.00     0.243 S 
HETATM   10  O1  UNL     1      16.478   9.230  25.895  1.00  0.00    -0.201 OA
BRANCH   9  11
HETATM   11  N2  UNL     1      15.397  11.382  25.398  1.00  0.00    -0.232 N 
ATOM     12  H2  UNL     1      14.527  11.180  25.889  1.00  0.00     0.199 HD
BRANCH  11  13
HETATM   13  N1  UNL     1      15.861  12.688  25.175  1.00  0.00    -0.336 N 
ATOM     14  H12 UNL     1      16.769  13.004  25.514  1.00  0.00     0.177 HD
ATOM     15  H11 UNL     1      15.215  13.279  24.652  1.00  0.00     0.177 HD
ENDBRANCH  11  13
ENDBRANCH   9  11
BRANCH   9  16
HETATM   16  N3  UNL     1      17.903  11.009  24.614  1.00  0.00    -0.232 N 
ATOM     17  H3  UNL     1      18.090  11.931  24.219  1.00  0.00     0.199 HD
BRANCH  16  18
HETATM   18  N4  UNL     1      18.848  10.083  25.109  1.00  0.00    -0.336 N 
ATOM     19  H42 UNL     1      18.818   9.610  26.012  1.00  0.00     0.177 HD
ATOM     20  H41 UNL     1      19.553   9.995  24.377  1.00  0.00     0.177 HD
ENDBRANCH  16  18
ENDBRANCH   9  16
ENDBRANCH   7   9
ENDBRANCH   1   7
BRANCH   5  21
HETATM   21  N9  UNL     1      16.790   9.020  18.781  1.00  0.00    -0.280 N 
ATOM     22  H9  UNL     1      16.552   9.686  18.047  1.00  0.00     0.189 HD
BRANCH  21  23
HETATM   23  C2  UNL     1      16.818   7.617  18.471  1.00  0.00     0.181 A 
HETATM   24  N10 UNL     1      15.765   6.894  18.453  1.00  0.00    -0.290 N 
HETATM   25  C3  UNL     1      15.775   5.505  18.148  1.00  0.00     0.328 A 
ATOM     26  H10 UNL     1      14.871   7.335  18.669  1.00  0.00     0.172 HD
HETATM   27  O2  UNL     1      14.710   4.831  18.142  1.00  0.00    -0.247 OA
HETATM   28  N11 UNL     1      16.975   4.810  17.835  1.00  0.00    -0.272 N 
HETATM   29  C4  UNL     1      18.181   5.562  17.839  1.00  0.00     0.303 A 
ATOM     30  H11 UNL     1      16.971   3.813  17.618  1.00  0.00     0.174 HD
HETATM   31  O3  UNL     1      19.261   4.983  17.567  1.00  0.00    -0.263 OA
HETATM   32  C5  UNL     1      18.095   6.980  18.161  1.00  0.00     0.284 A 
HETATM   33  O4  UNL     1      19.144   7.676  18.173  1.00  0.00    -0.278 OA
ENDBRANCH  21  23
ENDBRANCH   5  21
TORSDOF 8
ENDMDL
MODEL 2
REMARK VINA RESULT: -7.668946046      9.048     11.526
REMARK  8 active torsions:
REMARK  status: ('A' for Active; 'I' for Inactive)
REMARK    1  A    between atoms: N1_1  and  N2_4 
REMARK    2  A    between atoms: N2_4  and  S1_6 
REMARK    3  A    between atoms: S1_6  and  N3_8 
REMARK    4  A    between atoms: S1_6  and  N5_13 
REMARK    5  A    between atoms: N3_8  and  N4_10 
REMARK    6  A    between atoms: N5_13  and  N6_15 
REMARK       I    between atoms: N6_15  and  C1_17 
REMARK    7  A    between atoms: N8_19  and  N9_21 
REMARK    8  A    between atoms: N9_21  and  C2_23 
ROOT
HETATM    1  N6  UNL     1       8.182   4.986  23.599  1.00  0.00    -0.263 N 
ATOM      2  H6  UNL     1       7.571   4.171  23.559  1.00  0.00     0.190 HD
HETATM    3  C1  UNL     1       8.322   5.712  24.795  1.00  0.00     0.222 C 
HETATM    4  N7  UNL     1       8.518   7.108  24.763  1.00  0.00    -0.061 NA
HETATM    5  N8  UNL     1       8.273   5.113  25.924  1.00  0.00    -0.271 N 
ATOM      6  H8  UNL     1       8.131   4.103  25.946  1.00  0.00     0.189 HD
ENDROOT
BRANCH   1   7
HETATM    7  N5  UNL     1       8.885   5.393  22.466  1.00  0.00    -0.223 N 
ATOM      8  H5  UNL     1       9.742   5.943  22.512  1.00  0.00     0.200 HD
BRANCH   7   9
HETATM    9  S1  UNL     1       8.188   4.891  21.002  1.00  0.00     0.243 S 
HETATM   10  O1  UNL     1       8.642   3.562  20.523  1.00  0.00    -0.201 OA
BRANCH   9  11
HETATM   11  N2  UNL     1       8.467   5.911  19.817  1.00  0.00    -0.232 N 
ATOM     12  H2  UNL     1       9.394   6.050  19.415  1.00  0.00     0.199 HD
BRANCH  11  13
HETATM   13  N1  UNL     1       7.332   6.605  19.372  1.00  0.00    -0.336 N 
ATOM     14  H12 UNL     1       6.631   6.965  20.019  1.00  0.00     0.177 HD
ATOM     15  H11 UNL     1       7.275   6.712  18.359  1.00  0.00     0.177 HD
ENDBRANCH  11  13
ENDBRANCH   9  11
BRANCH   9  16
HETATM   16  N3  UNL     1       6.446   4.834  21.154  1.00  0.00    -0.232 N 
ATOM     17  H3  UNL     1       5.808   5.626  21.230  1.00  0.00     0.199 HD
BRANCH  16  18
HETATM   18  N4  UNL     1       6.109   3.463  21.148  1.00  0.00    -0.336 N 
ATOM     19  H42 UNL     1       6.761   2.678  21.121  1.00  0.00     0.177 HD
ATOM     20  H41 UNL     1       5.090   3.431  21.177  1.00  0.00     0.177 HD
ENDBRANCH  16  18
ENDBRANCH   9  16
ENDBRANCH   7   9
ENDBRANCH   1   7
BRANCH   5  21
HETATM   21  N9  UNL     1       8.409   5.807  27.127  1.00  0.00    -0.280 N 
ATOM     22  H9  UNL     1       7.576   6.017  27.676  1.00  0.00     0.189 HD
BRANCH  21  23
HETATM   23  C2  UNL     1       9.693   6.234  27.613  1.00  0.00     0.181 A 
HETATM   24  N10 UNL     1       9.960   7.455  27.873  1.00  0.00    -0.290 N 
HETATM   25  C3  UNL     1      11.225   7.894  28.355  1.00  0.00     0.328 A 
ATOM     26  H10 UNL     1       9.229   8.152  27.729  1.00  0.00     0.172 HD
HETATM   27  O2  UNL     1      11.443   9.110  28.599  1.00  0.00    -0.247 OA
HETATM   28  N11 UNL     1      12.298   6.991  28.584  1.00  0.00    -0.272 N 
HETATM   29  C4  UNL     1      12.062   5.616  28.312  1.00  0.00     0.303 A 
ATOM     30  H11 UNL     1      13.201   7.317  28.930  1.00  0.00     0.174 HD
HETATM   31  O3  UNL     1      12.986   4.789  28.504  1.00  0.00    -0.263 OA
HETATM   32  C5  UNL     1      10.743   5.240  27.821  1.00  0.00     0.284 A 
HETATM   33  O4  UNL     1      10.498   4.031  27.571  1.00  0.00    -0.278 OA
ENDBRANCH  21  23
ENDBRANCH   5  21
TORSDOF 8
ENDMDL
MODEL 3
REMARK VINA RESULT: -7.668878241      3.963      8.352
REMARK  8 active torsions:
REMARK  status: ('A' for Active; 'I' for Inactive)
REMARK    1  A    between atoms: N1_1  and  N2_4 
REMARK    2  A    between atoms: N2_4  and  S1_6 
REMARK    3  A    between atoms: S1_6  and  N3_8 
REMARK    4  A    between atoms: S1_6  and  N5_13 
REMARK    5  A    between atoms: N3_8  and  N4_10 
REMARK    6  A    between atoms: N5_13  and  N6_15 
REMARK       I    between atoms: N6_15  and  C1_17 
REMARK    7  A    between atoms: N8_19  and  N9_21 
REMARK    8  A    between atoms: N9_21  and  C2_23 
ROOT
HETATM    1  N6  UNL     1      17.045  10.412  22.514  1.00  0.00    -0.263 N 
ATOM      2  H6  UNL     1      16.645  11.273  22.142  1.00  0.00     0.190 HD
HETATM    3  C1  UNL     1      17.161  10.224  23.903  1.00  0.00     0.222 C 
HETATM    4  N7  UNL     1      18.246   9.498  24.435  1.00  0.00    -0.061 NA
HETATM    5  N8  UNL     1      16.283  10.709  24.696  1.00  0.00    -0.271 N 
ATOM      6  H8  UNL     1      15.499  11.234  24.310  1.00  0.00     0.189 HD
ENDROOT
BRANCH   1   7
HETATM    7  N5  UNL     1      17.483   9.410  21.649  1.00  0.00    -0.223 N 
ATOM      8  H5  UNL     1      18.417   9.004  21.697  1.00  0.00     0.200 HD
BRANCH   7   9
HETATM    9  S1  UNL     1      16.323   8.926  20.508  1.00  0.00     0.243 S 
HETATM   10  O1  UNL     1      16.061   7.466  20.473  1.00  0.00    -0.201 OA
BRANCH   9  11
HETATM   11  N2  UNL     1      16.718   9.344  19.028  1.00  0.00    -0.232 N 
ATOM     12  H2  UNL     1      17.685   9.392  18.707  1.00  0.00     0.199 HD
BRANCH  11  13
HETATM   13  N1  UNL     1      15.626   9.641  18.200  1.00  0.00    -0.336 N 
ATOM     14  H12 UNL     1      15.663   9.510  17.189  1.00  0.00     0.177 HD
ATOM     15  H11 UNL     1      14.807   9.995  18.694  1.00  0.00     0.177 HD
ENDBRANCH  11  13
ENDBRANCH   9  11
BRANCH   9  16
HETATM   16  N3  UNL     1      14.802   9.731  20.819  1.00  0.00    -0.232 N 
ATOM     17  H3  UNL     1      14.612  10.732  20.765  1.00  0.00     0.199 HD
BRANCH  16  18
HETATM   18  N4  UNL     1      13.892   8.706  21.159  1.00  0.00    -0.336 N 
ATOM     19  H42 UNL     1      13.186   8.741  21.894  1.00  0.00     0.177 HD
ATOM     20  H41 UNL     1      14.094   7.938  20.519  1.00  0.00     0.177 HD
ENDBRANCH  16  18
ENDBRANCH   9  16
ENDBRANCH   7   9
ENDBRANCH   1   7
BRANCH   5  21
HETATM   21  N9  UNL     1      16.372  10.537  26.078  1.00  0.00    -0.280 N 
ATOM     22  H9  UNL     1      17.291  10.544  26.521  1.00  0.00     0.189 HD
BRANCH  21  23
HETATM   23  C2  UNL     1      15.204  10.350  26.895  1.00  0.00     0.181 A 
HETATM   24  N10 UNL     1      14.853  11.184  27.797  1.00  0.00    -0.290 N 
HETATM   25  C3  UNL     1      13.700  11.013  28.612  1.00  0.00     0.328 A 
ATOM     26  H10 UNL     1      15.428  12.014  27.940  1.00  0.00     0.172 HD
HETATM   27  O2  UNL     1      13.391  11.862  29.491  1.00  0.00    -0.247 OA
HETATM   28  N11 UNL     1      12.843   9.887  28.481  1.00  0.00    -0.272 N 
HETATM   29  C4  UNL     1      13.182   8.923  27.493  1.00  0.00     0.303 A 
ATOM     30  H11 UNL     1      12.019   9.774  29.072  1.00  0.00     0.174 HD
HETATM   31  O3  UNL     1      12.449   7.916  27.347  1.00  0.00    -0.263 OA
HETATM   32  C5  UNL     1      14.377   9.163  26.694  1.00  0.00     0.284 A 
HETATM   33  O4  UNL     1      14.707   8.331  25.809  1.00  0.00    -0.278 OA
ENDBRANCH  21  23
ENDBRANCH   5  21
TORSDOF 8
ENDMDL
MODEL 4
REMARK VINA RESULT: -7.655830100      4.301      8.573
REMARK  8 active torsions:
REMARK  status: ('A' for Active; 'I' for Inactive)
REMARK    1  A    between atoms: N1_1  and  N2_4 
REMARK    2  A    between atoms: N2_4  and  S1_6 
REMARK    3  A    between atoms: S1_6  and  N3_8 
REMARK    4  A    between atoms: S1_6  and  N5_13 
REMARK    5  A    between atoms: N3_8  and  N4_10 
REMARK    6  A    between atoms: N5_13  and  N6_15 
REMARK       I    between atoms: N6_15  and  C1_17 
REMARK    7  A    between atoms: N8_19  and  N9_21 
REMARK    8  A    between atoms: N9_21  and  C2_23 
ROOT
HETATM    1  N6  UNL     1      16.524  10.134  22.967  1.00  0.00    -0.263 N 
ATOM      2  H6  UNL     1      16.338  11.135  23.019  1.00  0.00     0.190 HD
HETATM    3  C1  UNL     1      16.103   9.277  24.000  1.00  0.00     0.222 C 
HETATM    4  N7  UNL     1      16.871   8.147  24.345  1.00  0.00    -0.061 NA
HETATM    5  N8  UNL     1      15.020   9.516  24.637  1.00  0.00    -0.271 N 
ATOM      6  H8  UNL     1      14.466  10.335  24.386  1.00  0.00     0.189 HD
ENDROOT
BRANCH   1   7
HETATM    7  N5  UNL     1      17.199   9.601  21.869  1.00  0.00    -0.223 N 
ATOM      8  H5  UNL     1      18.216   9.577  21.801  1.00  0.00     0.200 HD
BRANCH   7   9
HETATM    9  S1  UNL     1      16.178   8.998  20.655  1.00  0.00     0.243 S 
HETATM   10  O1  UNL     1      16.007   7.524  20.666  1.00  0.00    -0.201 OA
BRANCH   9  11
HETATM   11  N2  UNL     1      16.680   9.378  19.197  1.00  0.00    -0.232 N 
ATOM     12  H2  UNL     1      17.668   9.449  18.955  1.00  0.00     0.199 HD
BRANCH  11  13
HETATM   13  N1  UNL     1      15.651   9.609  18.273  1.00  0.00    -0.336 N 
ATOM     14  H12 UNL     1      14.667   9.551  18.535  1.00  0.00     0.177 HD
ATOM     15  H11 UNL     1      15.974   9.836  17.332  1.00  0.00     0.177 HD
ENDBRANCH  11  13
ENDBRANCH   9  11
BRANCH   9  16
HETATM   16  N3  UNL     1      14.590   9.718  20.793  1.00  0.00    -0.232 N 
ATOM     17  H3  UNL     1      14.337  10.691  20.619  1.00  0.00     0.199 HD
BRANCH  16  18
HETATM   18  N4  UNL     1      13.732   8.671  21.194  1.00  0.00    -0.336 N 
ATOM     19  H42 UNL     1      13.949   7.674  21.192  1.00  0.00     0.177 HD
ATOM     20  H41 UNL     1      12.864   9.123  21.482  1.00  0.00     0.177 HD
ENDBRANCH  16  18
ENDBRANCH   9  16
ENDBRANCH   7   9
ENDBRANCH   1   7
BRANCH   5  21
HETATM   21  N9  UNL     1      14.577   8.684  25.665  1.00  0.00    -0.280 N 
ATOM     22  H9  UNL     1      14.555   7.676  25.513  1.00  0.00     0.189 HD
BRANCH  21  23
HETATM   23  C2  UNL     1      14.152   9.209  26.934  1.00  0.00     0.181 A 
HETATM   24  N10 UNL     1      12.966   9.051  27.383  1.00  0.00    -0.290 N 
HETATM   25  C3  UNL     1      12.530   9.563  28.636  1.00  0.00     0.328 A 
ATOM     26  H10 UNL     1      12.298   8.530  26.814  1.00  0.00     0.172 HD
HETATM   27  O2  UNL     1      11.350   9.382  29.038  1.00  0.00    -0.247 OA
HETATM   28  N11 UNL     1      13.393  10.300  29.491  1.00  0.00    -0.272 N 
HETATM   29  C4  UNL     1      14.727  10.509  29.045  1.00  0.00     0.303 A 
ATOM     30  H11 UNL     1      13.070  10.663  30.388  1.00  0.00     0.174 HD
HETATM   31  O3  UNL     1      15.519  11.154  29.775  1.00  0.00    -0.263 OA
HETATM   32  C5  UNL     1      15.104   9.955  27.752  1.00  0.00     0.284 A 
HETATM   33  O4  UNL     1      16.277  10.121  27.326  1.00  0.00    -0.278 OA
ENDBRANCH  21  23
ENDBRANCH   5  21
TORSDOF 8
ENDMDL
MODEL 5
REMARK VINA RESULT: -7.583794491      5.872      7.763
REMARK  8 active torsions:
REMARK  status: ('A' for Active; 'I' for Inactive)
REMARK    1  A    between atoms: N1_1  and  N2_4 
REMARK    2  A    between atoms: N2_4  and  S1_6 
REMARK    3  A    between atoms: S1_6  and  N3_8 
REMARK    4  A    between atoms: S1_6  and  N5_13 
REMARK    5  A    between atoms: N3_8  and  N4_10 
REMARK    6  A    between atoms: N5_13  and  N6_15 
REMARK       I    between atoms: N6_15  and  C1_17 
REMARK    7  A    between atoms: N8_19  and  N9_21 
REMARK    8  A    between atoms: N9_21  and  C2_23 
ROOT
HETATM    1  N6  UNL     1      10.175   5.072  20.237  1.00  0.00    -0.263 N 
ATOM      2  H6  UNL     1      10.370   4.165  19.815  1.00  0.00     0.190 HD
HETATM    3  C1  UNL     1      11.185   5.765  20.928  1.00  0.00     0.222 C 
HETATM    4  N7  UNL     1      10.865   6.561  22.047  1.00  0.00    -0.061 NA
HETATM    5  N8  UNL     1      12.404   5.679  20.550  1.00  0.00    -0.271 N 
ATOM      6  H8  UNL     1      12.634   5.102  19.741  1.00  0.00     0.189 HD
ENDROOT
BRANCH   1   7
HETATM    7  N5  UNL     1       8.905   5.638  20.133  1.00  0.00    -0.223 N 
ATOM      8  H5  UNL     1       8.707   6.454  19.555  1.00  0.00     0.200 HD
BRANCH   7   9
HETATM    9  S1  UNL     1       7.719   4.847  21.054  1.00  0.00     0.243 S 
HETATM   10  O1  UNL     1       7.677   3.375  20.877  1.00  0.00    -0.201 OA
BRANCH   9  11
HETATM   11  N2  UNL     1       6.255   5.376  20.737  1.00  0.00    -0.232 N 
ATOM     12  H2  UNL     1       6.060   6.348  20.496  1.00  0.00     0.199 HD
BRANCH  11  13
HETATM   13  N1  UNL     1       5.255   4.396  20.818  1.00  0.00    -0.336 N 
ATOM     14  H12 UNL     1       5.429   3.481  21.235  1.00  0.00     0.177 HD
ATOM     15  H11 UNL     1       4.356   4.678  20.427  1.00  0.00     0.177 HD
ENDBRANCH  11  13
ENDBRANCH   9  11
BRANCH   9  16
HETATM   16  N3  UNL     1       7.963   5.171  22.755  1.00  0.00    -0.232 N 
ATOM     17  H3  UNL     1       8.035   4.487  23.509  1.00  0.00     0.199 HD
BRANCH  16  18
HETATM   18  N4  UNL     1       8.041   6.577  22.866  1.00  0.00    -0.336 N 
ATOM     19  H42 UNL     1       8.787   7.109  23.312  1.00  0.00     0.177 HD
ATOM     20  H41 UNL     1       7.201   6.934  22.409  1.00  0.00     0.177 HD
ENDBRANCH  16  18
ENDBRANCH   9  16
ENDBRANCH   7   9
ENDBRANCH   1   7
BRANCH   5  21
HETATM   21  N9  UNL     1      13.426   6.355  21.217  1.00  0.00    -0.280 N 
ATOM     22  H9  UNL     1      13.445   6.346  22.237  1.00  0.00     0.189 HD
BRANCH  21  23
HETATM   23  C2  UNL     1      14.453   7.066  20.506  1.00  0.00     0.181 A 
HETATM   24  N10 UNL     1      14.618   8.328  20.612  1.00  0.00    -0.290 N 
HETATM   25  C3  UNL     1      15.630   9.045  19.916  1.00  0.00     0.328 A 
ATOM     26  H10 UNL     1      13.993   8.848  21.228  1.00  0.00     0.172 HD
HETATM   27  O2  UNL     1      15.756  10.292  20.052  1.00  0.00    -0.247 OA
HETATM   28  N11 UNL     1      16.543   8.401  19.038  1.00  0.00    -0.272 N 
HETATM   29  C4  UNL     1      16.409   6.995  18.878  1.00  0.00     0.303 A 
ATOM     30  H11 UNL     1      17.265   8.926  18.543  1.00  0.00     0.174 HD
HETATM   31  O3  UNL     1      17.198   6.391  18.111  1.00  0.00    -0.263 OA
HETATM   32  C5  UNL     1      15.351   6.326  19.622  1.00  0.00     0.284 A 
HETATM   33  O4  UNL     1      15.204   5.081  19.505  1.00  0.00    -0.278 OA
ENDBRANCH  21  23
ENDBRANCH   5  21
TORSDOF 8
ENDMDL
