MODEL 1
REMARK VINA RESULT: -7.372379497      0.000      0.000
REMARK  21 active torsions:
REMARK  status: ('A' for Active; 'I' for Inactive)
REMARK    1  A    between atoms: C2_2  and  C3_3 
REMARK    2  A    between atoms: C3_3  and  O1_5 
REMARK    3  A    between atoms: C3_3  and  C5_7 
REMARK    4  A    between atoms: C6_8  and  O2_9 
REMARK    5  A    between atoms: C8_12  and  O3_13 
REMARK    6  A    between atoms: C9_15  and  C10_16 
REMARK    7  A    between atoms: C11_17  and  C12_18 
REMARK    8  A    between atoms: C12_18  and  C13_19 
REMARK    9  A    between atoms: C13_19  and  O4_20 
REMARK   10  A    between atoms: C13_19  and  C14_22 
REMARK   11  A    between atoms: C18_26  and  O5_27 
REMARK   12  A    between atoms: C18_26  and  C19_29 
REMARK   13  A    between atoms: C19_29  and  O6_30 
REMARK   14  A    between atoms: C19_29  and  C20_32 
REMARK   15  A    between atoms: C20_32  and  C21_33 
REMARK   16  A    between atoms: C21_33  and  C22_34 
REMARK   17  A    between atoms: C24_36  and  C25_37 
REMARK   18  A    between atoms: C25_37  and  O7_38 
REMARK   19  A    between atoms: C25_37  and  C26_40 
REMARK   20  A    between atoms: C26_40  and  C28_42 
REMARK   21  A    between atoms: C28_42  and  O8_43 
ROOT
HETATM    1  C14 UNL     1      -8.119  24.923 -17.593  1.00  0.00     0.025 C 
HETATM    2  C15 UNL     1      -6.975  25.798 -17.865  1.00  0.00    -0.009 C 
HETATM    3  C16 UNL     1      -7.017  27.152 -17.282  1.00  0.00     0.010 C 
HETATM    4  C17 UNL     1      -5.761  24.951 -17.345  1.00  0.00     0.045 C 
HETATM    5  C18 UNL     1      -6.091  23.625 -17.998  1.00  0.00     0.087 C 
HETATM    6  C29 UNL     1      -7.551  23.477 -17.832  1.00  0.00     0.025 C 
HETATM    7  C30 UNL     1      -8.073  22.625 -16.753  1.00  0.00     0.014 C 
ENDROOT
BRANCH   1   8
HETATM    8  C13 UNL     1      -9.387  25.038 -18.329  1.00  0.00     0.126 C 
BRANCH   8   9
HETATM    9  C12 UNL     1     -10.579  25.467 -17.482  1.00  0.00     0.059 C 
BRANCH   9  10
HETATM   10  C11 UNL     1     -10.006  25.324 -16.012  1.00  0.00    -0.028 C 
HETATM   11  C10 UNL     1     -10.756  24.741 -15.166  1.00  0.00    -0.023 C 
BRANCH  11  12
HETATM   12  C9  UNL     1     -10.713  24.382 -13.759  1.00  0.00     0.046 C 
HETATM   13  C5  UNL     1      -9.616  23.363 -13.457  1.00  0.00     0.062 C 
HETATM   14  C6  UNL     1     -10.218  22.352 -12.494  1.00  0.00     0.128 C 
HETATM   15  C7  UNL     1     -11.681  22.662 -12.394  1.00  0.00     0.064 C 
HETATM   16  C8  UNL     1     -12.013  23.637 -13.459  1.00  0.00     0.128 C 
BRANCH  13  17
HETATM   17  C3  UNL     1      -8.372  23.963 -12.868  1.00  0.00     0.078 C 
HETATM   18  C4  UNL     1      -8.754  25.187 -12.014  1.00  0.00     0.051 C 
BRANCH  17  19
HETATM   19  C2  UNL     1      -7.479  24.500 -13.906  1.00  0.00     0.000 C 
HETATM   20  C1  UNL     1      -6.794  25.601 -13.772  1.00  0.00     0.010 C 
ENDBRANCH  17  19
BRANCH  17  21
HETATM   21  O1  UNL     1      -7.696  23.040 -12.050  1.00  0.00    -0.386 OA
ATOM     22  H1  UNL     1      -8.085  23.003 -11.184  1.00  0.00     0.211 HD
ENDBRANCH  17  21
ENDBRANCH  13  17
BRANCH  14  23
HETATM   23  O2  UNL     1      -9.616  22.409 -11.225  1.00  0.00    -0.395 OA
ATOM     24  H2  UNL     1     -10.025  21.813 -10.609  1.00  0.00     0.210 HD
ENDBRANCH  14  23
BRANCH  16  25
HETATM   25  O3  UNL     1     -13.030  24.467 -13.067  1.00  0.00    -0.395 OA
ATOM     26  H3  UNL     1     -12.693  25.298 -12.755  1.00  0.00     0.210 HD
ENDBRANCH  16  25
ENDBRANCH  11  12
ENDBRANCH   9  10
ENDBRANCH   8   9
BRANCH   8  27
HETATM   27  O4  UNL     1      -9.364  25.559 -19.586  1.00  0.00    -0.395 OA
ATOM     28  H4  UNL     1      -8.717  25.173 -20.165  1.00  0.00     0.210 HD
ENDBRANCH   8  27
ENDBRANCH   1   8
BRANCH   5  29
HETATM   29  O5  UNL     1      -5.785  23.859 -19.374  1.00  0.00    -0.387 OA
ATOM     30  H5  UNL     1      -6.625  24.109 -19.740  1.00  0.00     0.210 HD
ENDBRANCH   5  29
BRANCH   5  31
HETATM   31  C19 UNL     1      -5.233  22.512 -17.581  1.00  0.00     0.153 C 
BRANCH  31  32
HETATM   32  O6  UNL     1      -4.561  21.807 -18.555  1.00  0.00    -0.393 OA
ATOM     33  H6  UNL     1      -3.947  21.135 -18.281  1.00  0.00     0.210 HD
ENDBRANCH  31  32
BRANCH  31  34
HETATM   34  C20 UNL     1      -4.486  22.791 -16.329  1.00  0.00     0.039 C 
BRANCH  34  35
HETATM   35  C21 UNL     1      -4.978  22.190 -15.047  1.00  0.00     0.036 C 
BRANCH  35  36
HETATM   36  C22 UNL     1      -4.153  22.923 -13.969  1.00  0.00    -0.085 C 
HETATM   37  C23 UNL     1      -4.198  22.513 -12.570  1.00  0.00     0.043 C 
HETATM   38  C24 UNL     1      -3.387  23.902 -14.392  1.00  0.00     0.007 C 
BRANCH  38  39
HETATM   39  C25 UNL     1      -2.546  24.732 -13.559  1.00  0.00     0.146 C 
BRANCH  39  40
HETATM   40  O7  UNL     1      -1.168  24.415 -13.789  1.00  0.00    -0.391 OA
ATOM     41  H7  UNL     1      -0.630  24.799 -13.107  1.00  0.00     0.210 HD
ENDBRANCH  39  40
BRANCH  39  42
HETATM   42  C26 UNL     1      -2.745  26.190 -13.671  1.00  0.00     0.038 C 
HETATM   43  C27 UNL     1      -3.449  26.692 -14.886  1.00  0.00     0.015 C 
BRANCH  42  44
HETATM   44  C28 UNL     1      -1.441  26.923 -13.435  1.00  0.00     0.171 C 
BRANCH  44  45
HETATM   45  O8  UNL     1      -0.862  26.706 -12.227  1.00  0.00    -0.400 OA
ATOM     46  H8  UNL     1       0.072  26.873 -12.187  1.00  0.00     0.209 HD
ENDBRANCH  44  45
ENDBRANCH  42  44
ENDBRANCH  39  42
ENDBRANCH  38  39
ENDBRANCH  35  36
ENDBRANCH  34  35
ENDBRANCH  31  34
ENDBRANCH   5  31
TORSDOF 21
ENDMDL
MODEL 2
REMARK VINA RESULT: -7.258695485      2.847      7.397
REMARK  21 active torsions:
REMARK  status: ('A' for Active; 'I' for Inactive)
REMARK    1  A    between atoms: C2_2  and  C3_3 
REMARK    2  A    between atoms: C3_3  and  O1_5 
REMARK    3  A    between atoms: C3_3  and  C5_7 
REMARK    4  A    between atoms: C6_8  and  O2_9 
REMARK    5  A    between atoms: C8_12  and  O3_13 
REMARK    6  A    between atoms: C9_15  and  C10_16 
REMARK    7  A    between atoms: C11_17  and  C12_18 
REMARK    8  A    between atoms: C12_18  and  C13_19 
REMARK    9  A    between atoms: C13_19  and  O4_20 
REMARK   10  A    between atoms: C13_19  and  C14_22 
REMARK   11  A    between atoms: C18_26  and  O5_27 
REMARK   12  A    between atoms: C18_26  and  C19_29 
REMARK   13  A    between atoms: C19_29  and  O6_30 
REMARK   14  A    between atoms: C19_29  and  C20_32 
REMARK   15  A    between atoms: C20_32  and  C21_33 
REMARK   16  A    between atoms: C21_33  and  C22_34 
REMARK   17  A    between atoms: C24_36  and  C25_37 
REMARK   18  A    between atoms: C25_37  and  O7_38 
REMARK   19  A    between atoms: C25_37  and  C26_40 
REMARK   20  A    between atoms: C26_40  and  C28_42 
REMARK   21  A    between atoms: C28_42  and  O8_43 
ROOT
HETATM    1  C14 UNL     1     -10.260  24.114 -13.473  1.00  0.00     0.025 C 
HETATM    2  C15 UNL     1      -9.310  23.333 -12.675  1.00  0.00    -0.009 C 
HETATM    3  C16 UNL     1      -7.926  23.841 -12.600  1.00  0.00     0.010 C 
HETATM    4  C17 UNL     1     -10.008  23.270 -11.271  1.00  0.00     0.045 C 
HETATM    5  C18 UNL     1     -11.401  22.868 -11.710  1.00  0.00     0.087 C 
HETATM    6  C29 UNL     1     -11.664  23.679 -12.916  1.00  0.00     0.025 C 
HETATM    7  C30 UNL     1     -12.480  24.897 -12.805  1.00  0.00     0.014 C 
ENDROOT
BRANCH   1   8
HETATM    8  C13 UNL     1     -10.308  24.026 -14.941  1.00  0.00     0.126 C 
BRANCH   8   9
HETATM    9  C12 UNL     1     -10.153  22.618 -15.500  1.00  0.00     0.059 C 
BRANCH   9  10
HETATM   10  C11 UNL     1      -8.994  22.812 -16.563  1.00  0.00    -0.028 C 
HETATM   11  C10 UNL     1      -7.957  23.430 -16.163  1.00  0.00    -0.023 C 
BRANCH  11  12
HETATM   12  C9  UNL     1      -6.682  23.860 -16.713  1.00  0.00     0.046 C 
HETATM   13  C5  UNL     1      -5.698  24.284 -15.624  1.00  0.00     0.062 C 
HETATM   14  C6  UNL     1      -5.012  25.544 -16.127  1.00  0.00     0.128 C 
HETATM   15  C7  UNL     1      -5.720  25.953 -17.384  1.00  0.00     0.064 C 
HETATM   16  C8  UNL     1      -6.956  25.144 -17.495  1.00  0.00     0.128 C 
BRANCH  13  17
HETATM   17  C3  UNL     1      -4.675  23.237 -15.287  1.00  0.00     0.078 C 
HETATM   18  C4  UNL     1      -5.349  22.109 -14.483  1.00  0.00     0.051 C 
BRANCH  17  19
HETATM   19  C2  UNL     1      -3.633  23.759 -14.391  1.00  0.00     0.000 C 
HETATM   20  C1  UNL     1      -3.133  23.086 -13.393  1.00  0.00     0.010 C 
ENDBRANCH  17  19
BRANCH  17  21
HETATM   21  O1  UNL     1      -4.109  22.683 -16.449  1.00  0.00    -0.386 OA
ATOM     22  H1  UNL     1      -4.172  23.286 -17.180  1.00  0.00     0.211 HD
ENDBRANCH  17  21
ENDBRANCH  13  17
BRANCH  14  23
HETATM   23  O2  UNL     1      -3.645  25.337 -16.379  1.00  0.00    -0.395 OA
ATOM     24  H2  UNL     1      -3.256  26.060 -16.856  1.00  0.00     0.210 HD
ENDBRANCH  14  23
BRANCH  16  25
HETATM   25  O3  UNL     1      -7.281  24.918 -18.806  1.00  0.00    -0.395 OA
ATOM     26  H3  UNL     1      -6.563  24.502 -19.269  1.00  0.00     0.210 HD
ENDBRANCH  16  25
ENDBRANCH  11  12
ENDBRANCH   9  10
ENDBRANCH   8   9
BRANCH   8  27
HETATM   27  O4  UNL     1     -11.196  24.811 -15.609  1.00  0.00    -0.395 OA
ATOM     28  H4  UNL     1     -11.943  25.095 -15.094  1.00  0.00     0.210 HD
ENDBRANCH   8  27
ENDBRANCH   1   8
BRANCH   5  29
HETATM   29  O5  UNL     1     -11.239  21.496 -12.078  1.00  0.00    -0.387 OA
ATOM     30  H5  UNL     1     -10.472  21.515 -12.637  1.00  0.00     0.210 HD
ENDBRANCH   5  29
BRANCH   5  31
HETATM   31  C19 UNL     1     -12.402  22.879 -10.640  1.00  0.00     0.153 C 
BRANCH  31  32
HETATM   32  O6  UNL     1     -13.151  21.741 -10.435  1.00  0.00    -0.393 OA
ATOM     33  H6  UNL     1     -12.727  20.990 -10.037  1.00  0.00     0.210 HD
ENDBRANCH  31  32
BRANCH  31  34
HETATM   34  C20 UNL     1     -11.948  23.603  -9.425  1.00  0.00     0.039 C 
BRANCH  34  35
HETATM   35  C21 UNL     1     -12.243  25.066  -9.305  1.00  0.00     0.036 C 
BRANCH  35  36
HETATM   36  C22 UNL     1     -10.842  25.715  -9.306  1.00  0.00    -0.085 C 
HETATM   37  C23 UNL     1     -10.392  26.546 -10.416  1.00  0.00     0.043 C 
HETATM   38  C24 UNL     1     -10.106  25.504  -8.239  1.00  0.00     0.007 C 
BRANCH  38  39
HETATM   39  C25 UNL     1      -8.764  25.997  -8.034  1.00  0.00     0.146 C 
BRANCH  39  40
HETATM   40  O7  UNL     1      -8.770  27.027  -7.037  1.00  0.00    -0.391 OA
ATOM     41  H7  UNL     1      -8.790  27.880  -7.454  1.00  0.00     0.210 HD
ENDBRANCH  39  40
BRANCH  39  42
HETATM   42  C26 UNL     1      -7.737  24.990  -7.701  1.00  0.00     0.038 C 
HETATM   43  C27 UNL     1      -7.306  24.069  -8.791  1.00  0.00     0.015 C 
BRANCH  42  44
HETATM   44  C28 UNL     1      -8.123  24.234  -6.446  1.00  0.00     0.171 C 
BRANCH  44  45
HETATM   45  O8  UNL     1      -7.994  24.927  -5.287  1.00  0.00    -0.400 OA
ATOM     46  H8  UNL     1      -7.200  24.755  -4.796  1.00  0.00     0.209 HD
ENDBRANCH  44  45
ENDBRANCH  42  44
ENDBRANCH  39  42
ENDBRANCH  38  39
ENDBRANCH  35  36
ENDBRANCH  34  35
ENDBRANCH  31  34
ENDBRANCH   5  31
TORSDOF 21
ENDMDL
MODEL 3
REMARK VINA RESULT: -7.194614241      3.243      8.977
REMARK  21 active torsions:
REMARK  status: ('A' for Active; 'I' for Inactive)
REMARK    1  A    between atoms: C2_2  and  C3_3 
REMARK    2  A    between atoms: C3_3  and  O1_5 
REMARK    3  A    between atoms: C3_3  and  C5_7 
REMARK    4  A    between atoms: C6_8  and  O2_9 
REMARK    5  A    between atoms: C8_12  and  O3_13 
REMARK    6  A    between atoms: C9_15  and  C10_16 
REMARK    7  A    between atoms: C11_17  and  C12_18 
REMARK    8  A    between atoms: C12_18  and  C13_19 
REMARK    9  A    between atoms: C13_19  and  O4_20 
REMARK   10  A    between atoms: C13_19  and  C14_22 
REMARK   11  A    between atoms: C18_26  and  O5_27 
REMARK   12  A    between atoms: C18_26  and  C19_29 
REMARK   13  A    between atoms: C19_29  and  O6_30 
REMARK   14  A    between atoms: C19_29  and  C20_32 
REMARK   15  A    between atoms: C20_32  and  C21_33 
REMARK   16  A    between atoms: C21_33  and  C22_34 
REMARK   17  A    between atoms: C24_36  and  C25_37 
REMARK   18  A    between atoms: C25_37  and  O7_38 
REMARK   19  A    between atoms: C25_37  and  C26_40 
REMARK   20  A    between atoms: C26_40  and  C28_42 
REMARK   21  A    between atoms: C28_42  and  O8_43 
ROOT
HETATM    1  C14 UNL     1      -6.799  26.330  -8.911  1.00  0.00     0.025 C 
HETATM    2  C15 UNL     1      -7.504  27.545  -9.329  1.00  0.00    -0.009 C 
HETATM    3  C16 UNL     1      -6.885  28.337 -10.409  1.00  0.00     0.010 C 
HETATM    4  C17 UNL     1      -8.926  27.005  -9.713  1.00  0.00     0.045 C 
HETATM    5  C18 UNL     1      -9.198  26.147  -8.495  1.00  0.00     0.087 C 
HETATM    6  C29 UNL     1      -7.917  25.467  -8.220  1.00  0.00     0.025 C 
HETATM    7  C30 UNL     1      -7.726  24.078  -8.663  1.00  0.00     0.014 C 
ENDROOT
BRANCH   1   8
HETATM    8  C13 UNL     1      -5.636  26.368  -8.012  1.00  0.00     0.126 C 
BRANCH   8   9
HETATM    9  C12 UNL     1      -4.287  26.445  -8.717  1.00  0.00     0.059 C 
BRANCH   9  10
HETATM   10  C11 UNL     1      -4.332  25.168  -9.653  1.00  0.00    -0.028 C 
HETATM   11  C10 UNL     1      -4.208  25.377 -10.902  1.00  0.00    -0.023 C 
BRANCH  11  12
HETATM   12  C9  UNL     1      -4.192  24.594 -12.126  1.00  0.00     0.046 C 
HETATM   13  C5  UNL     1      -5.305  23.547 -12.155  1.00  0.00     0.062 C 
HETATM   14  C6  UNL     1      -4.688  22.276 -12.718  1.00  0.00     0.128 C 
HETATM   15  C7  UNL     1      -3.213  22.519 -12.826  1.00  0.00     0.064 C 
HETATM   16  C8  UNL     1      -2.903  23.774 -12.103  1.00  0.00     0.128 C 
BRANCH  13  17
HETATM   17  C3  UNL     1      -6.499  23.950 -12.973  1.00  0.00     0.078 C 
HETATM   18  C4  UNL     1      -6.024  24.721 -14.219  1.00  0.00     0.051 C 
BRANCH  17  19
HETATM   19  C2  UNL     1      -7.358  24.901 -12.253  1.00  0.00     0.000 C 
HETATM   20  C1  UNL     1      -8.375  25.511 -12.796  1.00  0.00     0.010 C 
ENDBRANCH  17  19
BRANCH  17  21
HETATM   21  O1  UNL     1      -7.232  22.826 -13.394  1.00  0.00    -0.386 OA
ATOM     22  H1  UNL     1      -6.871  22.464 -14.194  1.00  0.00     0.211 HD
ENDBRANCH  17  21
ENDBRANCH  13  17
BRANCH  14  23
HETATM   23  O2  UNL     1      -5.224  21.941 -13.973  1.00  0.00    -0.395 OA
ATOM     24  H2  UNL     1      -4.887  21.113 -14.295  1.00  0.00     0.210 HD
ENDBRANCH  14  23
BRANCH  16  25
HETATM   25  O3  UNL     1      -1.842  24.423 -12.676  1.00  0.00    -0.395 OA
ATOM     26  H3  UNL     1      -1.241  24.745 -12.015  1.00  0.00     0.210 HD
ENDBRANCH  16  25
ENDBRANCH  11  12
ENDBRANCH   9  10
ENDBRANCH   8   9
BRANCH   8  27
HETATM   27  O4  UNL     1      -5.724  27.098  -6.867  1.00  0.00    -0.395 OA
ATOM     28  H4  UNL     1      -5.262  27.928  -6.888  1.00  0.00     0.210 HD
ENDBRANCH   8  27
ENDBRANCH   1   8
BRANCH   5  29
HETATM   29  O5  UNL     1      -9.459  27.113  -7.473  1.00  0.00    -0.387 OA
ATOM     30  H5  UNL     1     -10.322  26.865  -7.161  1.00  0.00     0.210 HD
ENDBRANCH   5  29
BRANCH   5  31
HETATM   31  C19 UNL     1     -10.409  25.327  -8.587  1.00  0.00     0.153 C 
BRANCH  31  32
HETATM   32  O6  UNL     1     -10.837  24.666  -7.457  1.00  0.00    -0.393 OA
ATOM     33  H6  UNL     1     -11.770  24.637  -7.279  1.00  0.00     0.210 HD
ENDBRANCH  31  32
BRANCH  31  34
HETATM   34  C20 UNL     1     -11.461  25.936  -9.439  1.00  0.00     0.039 C 
BRANCH  34  35
HETATM   35  C21 UNL     1     -12.874  25.461  -9.291  1.00  0.00     0.036 C 
BRANCH  35  36
HETATM   36  C22 UNL     1     -13.034  24.449 -10.444  1.00  0.00    -0.085 C 
HETATM   37  C23 UNL     1     -14.026  23.380 -10.384  1.00  0.00     0.043 C 
HETATM   38  C24 UNL     1     -12.256  24.631 -11.487  1.00  0.00     0.007 C 
BRANCH  38  39
HETATM   39  C25 UNL     1     -12.224  23.798 -12.667  1.00  0.00     0.146 C 
BRANCH  39  40
HETATM   40  O7  UNL     1     -12.000  24.606 -13.829  1.00  0.00    -0.391 OA
ATOM     41  H7  UNL     1     -11.833  24.051 -14.581  1.00  0.00     0.210 HD
ENDBRANCH  39  40
BRANCH  39  42
HETATM   42  C26 UNL     1     -11.267  22.674 -12.651  1.00  0.00     0.038 C 
HETATM   43  C27 UNL     1     -10.286  22.628 -11.529  1.00  0.00     0.015 C 
BRANCH  42  44
HETATM   44  C28 UNL     1     -10.585  22.539 -13.998  1.00  0.00     0.171 C 
BRANCH  44  45
HETATM   45  O8  UNL     1      -9.757  21.472 -14.125  1.00  0.00    -0.400 OA
ATOM     46  H8  UNL     1      -8.833  21.657 -14.002  1.00  0.00     0.209 HD
ENDBRANCH  44  45
ENDBRANCH  42  44
ENDBRANCH  39  42
ENDBRANCH  38  39
ENDBRANCH  35  36
ENDBRANCH  34  35
ENDBRANCH  31  34
ENDBRANCH   5  31
TORSDOF 21
ENDMDL
MODEL 4
REMARK VINA RESULT: -7.192618044      2.761      4.803
REMARK  21 active torsions:
REMARK  status: ('A' for Active; 'I' for Inactive)
REMARK    1  A    between atoms: C2_2  and  C3_3 
REMARK    2  A    between atoms: C3_3  and  O1_5 
REMARK    3  A    between atoms: C3_3  and  C5_7 
REMARK    4  A    between atoms: C6_8  and  O2_9 
REMARK    5  A    between atoms: C8_12  and  O3_13 
REMARK    6  A    between atoms: C9_15  and  C10_16 
REMARK    7  A    between atoms: C11_17  and  C12_18 
REMARK    8  A    between atoms: C12_18  and  C13_19 
REMARK    9  A    between atoms: C13_19  and  O4_20 
REMARK   10  A    between atoms: C13_19  and  C14_22 
REMARK   11  A    between atoms: C18_26  and  O5_27 
REMARK   12  A    between atoms: C18_26  and  C19_29 
REMARK   13  A    between atoms: C19_29  and  O6_30 
REMARK   14  A    between atoms: C19_29  and  C20_32 
REMARK   15  A    between atoms: C20_32  and  C21_33 
REMARK   16  A    between atoms: C21_33  and  C22_34 
REMARK   17  A    between atoms: C24_36  and  C25_37 
REMARK   18  A    between atoms: C25_37  and  O7_38 
REMARK   19  A    between atoms: C25_37  and  C26_40 
REMARK   20  A    between atoms: C26_40  and  C28_42 
REMARK   21  A    between atoms: C28_42  and  O8_43 
ROOT
HETATM    1  C14 UNL     1      -7.704  25.217 -14.941  1.00  0.00     0.025 C 
HETATM    2  C15 UNL     1      -8.570  24.047 -15.114  1.00  0.00    -0.009 C 
HETATM    3  C16 UNL     1      -9.492  24.064 -16.265  1.00  0.00     0.010 C 
HETATM    4  C17 UNL     1      -7.542  22.863 -15.178  1.00  0.00     0.045 C 
HETATM    5  C18 UNL     1      -6.688  23.216 -13.978  1.00  0.00     0.087 C 
HETATM    6  C29 UNL     1      -6.523  24.681 -14.052  1.00  0.00     0.025 C 
HETATM    7  C30 UNL     1      -5.280  25.242 -14.603  1.00  0.00     0.014 C 
ENDROOT
BRANCH   1   8
HETATM    8  C13 UNL     1      -8.189  26.470 -14.342  1.00  0.00     0.126 C 
BRANCH   8   9
HETATM    9  C12 UNL     1      -8.082  26.533 -12.823  1.00  0.00     0.059 C 
BRANCH   9  10
HETATM   10  C11 UNL     1      -9.586  26.312 -12.379  1.00  0.00    -0.028 C 
HETATM   11  C10 UNL     1      -9.783  25.470 -11.446  1.00  0.00    -0.023 C 
BRANCH  11  12
HETATM   12  C9  UNL     1     -10.912  24.919 -10.715  1.00  0.00     0.046 C 
HETATM   13  C5  UNL     1     -12.193  24.918 -11.549  1.00  0.00     0.062 C 
HETATM   14  C6  UNL     1     -13.312  25.367 -10.622  1.00  0.00     0.128 C 
HETATM   15  C7  UNL     1     -12.667  25.807  -9.342  1.00  0.00     0.064 C 
HETATM   16  C8  UNL     1     -11.207  25.888  -9.572  1.00  0.00     0.128 C 
BRANCH  13  17
HETATM   17  C3  UNL     1     -12.525  23.584 -12.154  1.00  0.00     0.078 C 
HETATM   18  C4  UNL     1     -12.480  22.504 -11.057  1.00  0.00     0.051 C 
BRANCH  17  19
HETATM   19  C2  UNL     1     -11.513  23.161 -13.133  1.00  0.00     0.000 C 
HETATM   20  C1  UNL     1     -10.786  22.087 -13.003  1.00  0.00     0.010 C 
ENDBRANCH  17  19
BRANCH  17  21
HETATM   21  O1  UNL     1     -13.810  23.588 -12.726  1.00  0.00    -0.386 OA
ATOM     22  H1  UNL     1     -14.411  24.113 -12.210  1.00  0.00     0.211 HD
ENDBRANCH  17  21
ENDBRANCH  13  17
BRANCH  14  23
HETATM   23  O2  UNL     1     -14.239  24.339 -10.377  1.00  0.00    -0.395 OA
ATOM     24  H2  UNL     1     -15.112  24.570 -10.670  1.00  0.00     0.210 HD
ENDBRANCH  14  23
BRANCH  16  25
HETATM   25  O3  UNL     1     -10.511  25.599  -8.428  1.00  0.00    -0.395 OA
ATOM     26  H3  UNL     1      -9.575  25.601  -8.588  1.00  0.00     0.210 HD
ENDBRANCH  16  25
ENDBRANCH  11  12
ENDBRANCH   9  10
ENDBRANCH   8   9
BRANCH   8  27
HETATM   27  O4  UNL     1      -7.923  27.641 -14.982  1.00  0.00    -0.395 OA
ATOM     28  H4  UNL     1      -8.611  27.941 -15.565  1.00  0.00     0.210 HD
ENDBRANCH   8  27
ENDBRANCH   1   8
BRANCH   5  29
HETATM   29  O5  UNL     1      -7.532  22.882 -12.873  1.00  0.00    -0.387 OA
ATOM     30  H5  UNL     1      -7.072  23.259 -12.133  1.00  0.00     0.210 HD
ENDBRANCH   5  29
BRANCH   5  31
HETATM   31  C19 UNL     1      -5.485  22.393 -13.825  1.00  0.00     0.153 C 
BRANCH  31  32
HETATM   32  O6  UNL     1      -4.601  22.327 -14.879  1.00  0.00    -0.393 OA
ATOM     33  H6  UNL     1      -3.937  21.648 -14.867  1.00  0.00     0.210 HD
ENDBRANCH  31  32
BRANCH  31  34
HETATM   34  C20 UNL     1      -4.893  22.475 -12.466  1.00  0.00     0.039 C 
BRANCH  34  35
HETATM   35  C21 UNL     1      -3.486  22.968 -12.320  1.00  0.00     0.036 C 
BRANCH  35  36
HETATM   36  C22 UNL     1      -3.590  24.013 -11.189  1.00  0.00    -0.085 C 
HETATM   37  C23 UNL     1      -2.408  24.704 -10.684  1.00  0.00     0.043 C 
HETATM   38  C24 UNL     1      -4.798  24.265 -10.742  1.00  0.00     0.007 C 
BRANCH  38  39
HETATM   39  C25 UNL     1      -5.126  25.189  -9.680  1.00  0.00     0.146 C 
BRANCH  39  40
HETATM   40  O7  UNL     1      -5.411  26.481 -10.230  1.00  0.00    -0.391 OA
ATOM     41  H7  UNL     1      -6.061  26.923  -9.696  1.00  0.00     0.210 HD
ENDBRANCH  39  40
BRANCH  39  42
HETATM   42  C26 UNL     1      -6.215  24.785  -8.771  1.00  0.00     0.038 C 
HETATM   43  C27 UNL     1      -7.267  23.883  -9.323  1.00  0.00     0.015 C 
BRANCH  42  44
HETATM   44  C28 UNL     1      -6.817  25.998  -8.091  1.00  0.00     0.171 C 
BRANCH  44  45
HETATM   45  O8  UNL     1      -7.811  26.616  -8.778  1.00  0.00    -0.400 OA
ATOM     46  H8  UNL     1      -8.507  26.981  -8.245  1.00  0.00     0.209 HD
ENDBRANCH  44  45
ENDBRANCH  42  44
ENDBRANCH  39  42
ENDBRANCH  38  39
ENDBRANCH  35  36
ENDBRANCH  34  35
ENDBRANCH  31  34
ENDBRANCH   5  31
TORSDOF 21
ENDMDL
MODEL 5
REMARK VINA RESULT: -7.102630723      2.569      6.088
REMARK  21 active torsions:
REMARK  status: ('A' for Active; 'I' for Inactive)
REMARK    1  A    between atoms: C2_2  and  C3_3 
REMARK    2  A    between atoms: C3_3  and  O1_5 
REMARK    3  A    between atoms: C3_3  and  C5_7 
REMARK    4  A    between atoms: C6_8  and  O2_9 
REMARK    5  A    between atoms: C8_12  and  O3_13 
REMARK    6  A    between atoms: C9_15  and  C10_16 
REMARK    7  A    between atoms: C11_17  and  C12_18 
REMARK    8  A    between atoms: C12_18  and  C13_19 
REMARK    9  A    between atoms: C13_19  and  O4_20 
REMARK   10  A    between atoms: C13_19  and  C14_22 
REMARK   11  A    between atoms: C18_26  and  O5_27 
REMARK   12  A    between atoms: C18_26  and  C19_29 
REMARK   13  A    between atoms: C19_29  and  O6_30 
REMARK   14  A    between atoms: C19_29  and  C20_32 
REMARK   15  A    between atoms: C20_32  and  C21_33 
REMARK   16  A    between atoms: C21_33  and  C22_34 
REMARK   17  A    between atoms: C24_36  and  C25_37 
REMARK   18  A    between atoms: C25_37  and  O7_38 
REMARK   19  A    between atoms: C25_37  and  C26_40 
REMARK   20  A    between atoms: C26_40  and  C28_42 
REMARK   21  A    between atoms: C28_42  and  O8_43 
ROOT
HETATM    1  C14 UNL     1      -6.608  25.171 -11.229  1.00  0.00     0.025 C 
HETATM    2  C15 UNL     1      -6.294  23.931 -10.514  1.00  0.00    -0.009 C 
HETATM    3  C16 UNL     1      -7.437  23.136 -10.023  1.00  0.00     0.010 C 
HETATM    4  C17 UNL     1      -5.413  23.149 -11.550  1.00  0.00     0.045 C 
HETATM    5  C18 UNL     1      -4.460  24.258 -11.946  1.00  0.00     0.087 C 
HETATM    6  C29 UNL     1      -5.311  25.458 -12.070  1.00  0.00     0.025 C 
HETATM    7  C30 UNL     1      -5.750  25.899 -13.403  1.00  0.00     0.014 C 
ENDROOT
BRANCH   1   8
HETATM    8  C13 UNL     1      -6.975  26.410 -10.526  1.00  0.00     0.126 C 
BRANCH   8   9
HETATM    9  C12 UNL     1      -8.147  27.167 -11.138  1.00  0.00     0.059 C 
BRANCH   9  10
HETATM   10  C11 UNL     1      -9.385  26.310 -10.647  1.00  0.00    -0.028 C 
HETATM   11  C10 UNL     1     -10.134  25.824 -11.553  1.00  0.00    -0.023 C 
BRANCH  11  12
HETATM   12  C9  UNL     1     -11.340  25.017 -11.634  1.00  0.00     0.046 C 
HETATM   13  C5  UNL     1     -11.405  23.966 -10.527  1.00  0.00     0.062 C 
HETATM   14  C6  UNL     1     -11.909  22.686 -11.176  1.00  0.00     0.128 C 
HETATM   15  C7  UNL     1     -11.947  22.932 -12.654  1.00  0.00     0.064 C 
HETATM   16  C8  UNL     1     -11.235  24.203 -12.922  1.00  0.00     0.128 C 
BRANCH  13  17
HETATM   17  C3  UNL     1     -12.291  24.347  -9.376  1.00  0.00     0.078 C 
HETATM   18  C4  UNL     1     -12.731  25.815  -9.538  1.00  0.00     0.051 C 
BRANCH  17  19
HETATM   19  C2  UNL     1     -11.567  24.317  -8.096  1.00  0.00     0.000 C 
HETATM   20  C1  UNL     1     -10.327  24.694  -7.957  1.00  0.00     0.010 C 
ENDBRANCH  17  19
BRANCH  17  21
HETATM   21  O1  UNL     1     -13.440  23.538  -9.325  1.00  0.00    -0.386 OA
ATOM     22  H1  UNL     1     -14.222  24.044  -9.508  1.00  0.00     0.211 HD
ENDBRANCH  17  21
ENDBRANCH  13  17
BRANCH  14  23
HETATM   23  O2  UNL     1     -13.183  22.324 -10.706  1.00  0.00    -0.395 OA
ATOM     24  H2  UNL     1     -13.371  22.702  -9.855  1.00  0.00     0.210 HD
ENDBRANCH  14  23
BRANCH  16  25
HETATM   25  O3  UNL     1     -11.765  24.845 -14.010  1.00  0.00    -0.395 OA
ATOM     26  H3  UNL     1     -12.535  25.347 -13.768  1.00  0.00     0.210 HD
ENDBRANCH  16  25
ENDBRANCH  11  12
ENDBRANCH   9  10
ENDBRANCH   8   9
BRANCH   8  27
HETATM   27  O4  UNL     1      -6.937  26.421  -9.166  1.00  0.00    -0.395 OA
ATOM     28  H4  UNL     1      -7.186  27.246  -8.767  1.00  0.00     0.210 HD
ENDBRANCH   8  27
ENDBRANCH   1   8
BRANCH   5  29
HETATM   29  O5  UNL     1      -3.617  24.383 -10.798  1.00  0.00    -0.387 OA
ATOM     30  H5  UNL     1      -3.291  23.499 -10.676  1.00  0.00     0.210 HD
ENDBRANCH   5  29
BRANCH   5  31
HETATM   31  C19 UNL     1      -3.570  23.925 -13.061  1.00  0.00     0.153 C 
BRANCH  31  32
HETATM   32  O6  UNL     1      -2.211  24.023 -12.862  1.00  0.00    -0.393 OA
ATOM     33  H6  UNL     1      -1.832  23.575 -12.115  1.00  0.00     0.210 HD
ENDBRANCH  31  32
BRANCH  31  34
HETATM   34  C20 UNL     1      -4.043  22.764 -13.857  1.00  0.00     0.039 C 
BRANCH  34  35
HETATM   35  C21 UNL     1      -3.796  22.754 -15.335  1.00  0.00     0.036 C 
BRANCH  35  36
HETATM   36  C22 UNL     1      -5.012  23.513 -15.905  1.00  0.00    -0.085 C 
HETATM   37  C23 UNL     1      -4.859  24.809 -16.560  1.00  0.00     0.043 C 
HETATM   38  C24 UNL     1      -6.173  22.909 -15.801  1.00  0.00     0.007 C 
BRANCH  38  39
HETATM   39  C25 UNL     1      -7.440  23.441 -16.249  1.00  0.00     0.146 C 
BRANCH  39  40
HETATM   40  O7  UNL     1      -7.813  22.831 -17.491  1.00  0.00    -0.391 OA
ATOM     41  H7  UNL     1      -8.475  23.357 -17.923  1.00  0.00     0.210 HD
ENDBRANCH  39  40
BRANCH  39  42
HETATM   42  C26 UNL     1      -8.564  23.353 -15.296  1.00  0.00     0.038 C 
HETATM   43  C27 UNL     1      -8.226  23.114 -13.863  1.00  0.00     0.015 C 
BRANCH  42  44
HETATM   44  C28 UNL     1      -9.610  22.378 -15.796  1.00  0.00     0.171 C 
BRANCH  44  45
HETATM   45  O8  UNL     1     -10.707  22.942 -16.362  1.00  0.00    -0.400 OA
ATOM     46  H8  UNL     1     -11.467  23.009 -15.796  1.00  0.00     0.209 HD
ENDBRANCH  44  45
ENDBRANCH  42  44
ENDBRANCH  39  42
ENDBRANCH  38  39
ENDBRANCH  35  36
ENDBRANCH  34  35
ENDBRANCH  31  34
ENDBRANCH   5  31
TORSDOF 21
ENDMDL
