MODEL 1
REMARK VINA RESULT: -8.916795039      0.000      0.000
REMARK  14 active torsions:
REMARK  status: ('A' for Active; 'I' for Inactive)
REMARK    1  A    between atoms: N1_1  and  C1_4 
REMARK    2  A    between atoms: C7_17  and  N5_18 
REMARK    3  A    between atoms: N5_18  and  C8_19 
REMARK    4  A    between atoms: N5_18  and  C18_37 
REMARK    5  A    between atoms: C8_19  and  C9_20 
REMARK    6  A    between atoms: C9_20  and  C10_21 
REMARK    7  A    between atoms: C10_21  and  N6_22 
REMARK    8  A    between atoms: N6_22  and  C11_25 
REMARK    9  A    between atoms: C11_25  and  C12_26 
REMARK   10  A    between atoms: C12_26  and  O1_27 
REMARK   11  A    between atoms: C12_26  and  C13_29 
REMARK   12  A    between atoms: C15_32  and  C16_33 
REMARK   13  A    between atoms: C18_37  and  C19_38 
REMARK   14  A    between atoms: C22_41  and  C23_42 
ROOT
HETATM    1  N5  UNL     1      -8.723  24.106 -14.992  1.00  0.00    -0.388 N 
ENDROOT
BRANCH   1   2
HETATM    2  C7  UNL     1      -9.697  23.787 -14.056  1.00  0.00     0.089 C 
HETATM    3  C6  UNL     1     -10.506  22.565 -14.228  1.00  0.00     0.030 C 
HETATM    4  C5  UNL     1     -10.693  21.696 -13.016  1.00  0.00     0.046 C 
HETATM    5  C3  UNL     1     -10.917  22.535 -11.838  1.00  0.00     0.009 A 
HETATM    6  C2  UNL     1      -9.956  23.530 -11.621  1.00  0.00     0.038 A 
HETATM    7  C4  UNL     1     -11.929  22.439 -10.934  1.00  0.00     0.122 A 
HETATM    8  N2  UNL     1      -9.986  24.371 -10.588  1.00  0.00    -0.195 N 
HETATM    9  C26 UNL     1      -8.910  23.556 -12.700  1.00  0.00     0.083 C 
HETATM   10  C1  UNL     1     -11.007  24.251  -9.702  1.00  0.00     0.677 A 
ATOM     11  H2  UNL     1      -9.264  25.081 -10.467  1.00  0.00     0.184 HD
HETATM   12  N4  UNL     1     -11.940  23.316  -9.879  1.00  0.00    -0.177 N 
ATOM     13  H4  UNL     1     -12.696  23.250  -9.199  1.00  0.00     0.185 HD
HETATM   14  N3  UNL     1     -12.838  21.567 -11.061  1.00  0.00    -0.385 N 
ATOM     15  H32 UNL     1     -12.830  20.916 -11.845  1.00  0.00     0.157 HD
ATOM     16  H31 UNL     1     -13.596  21.496 -10.384  1.00  0.00     0.157 HD
BRANCH  10  17
HETATM   17  N1  UNL     1     -11.033  25.076  -8.689  1.00  0.00    -0.234 N 
ATOM     18  H12 UNL     1     -10.483  24.917  -7.845  1.00  0.00     0.174 HD
ATOM     19  H11 UNL     1     -11.626  25.903  -8.765  1.00  0.00     0.174 HD
ENDBRANCH  10  17
ENDBRANCH   1   2
BRANCH   1  20
HETATM   20  C8  UNL     1      -7.382  24.388 -14.565  1.00  0.00     0.124 C 
BRANCH  20  21
HETATM   21  C9  UNL     1      -6.332  23.572 -15.240  1.00  0.00     0.047 C 
BRANCH  21  22
HETATM   22  C10 UNL     1      -5.114  24.423 -15.599  1.00  0.00     0.234 C 
BRANCH  22  23
HETATM   23  N6  UNL     1      -3.927  23.618 -15.395  1.00  0.00    -0.072 N 
ATOM     24  H62 UNL     1      -3.547  23.233 -16.259  1.00  0.00     0.277 HD
ATOM     25  H61 UNL     1      -3.109  24.166 -15.129  1.00  0.00     0.277 HD
BRANCH  23  26
HETATM   26  C11 UNL     1      -4.282  22.590 -14.409  1.00  0.00     0.268 C 
BRANCH  26  27
HETATM   27  C12 UNL     1      -3.290  22.643 -13.296  1.00  0.00     0.177 C 
BRANCH  27  28
HETATM   28  O1  UNL     1      -2.073  23.150 -13.685  1.00  0.00    -0.389 OA
ATOM     29  H1  UNL     1      -1.642  22.620 -14.345  1.00  0.00     0.210 HD
ENDBRANCH  27  28
BRANCH  27  30
HETATM   30  C13 UNL     1      -3.865  23.362 -12.089  1.00  0.00    -0.020 A 
HETATM   31  C14 UNL     1      -3.166  24.401 -11.526  1.00  0.00     0.060 A 
HETATM   32  S1  UNL     1      -4.199  24.907 -10.260  1.00  0.00    -0.096 SA
HETATM   33  C15 UNL     1      -5.467  23.797 -10.486  1.00  0.00     0.070 A 
HETATM   34  C17 UNL     1      -5.048  23.052 -11.554  1.00  0.00     0.034 A 
BRANCH  33  35
HETATM   35  C16 UNL     1      -6.720  23.684  -9.718  1.00  0.00     0.271 C 
HETATM   36  N7  UNL     1      -7.157  24.832  -9.022  1.00  0.00    -0.057 NA
HETATM   37  O2  UNL     1      -7.324  22.608  -9.718  1.00  0.00    -0.270 OA
ENDBRANCH  33  35
ENDBRANCH  27  30
ENDBRANCH  26  27
ENDBRANCH  23  26
ENDBRANCH  22  23
ENDBRANCH  21  22
ENDBRANCH  20  21
ENDBRANCH   1  20
BRANCH   1  38
HETATM   38  C18 UNL     1      -8.724  23.551 -16.288  1.00  0.00     0.063 C 
BRANCH  38  39
HETATM   39  C19 UNL     1      -9.056  24.298 -17.506  1.00  0.00     0.024 C 
HETATM   40  C20 UNL     1     -10.445  24.944 -17.209  1.00  0.00     0.011 C 
HETATM   41  C21 UNL     1     -10.895  25.750 -18.381  1.00  0.00     0.016 C 
HETATM   42  C22 UNL     1     -10.024  26.975 -18.567  1.00  0.00     0.087 C 
HETATM   43  C24 UNL     1      -8.820  26.821 -17.712  1.00  0.00     0.016 C 
HETATM   44  C25 UNL     1      -8.204  25.443 -17.925  1.00  0.00     0.011 C 
BRANCH  42  45
HETATM   45  C23 UNL     1      -9.720  27.230 -19.996  1.00  0.00     0.177 C 
HETATM   46  O3  UNL     1      -9.303  28.342 -20.394  1.00  0.00    -0.648 OA
HETATM   47  O4  UNL     1      -9.896  26.217 -20.945  1.00  0.00    -0.648 OA
ENDBRANCH  42  45
ENDBRANCH  38  39
ENDBRANCH   1  38
TORSDOF 14
ENDMDL
MODEL 2
REMARK VINA RESULT: -8.555782671      1.420      2.474
REMARK  14 active torsions:
REMARK  status: ('A' for Active; 'I' for Inactive)
REMARK    1  A    between atoms: N1_1  and  C1_4 
REMARK    2  A    between atoms: C7_17  and  N5_18 
REMARK    3  A    between atoms: N5_18  and  C8_19 
REMARK    4  A    between atoms: N5_18  and  C18_37 
REMARK    5  A    between atoms: C8_19  and  C9_20 
REMARK    6  A    between atoms: C9_20  and  C10_21 
REMARK    7  A    between atoms: C10_21  and  N6_22 
REMARK    8  A    between atoms: N6_22  and  C11_25 
REMARK    9  A    between atoms: C11_25  and  C12_26 
REMARK   10  A    between atoms: C12_26  and  O1_27 
REMARK   11  A    between atoms: C12_26  and  C13_29 
REMARK   12  A    between atoms: C15_32  and  C16_33 
REMARK   13  A    between atoms: C18_37  and  C19_38 
REMARK   14  A    between atoms: C22_41  and  C23_42 
ROOT
HETATM    1  N5  UNL     1      -8.780  23.902 -15.155  1.00  0.00    -0.388 N 
ENDROOT
BRANCH   1   2
HETATM    2  C7  UNL     1      -9.741  23.663 -14.183  1.00  0.00     0.089 C 
HETATM    3  C6  UNL     1     -10.508  22.402 -14.207  1.00  0.00     0.030 C 
HETATM    4  C5  UNL     1     -10.664  21.677 -12.900  1.00  0.00     0.046 C 
HETATM    5  C3  UNL     1     -10.917  22.642 -11.828  1.00  0.00     0.009 A 
HETATM    6  C2  UNL     1      -9.991  23.687 -11.734  1.00  0.00     0.038 A 
HETATM    7  C4  UNL     1     -11.925  22.619 -10.915  1.00  0.00     0.122 A 
HETATM    8  N2  UNL     1     -10.049  24.642 -10.808  1.00  0.00    -0.195 N 
HETATM    9  C26 UNL     1      -8.947  23.621 -12.814  1.00  0.00     0.083 C 
HETATM   10  C1  UNL     1     -11.065  24.594  -9.910  1.00  0.00     0.677 A 
ATOM     11  H2  UNL     1      -9.352  25.386 -10.775  1.00  0.00     0.184 HD
HETATM   12  N4  UNL     1     -11.965  23.613  -9.971  1.00  0.00    -0.177 N 
ATOM     13  H4  UNL     1     -12.718  23.602  -9.284  1.00  0.00     0.185 HD
HETATM   14  N3  UNL     1     -12.803  21.707 -10.934  1.00  0.00    -0.385 N 
ATOM     15  H32 UNL     1     -12.774  20.968 -11.635  1.00  0.00     0.157 HD
ATOM     16  H31 UNL     1     -13.558  21.690 -10.249  1.00  0.00     0.157 HD
BRANCH  10  17
HETATM   17  N1  UNL     1     -11.119  25.532  -9.001  1.00  0.00    -0.234 N 
ATOM     18  H12 UNL     1     -10.849  26.495  -9.199  1.00  0.00     0.174 HD
ATOM     19  H11 UNL     1     -11.445  25.273  -8.070  1.00  0.00     0.174 HD
ENDBRANCH  10  17
ENDBRANCH   1   2
BRANCH   1  20
HETATM   20  C8  UNL     1      -7.398  24.015 -14.785  1.00  0.00     0.124 C 
BRANCH  20  21
HETATM   21  C9  UNL     1      -6.468  23.179 -15.597  1.00  0.00     0.047 C 
BRANCH  21  22
HETATM   22  C10 UNL     1      -5.259  22.735 -14.773  1.00  0.00     0.234 C 
BRANCH  22  23
HETATM   23  N6  UNL     1      -5.746  22.029 -13.605  1.00  0.00    -0.072 N 
ATOM     24  H62 UNL     1      -6.721  22.233 -13.387  1.00  0.00     0.277 HD
ATOM     25  H61 UNL     1      -5.856  21.026 -13.756  1.00  0.00     0.277 HD
BRANCH  23  26
HETATM   26  C11 UNL     1      -4.826  22.353 -12.506  1.00  0.00     0.268 C 
BRANCH  26  27
HETATM   27  C12 UNL     1      -5.521  23.287 -11.574  1.00  0.00     0.177 C 
BRANCH  27  28
HETATM   28  O1  UNL     1      -6.301  22.640 -10.646  1.00  0.00    -0.389 OA
ATOM     29  H1  UNL     1      -7.102  23.109 -10.441  1.00  0.00     0.210 HD
ENDBRANCH  27  28
BRANCH  27  30
HETATM   30  C13 UNL     1      -4.537  24.254 -10.939  1.00  0.00    -0.020 A 
HETATM   31  C14 UNL     1      -4.878  24.895  -9.774  1.00  0.00     0.060 A 
HETATM   32  S1  UNL     1      -3.479  25.818  -9.431  1.00  0.00    -0.096 SA
HETATM   33  C15 UNL     1      -2.522  25.365 -10.761  1.00  0.00     0.070 A 
HETATM   34  C17 UNL     1      -3.326  24.496 -11.446  1.00  0.00     0.034 A 
BRANCH  33  35
HETATM   35  C16 UNL     1      -1.150  25.799 -11.080  1.00  0.00     0.271 C 
HETATM   36  N7  UNL     1      -0.764  25.775 -12.438  1.00  0.00    -0.057 NA
HETATM   37  O2  UNL     1      -0.411  26.160 -10.161  1.00  0.00    -0.270 OA
ENDBRANCH  33  35
ENDBRANCH  27  30
ENDBRANCH  26  27
ENDBRANCH  23  26
ENDBRANCH  22  23
ENDBRANCH  21  22
ENDBRANCH  20  21
ENDBRANCH   1  20
BRANCH   1  38
HETATM   38  C18 UNL     1      -8.901  23.396 -16.466  1.00  0.00     0.063 C 
BRANCH  38  39
HETATM   39  C19 UNL     1      -9.203  24.216 -17.643  1.00  0.00     0.024 C 
HETATM   40  C20 UNL     1     -10.537  24.944 -17.290  1.00  0.00     0.011 C 
HETATM   41  C21 UNL     1     -10.951  25.830 -18.416  1.00  0.00     0.016 C 
HETATM   42  C22 UNL     1     -10.000  26.999 -18.568  1.00  0.00     0.087 C 
HETATM   43  C24 UNL     1      -8.794  26.724 -17.747  1.00  0.00     0.016 C 
HETATM   44  C25 UNL     1      -8.281  25.318 -18.032  1.00  0.00     0.011 C 
BRANCH  42  45
HETATM   45  C23 UNL     1      -9.706  27.294 -19.991  1.00  0.00     0.177 C 
HETATM   46  O3  UNL     1      -9.281  28.413 -20.359  1.00  0.00    -0.648 OA
HETATM   47  O4  UNL     1      -9.899  26.313 -20.970  1.00  0.00    -0.648 OA
ENDBRANCH  42  45
ENDBRANCH  38  39
ENDBRANCH   1  38
TORSDOF 14
ENDMDL
MODEL 3
REMARK VINA RESULT: -8.550731395      3.082      5.780
REMARK  14 active torsions:
REMARK  status: ('A' for Active; 'I' for Inactive)
REMARK    1  A    between atoms: N1_1  and  C1_4 
REMARK    2  A    between atoms: C7_17  and  N5_18 
REMARK    3  A    between atoms: N5_18  and  C8_19 
REMARK    4  A    between atoms: N5_18  and  C18_37 
REMARK    5  A    between atoms: C8_19  and  C9_20 
REMARK    6  A    between atoms: C9_20  and  C10_21 
REMARK    7  A    between atoms: C10_21  and  N6_22 
REMARK    8  A    between atoms: N6_22  and  C11_25 
REMARK    9  A    between atoms: C11_25  and  C12_26 
REMARK   10  A    between atoms: C12_26  and  O1_27 
REMARK   11  A    between atoms: C12_26  and  C13_29 
REMARK   12  A    between atoms: C15_32  and  C16_33 
REMARK   13  A    between atoms: C18_37  and  C19_38 
REMARK   14  A    between atoms: C22_41  and  C23_42 
ROOT
HETATM    1  N5  UNL     1      -7.537  23.252 -14.749  1.00  0.00    -0.388 N 
ENDROOT
BRANCH   1   2
HETATM    2  C7  UNL     1      -8.032  24.122 -15.710  1.00  0.00     0.089 C 
HETATM    3  C6  UNL     1      -7.172  24.534 -16.836  1.00  0.00     0.030 C 
HETATM    4  C5  UNL     1      -7.786  24.502 -18.208  1.00  0.00     0.046 C 
HETATM    5  C3  UNL     1      -9.161  25.002 -18.144  1.00  0.00     0.009 A 
HETATM    6  C2  UNL     1      -9.979  24.380 -17.194  1.00  0.00     0.038 A 
HETATM    7  C4  UNL     1      -9.724  25.973 -18.912  1.00  0.00     0.122 A 
HETATM    8  N2  UNL     1     -11.262  24.689 -17.011  1.00  0.00    -0.195 N 
HETATM    9  C26 UNL     1      -9.237  23.350 -16.390  1.00  0.00     0.083 C 
HETATM   10  C1  UNL     1     -11.798  25.662 -17.792  1.00  0.00     0.677 A 
ATOM     11  H2  UNL     1     -11.824  24.210 -16.307  1.00  0.00     0.184 HD
HETATM   12  N4  UNL     1     -11.046  26.275 -18.706  1.00  0.00    -0.177 N 
ATOM     13  H4  UNL     1     -11.474  27.002 -19.278  1.00  0.00     0.185 HD
HETATM   14  N3  UNL     1      -9.050  26.583 -19.792  1.00  0.00    -0.385 N 
ATOM     15  H32 UNL     1      -8.067  26.359 -19.946  1.00  0.00     0.157 HD
ATOM     16  H31 UNL     1      -9.473  27.311 -20.368  1.00  0.00     0.157 HD
BRANCH  10  17
HETATM   17  N1  UNL     1     -13.057  25.961 -17.611  1.00  0.00    -0.234 N 
ATOM     18  H12 UNL     1     -13.626  25.507 -16.897  1.00  0.00     0.174 HD
ATOM     19  H11 UNL     1     -13.465  26.677 -18.212  1.00  0.00     0.174 HD
ENDBRANCH  10  17
ENDBRANCH   1   2
BRANCH   1  20
HETATM   20  C8  UNL     1      -6.353  22.486 -15.015  1.00  0.00     0.124 C 
BRANCH  20  21
HETATM   21  C9  UNL     1      -5.264  22.659 -14.011  1.00  0.00     0.047 C 
BRANCH  21  22
HETATM   22  C10 UNL     1      -3.911  22.866 -14.690  1.00  0.00     0.234 C 
BRANCH  22  23
HETATM   23  N6  UNL     1      -2.901  22.979 -13.657  1.00  0.00    -0.072 N 
ATOM     24  H62 UNL     1      -2.939  22.224 -12.972  1.00  0.00     0.277 HD
ATOM     25  H61 UNL     1      -1.956  22.796 -13.995  1.00  0.00     0.277 HD
BRANCH  23  26
HETATM   26  C11 UNL     1      -3.058  24.312 -13.062  1.00  0.00     0.268 C 
BRANCH  26  27
HETATM   27  C12 UNL     1      -2.563  24.258 -11.656  1.00  0.00     0.177 C 
BRANCH  27  28
HETATM   28  O1  UNL     1      -1.439  25.023 -11.451  1.00  0.00    -0.389 OA
ATOM     29  H1  UNL     1      -1.633  25.879 -11.087  1.00  0.00     0.210 HD
ENDBRANCH  27  28
BRANCH  27  30
HETATM   30  C13 UNL     1      -3.676  24.578 -10.674  1.00  0.00    -0.020 A 
HETATM   31  C14 UNL     1      -3.518  25.617  -9.791  1.00  0.00     0.060 A 
HETATM   32  S1  UNL     1      -5.005  25.619  -8.945  1.00  0.00    -0.096 SA
HETATM   33  C15 UNL     1      -5.766  24.318  -9.732  1.00  0.00     0.070 A 
HETATM   34  C17 UNL     1      -4.832  23.911 -10.643  1.00  0.00     0.034 A 
BRANCH  33  35
HETATM   35  C16 UNL     1      -7.117  23.778  -9.491  1.00  0.00     0.271 C 
HETATM   36  N7  UNL     1      -8.101  24.680  -9.031  1.00  0.00    -0.057 NA
HETATM   37  O2  UNL     1      -7.325  22.580  -9.699  1.00  0.00    -0.270 OA
ENDBRANCH  33  35
ENDBRANCH  27  30
ENDBRANCH  26  27
ENDBRANCH  23  26
ENDBRANCH  22  23
ENDBRANCH  21  22
ENDBRANCH  20  21
ENDBRANCH   1  20
BRANCH   1  38
HETATM   38  C18 UNL     1      -7.655  23.519 -13.369  1.00  0.00     0.063 C 
BRANCH  38  39
HETATM   39  C19 UNL     1      -8.890  23.349 -12.597  1.00  0.00     0.024 C 
HETATM   40  C20 UNL     1      -9.531  24.771 -12.554  1.00  0.00     0.011 C 
HETATM   41  C21 UNL     1     -10.815  24.730 -11.797  1.00  0.00     0.016 C 
HETATM   42  C22 UNL     1     -11.869  23.946 -12.552  1.00  0.00     0.087 C 
HETATM   43  C24 UNL     1     -11.198  23.214 -13.656  1.00  0.00     0.016 C 
HETATM   44  C25 UNL     1      -9.975  22.477 -13.123  1.00  0.00     0.011 C 
BRANCH  42  45
HETATM   45  C23 UNL     1     -12.668  23.079 -11.652  1.00  0.00     0.177 C 
HETATM   46  O3  UNL     1     -13.668  22.446 -12.062  1.00  0.00    -0.648 OA
HETATM   47  O4  UNL     1     -12.316  22.948 -10.304  1.00  0.00    -0.648 OA
ENDBRANCH  42  45
ENDBRANCH  38  39
ENDBRANCH   1  38
TORSDOF 14
ENDMDL
MODEL 4
REMARK VINA RESULT: -8.540464442      3.045      7.550
REMARK  14 active torsions:
REMARK  status: ('A' for Active; 'I' for Inactive)
REMARK    1  A    between atoms: N1_1  and  C1_4 
REMARK    2  A    between atoms: C7_17  and  N5_18 
REMARK    3  A    between atoms: N5_18  and  C8_19 
REMARK    4  A    between atoms: N5_18  and  C18_37 
REMARK    5  A    between atoms: C8_19  and  C9_20 
REMARK    6  A    between atoms: C9_20  and  C10_21 
REMARK    7  A    between atoms: C10_21  and  N6_22 
REMARK    8  A    between atoms: N6_22  and  C11_25 
REMARK    9  A    between atoms: C11_25  and  C12_26 
REMARK   10  A    between atoms: C12_26  and  O1_27 
REMARK   11  A    between atoms: C12_26  and  C13_29 
REMARK   12  A    between atoms: C15_32  and  C16_33 
REMARK   13  A    between atoms: C18_37  and  C19_38 
REMARK   14  A    between atoms: C22_41  and  C23_42 
ROOT
HETATM    1  N5  UNL     1      -7.218  24.706 -11.134  1.00  0.00    -0.388 N 
ENDROOT
BRANCH   1   2
HETATM    2  C7  UNL     1      -8.589  24.771 -11.345  1.00  0.00     0.089 C 
HETATM    3  C6  UNL     1      -9.145  25.811 -12.231  1.00  0.00     0.030 C 
HETATM    4  C5  UNL     1     -10.174  25.371 -13.234  1.00  0.00     0.046 C 
HETATM    5  C3  UNL     1     -11.084  24.406 -12.615  1.00  0.00     0.009 A 
HETATM    6  C2  UNL     1     -10.465  23.315 -11.993  1.00  0.00     0.038 A 
HETATM    7  C4  UNL     1     -12.444  24.442 -12.599  1.00  0.00     0.122 A 
HETATM    8  N2  UNL     1     -11.134  22.328 -11.399  1.00  0.00    -0.195 N 
HETATM    9  C26 UNL     1      -8.966  23.403 -12.050  1.00  0.00     0.083 C 
HETATM   10  C1  UNL     1     -12.490  22.391 -11.398  1.00  0.00     0.677 A 
ATOM     11  H2  UNL     1     -10.642  21.550 -10.958  1.00  0.00     0.184 HD
HETATM   12  N4  UNL     1     -13.111  23.416 -11.980  1.00  0.00    -0.177 N 
ATOM     13  H4  UNL     1     -14.130  23.438 -11.964  1.00  0.00     0.185 HD
HETATM   14  N3  UNL     1     -13.078  25.396 -13.137  1.00  0.00    -0.385 N 
ATOM     15  H32 UNL     1     -12.582  26.159 -13.597  1.00  0.00     0.157 HD
ATOM     16  H31 UNL     1     -14.097  25.423 -13.125  1.00  0.00     0.157 HD
BRANCH  10  17
HETATM   17  N1  UNL     1     -13.143  21.420 -10.816  1.00  0.00    -0.234 N 
ATOM     18  H12 UNL     1     -13.909  21.595 -10.166  1.00  0.00     0.174 HD
ATOM     19  H11 UNL     1     -12.864  20.464 -11.032  1.00  0.00     0.174 HD
ENDBRANCH  10  17
ENDBRANCH   1   2
BRANCH   1  20
HETATM   20  C8  UNL     1      -6.319  24.714 -12.252  1.00  0.00     0.124 C 
BRANCH  20  21
HETATM   21  C9  UNL     1      -4.892  24.461 -11.903  1.00  0.00     0.047 C 
BRANCH  21  22
HETATM   22  C10 UNL     1      -3.967  24.788 -13.075  1.00  0.00     0.234 C 
BRANCH  22  23
HETATM   23  N6  UNL     1      -4.688  24.522 -14.304  1.00  0.00    -0.072 N 
ATOM     24  H62 UNL     1      -5.692  24.406 -14.166  1.00  0.00     0.277 HD
ATOM     25  H61 UNL     1      -4.738  25.330 -14.925  1.00  0.00     0.277 HD
BRANCH  23  26
HETATM   26  C11 UNL     1      -4.048  23.354 -14.921  1.00  0.00     0.268 C 
BRANCH  26  27
HETATM   27  C12 UNL     1      -5.097  22.325 -15.178  1.00  0.00     0.177 C 
BRANCH  27  28
HETATM   28  O1  UNL     1      -5.620  21.789 -14.026  1.00  0.00    -0.389 OA
ATOM     29  H1  UNL     1      -6.220  22.376 -13.581  1.00  0.00     0.210 HD
ENDBRANCH  27  28
BRANCH  27  30
HETATM   30  C13 UNL     1      -6.168  22.862 -16.112  1.00  0.00    -0.020 A 
HETATM   31  C14 UNL     1      -5.817  23.271 -17.375  1.00  0.00     0.060 A 
HETATM   32  S1  UNL     1      -7.319  23.740 -18.047  1.00  0.00    -0.096 SA
HETATM   33  C15 UNL     1      -8.327  23.406 -16.719  1.00  0.00     0.070 A 
HETATM   34  C17 UNL     1      -7.457  22.932 -15.776  1.00  0.00     0.034 A 
BRANCH  33  35
HETATM   35  C16 UNL     1      -9.788  23.575 -16.625  1.00  0.00     0.271 C 
HETATM   36  N7  UNL     1     -10.318  24.830 -16.995  1.00  0.00    -0.057 NA
HETATM   37  O2  UNL     1     -10.473  22.627 -16.234  1.00  0.00    -0.270 OA
ENDBRANCH  33  35
ENDBRANCH  27  30
ENDBRANCH  26  27
ENDBRANCH  23  26
ENDBRANCH  22  23
ENDBRANCH  21  22
ENDBRANCH  20  21
ENDBRANCH   1  20
BRANCH   1  38
HETATM   38  C18 UNL     1      -6.609  25.291 -10.005  1.00  0.00     0.063 C 
BRANCH  38  39
HETATM   39  C19 UNL     1      -6.604  24.691  -8.667  1.00  0.00     0.024 C 
HETATM   40  C20 UNL     1      -6.500  25.902  -7.688  1.00  0.00     0.011 C 
HETATM   41  C21 UNL     1      -6.496  25.420  -6.277  1.00  0.00     0.016 C 
HETATM   42  C22 UNL     1      -7.842  24.839  -5.896  1.00  0.00     0.087 C 
HETATM   43  C24 UNL     1      -8.635  24.656  -7.138  1.00  0.00     0.016 C 
HETATM   44  C25 UNL     1      -7.796  23.939  -8.189  1.00  0.00     0.011 C 
BRANCH  42  45
HETATM   45  C23 UNL     1      -7.704  23.607  -5.081  1.00  0.00     0.177 C 
HETATM   46  O3  UNL     1      -8.482  22.635  -5.217  1.00  0.00    -0.648 OA
HETATM   47  O4  UNL     1      -6.685  23.502  -4.127  1.00  0.00    -0.648 OA
ENDBRANCH  42  45
ENDBRANCH  38  39
ENDBRANCH   1  38
TORSDOF 14
ENDMDL
MODEL 5
REMARK VINA RESULT: -8.523685995      1.186      1.957
REMARK  14 active torsions:
REMARK  status: ('A' for Active; 'I' for Inactive)
REMARK    1  A    between atoms: N1_1  and  C1_4 
REMARK    2  A    between atoms: C7_17  and  N5_18 
REMARK    3  A    between atoms: N5_18  and  C8_19 
REMARK    4  A    between atoms: N5_18  and  C18_37 
REMARK    5  A    between atoms: C8_19  and  C9_20 
REMARK    6  A    between atoms: C9_20  and  C10_21 
REMARK    7  A    between atoms: C10_21  and  N6_22 
REMARK    8  A    between atoms: N6_22  and  C11_25 
REMARK    9  A    between atoms: C11_25  and  C12_26 
REMARK   10  A    between atoms: C12_26  and  O1_27 
REMARK   11  A    between atoms: C12_26  and  C13_29 
REMARK   12  A    between atoms: C15_32  and  C16_33 
REMARK   13  A    between atoms: C18_37  and  C19_38 
REMARK   14  A    between atoms: C22_41  and  C23_42 
ROOT
HETATM    1  N5  UNL     1      -9.444  23.332 -14.885  1.00  0.00    -0.388 N 
ENDROOT
BRANCH   1   2
HETATM    2  C7  UNL     1      -9.863  23.396 -13.563  1.00  0.00     0.089 C 
HETATM    3  C6  UNL     1      -9.278  24.404 -12.657  1.00  0.00     0.030 C 
HETATM    4  C5  UNL     1     -10.233  25.177 -11.792  1.00  0.00     0.046 C 
HETATM    5  C3  UNL     1     -11.270  24.279 -11.280  1.00  0.00     0.009 A 
HETATM    6  C2  UNL     1     -11.942  23.526 -12.251  1.00  0.00     0.038 A 
HETATM    7  C4  UNL     1     -11.661  24.118  -9.987  1.00  0.00     0.122 A 
HETATM    8  N2  UNL     1     -12.928  22.676 -11.972  1.00  0.00    -0.195 N 
HETATM    9  C26 UNL     1     -11.401  23.767 -13.632  1.00  0.00     0.083 C 
HETATM   10  C1  UNL     1     -13.297  22.536 -10.673  1.00  0.00     0.677 A 
ATOM     11  H2  UNL     1     -13.392  22.147 -12.711  1.00  0.00     0.184 HD
HETATM   12  N4  UNL     1     -12.678  23.236  -9.723  1.00  0.00    -0.177 N 
ATOM     13  H4  UNL     1     -12.975  23.111  -8.756  1.00  0.00     0.185 HD
HETATM   14  N3  UNL     1     -11.102  24.762  -9.051  1.00  0.00    -0.385 N 
ATOM     15  H32 UNL     1     -10.346  25.417  -9.247  1.00  0.00     0.157 HD
ATOM     16  H31 UNL     1     -11.395  24.641  -8.082  1.00  0.00     0.157 HD
BRANCH  10  17
HETATM   17  N1  UNL     1     -14.266  21.702 -10.403  1.00  0.00    -0.234 N 
ATOM     18  H12 UNL     1     -15.056  21.565 -11.033  1.00  0.00     0.174 HD
ATOM     19  H11 UNL     1     -14.212  21.178  -9.529  1.00  0.00     0.174 HD
ENDBRANCH  10  17
ENDBRANCH   1   2
BRANCH   1  20
HETATM   20  C8  UNL     1      -8.320  22.514 -15.242  1.00  0.00     0.124 C 
BRANCH  20  21
HETATM   21  C9  UNL     1      -6.994  23.173 -15.072  1.00  0.00     0.047 C 
BRANCH  21  22
HETATM   22  C10 UNL     1      -5.930  22.171 -14.626  1.00  0.00     0.234 C 
BRANCH  22  23
HETATM   23  N6  UNL     1      -4.640  22.651 -15.082  1.00  0.00    -0.072 N 
ATOM     24  H62 UNL     1      -4.051  21.915 -15.472  1.00  0.00     0.277 HD
ATOM     25  H61 UNL     1      -4.698  23.226 -15.922  1.00  0.00     0.277 HD
BRANCH  23  26
HETATM   26  C11 UNL     1      -4.024  23.344 -13.944  1.00  0.00     0.268 C 
BRANCH  26  27
HETATM   27  C12 UNL     1      -4.239  22.519 -12.720  1.00  0.00     0.177 C 
BRANCH  27  28
HETATM   28  O1  UNL     1      -3.214  21.635 -12.480  1.00  0.00    -0.389 OA
ATOM     29  H1  UNL     1      -3.517  20.789 -12.170  1.00  0.00     0.210 HD
ENDBRANCH  27  28
BRANCH  27  30
HETATM   30  C13 UNL     1      -4.549  23.396 -11.520  1.00  0.00    -0.020 A 
HETATM   31  C14 UNL     1      -3.619  24.313 -11.097  1.00  0.00     0.060 A 
HETATM   32  S1  UNL     1      -4.411  25.071  -9.783  1.00  0.00    -0.096 SA
HETATM   33  C15 UNL     1      -5.876  24.209  -9.815  1.00  0.00     0.070 A 
HETATM   34  C17 UNL     1      -5.708  23.343 -10.861  1.00  0.00     0.034 A 
BRANCH  33  35
HETATM   35  C16 UNL     1      -7.045  24.375  -8.933  1.00  0.00     0.271 C 
HETATM   36  N7  UNL     1      -6.847  25.077  -7.724  1.00  0.00    -0.057 NA
HETATM   37  O2  UNL     1      -8.128  23.900  -9.284  1.00  0.00    -0.270 OA
ENDBRANCH  33  35
ENDBRANCH  27  30
ENDBRANCH  26  27
ENDBRANCH  23  26
ENDBRANCH  22  23
ENDBRANCH  21  22
ENDBRANCH  20  21
ENDBRANCH   1  20
BRANCH   1  38
HETATM   38  C18 UNL     1     -10.351  23.425 -15.960  1.00  0.00     0.063 C 
BRANCH  38  39
HETATM   39  C19 UNL     1     -10.111  24.208 -17.177  1.00  0.00     0.024 C 
HETATM   40  C20 UNL     1     -11.388  25.090 -17.339  1.00  0.00     0.011 C 
HETATM   41  C21 UNL     1     -11.263  25.953 -18.550  1.00  0.00     0.016 C 
HETATM   42  C22 UNL     1     -10.190  27.005 -18.362  1.00  0.00     0.087 C 
HETATM   43  C24 UNL     1      -9.400  26.649 -17.156  1.00  0.00     0.016 C 
HETATM   44  C25 UNL     1      -8.988  25.183 -17.219  1.00  0.00     0.011 C 
BRANCH  42  45
HETATM   45  C23 UNL     1      -9.372  27.191 -19.585  1.00  0.00     0.177 C 
HETATM   46  O3  UNL     1      -8.372  27.944 -19.603  1.00  0.00    -0.648 OA
HETATM   47  O4  UNL     1      -9.707  26.517 -20.765  1.00  0.00    -0.648 OA
ENDBRANCH  42  45
ENDBRANCH  38  39
ENDBRANCH   1  38
TORSDOF 14
ENDMDL
