MODEL 1
REMARK VINA RESULT: -9.927972877      0.000      0.000
REMARK  13 active torsions:
REMARK  status: ('A' for Active; 'I' for Inactive)
REMARK       I    between atoms: N2_3  and  C2_5 
REMARK       I    between atoms: C2_5  and  N9_38 
REMARK    1  A    between atoms: N3_6  and  C3_8 
REMARK    2  A    between atoms: C4_9  and  C5_10 
REMARK    3  A    between atoms: C5_10  and  C6_11 
REMARK    4  A    between atoms: C6_11  and  C7_12 
REMARK    5  A    between atoms: C7_12  and  N4_13 
REMARK    6  A    between atoms: N4_13  and  C8_14 
REMARK    7  A    between atoms: N4_13  and  C13_19 
REMARK    8  A    between atoms: C8_14  and  C9_15 
REMARK    9  A    between atoms: C9_15  and  C10_16 
REMARK   10  A    between atoms: C13_19  and  C14_20 
REMARK       I    between atoms: N5_24  and  C18_25 
REMARK   11  A    between atoms: C21_34  and  C22_35 
REMARK   12  A    between atoms: N9_38  and  C23_40 
REMARK   13  A    between atoms: C25_44  and  N11_45 
ROOT
HETATM    1  N1  UNL     1      -8.970  28.272 -16.103  1.00  0.00    -0.171 NA
HETATM    2  C1  UNL     1      -8.589  27.234 -16.449  1.00  0.00     0.196 C 
HETATM    3  N2  UNL     1      -8.121  25.980 -16.852  1.00  0.00    -0.126 N 
ATOM      4  H2  UNL     1      -7.141  25.737 -16.713  1.00  0.00     0.197 HD
HETATM    5  C2  UNL     1      -9.007  25.034 -17.460  1.00  0.00     0.693 C 
HETATM    6  N3  UNL     1      -8.851  23.766 -17.331  1.00  0.00    -0.188 N 
ATOM      7  H3  UNL     1      -9.503  23.126 -17.785  1.00  0.00     0.184 HD
HETATM    8  N9  UNL     1     -10.076  25.627 -18.218  1.00  0.00    -0.174 N 
ATOM      9  H9  UNL     1     -11.039  25.379 -17.993  1.00  0.00     0.186 HD
ENDROOT
BRANCH   6  10
HETATM   10  C3  UNL     1      -7.792  23.254 -16.570  1.00  0.00     0.089 A 
HETATM   11  C4  UNL     1      -7.971  22.795 -15.307  1.00  0.00    -0.027 A 
HETATM   12  C19 UNL     1      -6.823  22.471 -14.553  1.00  0.00     0.026 A 
HETATM   13  C20 UNL     1      -5.568  22.620 -15.104  1.00  0.00     0.089 A 
HETATM   14  N8  UNL     1      -5.452  23.074 -16.359  1.00  0.00    -0.359 N 
HETATM   15  C21 UNL     1      -6.505  23.400 -17.126  1.00  0.00     0.137 A 
ATOM     16  H8  UNL     1      -4.516  23.178 -16.752  1.00  0.00     0.165 HD
BRANCH  11  17
HETATM   17  C5  UNL     1      -9.283  22.472 -14.747  1.00  0.00     0.043 C 
BRANCH  17  18
HETATM   18  C6  UNL     1      -9.379  23.342 -13.447  1.00  0.00     0.035 C 
BRANCH  18  19
HETATM   19  C7  UNL     1     -10.073  22.567 -12.381  1.00  0.00     0.272 C 
BRANCH  19  20
HETATM   20  N4  UNL     1      -9.808  23.153 -11.083  1.00  0.00     0.090 N 
BRANCH  20  21
HETATM   21  C8  UNL     1      -8.671  23.993 -11.093  1.00  0.00     0.273 C 
BRANCH  21  22
HETATM   22  C9  UNL     1      -7.446  23.371 -10.443  1.00  0.00     0.034 C 
BRANCH  22  23
HETATM   23  C10 UNL     1      -6.245  23.835 -11.236  1.00  0.00    -0.013 A 
HETATM   24  C11 UNL     1      -5.067  22.944 -11.383  1.00  0.00     0.005 A 
HETATM   25  C12 UNL     1      -4.985  24.076 -10.401  1.00  0.00     0.005 A 
ENDBRANCH  22  23
ENDBRANCH  21  22
ENDBRANCH  20  21
BRANCH  20  26
HETATM   26  C13 UNL     1     -10.912  23.664 -10.389  1.00  0.00     0.297 C 
BRANCH  26  27
HETATM   27  C14 UNL     1     -12.058  23.983 -11.297  1.00  0.00     0.115 C 
HETATM   28  C15 UNL     1     -12.157  25.506 -11.465  1.00  0.00     0.029 C 
HETATM   29  C16 UNL     1     -12.811  25.975 -10.181  1.00  0.00     0.022 C 
HETATM   30  C17 UNL     1     -13.490  24.745  -9.646  1.00  0.00     0.126 C 
HETATM   31  N5  UNL     1     -13.342  23.701 -10.625  1.00  0.00    -0.349 N 
HETATM   32  C18 UNL     1     -14.204  22.649 -10.917  1.00  0.00     0.184 C 
HETATM   33  N6  UNL     1     -13.955  21.436 -10.587  1.00  0.00    -0.374 N 
HETATM   34  N7  UNL     1     -15.409  22.935 -11.610  1.00  0.00    -0.064 NA
ATOM     35  H62 UNL     1     -13.089  21.231 -10.089  1.00  0.00     0.158 HD
ATOM     36  H61 UNL     1     -14.587  20.664 -10.801  1.00  0.00     0.158 HD
ENDBRANCH  26  27
ENDBRANCH  20  26
ENDBRANCH  19  20
ENDBRANCH  18  19
ENDBRANCH  17  18
ENDBRANCH  11  17
BRANCH  15  37
HETATM   37  C22 UNL     1      -6.370  23.889 -18.488  1.00  0.00     0.229 C 
HETATM   38  O1  UNL     1      -6.906  23.246 -19.414  1.00  0.00    -0.643 OA
HETATM   39  O2  UNL     1      -5.670  25.036 -18.765  1.00  0.00    -0.643 OA
ENDBRANCH  15  37
ENDBRANCH   6  10
BRANCH   8  40
HETATM   40  C23 UNL     1      -9.830  26.547 -19.270  1.00  0.00     0.152 A 
HETATM   41  C24 UNL     1      -9.984  26.305 -20.631  1.00  0.00     0.155 A 
HETATM   42  N10 UNL     1      -9.660  27.412 -21.331  1.00  0.00    -0.199 N 
HETATM   43  C25 UNL     1      -9.297  28.369 -20.435  1.00  0.00     0.677 A 
ATOM     44  H10 UNL     1      -9.682  27.512 -22.346  1.00  0.00     0.183 HD
HETATM   45  N12 UNL     1      -9.409  27.824 -19.223  1.00  0.00    -0.175 N 
ATOM     46  H12 UNL     1      -9.200  28.320 -18.357  1.00  0.00     0.186 HD
BRANCH  43  47
HETATM   47  N11 UNL     1      -8.925  29.575 -20.752  1.00  0.00    -0.234 N 
ATOM     48 2H11 UNL     1      -8.006  29.901 -21.051  1.00  0.00     0.174 HD
ATOM     49 1H11 UNL     1      -9.536  30.392 -20.737  1.00  0.00     0.174 HD
ENDBRANCH  43  47
ENDBRANCH   8  40
TORSDOF 13
ENDMDL
MODEL 2
REMARK VINA RESULT: -9.795776446      2.842      4.401
REMARK  13 active torsions:
REMARK  status: ('A' for Active; 'I' for Inactive)
REMARK       I    between atoms: N2_3  and  C2_5 
REMARK       I    between atoms: C2_5  and  N9_38 
REMARK    1  A    between atoms: N3_6  and  C3_8 
REMARK    2  A    between atoms: C4_9  and  C5_10 
REMARK    3  A    between atoms: C5_10  and  C6_11 
REMARK    4  A    between atoms: C6_11  and  C7_12 
REMARK    5  A    between atoms: C7_12  and  N4_13 
REMARK    6  A    between atoms: N4_13  and  C8_14 
REMARK    7  A    between atoms: N4_13  and  C13_19 
REMARK    8  A    between atoms: C8_14  and  C9_15 
REMARK    9  A    between atoms: C9_15  and  C10_16 
REMARK   10  A    between atoms: C13_19  and  C14_20 
REMARK       I    between atoms: N5_24  and  C18_25 
REMARK   11  A    between atoms: C21_34  and  C22_35 
REMARK   12  A    between atoms: N9_38  and  C23_40 
REMARK   13  A    between atoms: C25_44  and  N11_45 
ROOT
HETATM    1  N1  UNL     1      -9.394  26.307 -13.276  1.00  0.00    -0.171 NA
HETATM    2  C1  UNL     1      -8.416  25.696 -13.392  1.00  0.00     0.196 C 
HETATM    3  N2  UNL     1      -7.230  24.968 -13.522  1.00  0.00    -0.126 N 
ATOM      4  H2  UNL     1      -6.332  25.446 -13.456  1.00  0.00     0.197 HD
HETATM    5  C2  UNL     1      -7.265  23.554 -13.746  1.00  0.00     0.693 C 
HETATM    6  N3  UNL     1      -6.343  22.768 -13.319  1.00  0.00    -0.188 N 
ATOM      7  H3  UNL     1      -6.405  21.767 -13.506  1.00  0.00     0.184 HD
HETATM    8  N9  UNL     1      -8.415  23.101 -14.482  1.00  0.00    -0.174 N 
ATOM      9  H9  UNL     1      -9.009  22.378 -14.075  1.00  0.00     0.186 HD
ENDROOT
BRANCH   6  10
HETATM   10  C3  UNL     1      -5.253  23.275 -12.601  1.00  0.00     0.089 A 
HETATM   11  C4  UNL     1      -5.348  23.603 -11.288  1.00  0.00    -0.027 A 
HETATM   12  C19 UNL     1      -4.259  24.276 -10.696  1.00  0.00     0.026 A 
HETATM   13  C20 UNL     1      -3.140  24.577 -11.444  1.00  0.00     0.089 A 
HETATM   14  N8  UNL     1      -3.100  24.224 -12.736  1.00  0.00    -0.359 N 
HETATM   15  C21 UNL     1      -4.104  23.584 -13.357  1.00  0.00     0.137 A 
ATOM     16  H8  UNL     1      -2.265  24.454 -13.275  1.00  0.00     0.165 HD
BRANCH  11  17
HETATM   17  C5  UNL     1      -6.443  23.161 -10.426  1.00  0.00     0.043 C 
BRANCH  17  18
HETATM   18  C6  UNL     1      -6.677  24.360  -9.445  1.00  0.00     0.035 C 
BRANCH  18  19
HETATM   19  C7  UNL     1      -8.069  24.868  -9.604  1.00  0.00     0.272 C 
BRANCH  19  20
HETATM   20  N4  UNL     1      -8.861  24.529  -8.440  1.00  0.00     0.090 N 
BRANCH  20  21
HETATM   21  C8  UNL     1      -8.283  24.998  -7.239  1.00  0.00     0.273 C 
BRANCH  21  22
HETATM   22  C9  UNL     1      -8.206  23.945  -6.145  1.00  0.00     0.034 C 
BRANCH  22  23
HETATM   23  C10 UNL     1      -7.617  24.618  -4.927  1.00  0.00    -0.013 A 
HETATM   24  C11 UNL     1      -6.186  25.009  -4.917  1.00  0.00     0.005 A 
HETATM   25  C12 UNL     1      -6.590  23.774  -4.166  1.00  0.00     0.005 A 
ENDBRANCH  22  23
ENDBRANCH  21  22
ENDBRANCH  20  21
BRANCH  20  26
HETATM   26  C13 UNL     1     -10.244  24.727  -8.544  1.00  0.00     0.297 C 
BRANCH  26  27
HETATM   27  C14 UNL     1     -10.666  25.078  -9.936  1.00  0.00     0.115 C 
HETATM   28  C15 UNL     1     -11.855  26.049  -9.871  1.00  0.00     0.029 C 
HETATM   29  C16 UNL     1     -13.037  25.158  -9.546  1.00  0.00     0.022 C 
HETATM   30  C17 UNL     1     -12.585  23.785  -9.958  1.00  0.00     0.126 C 
HETATM   31  N5  UNL     1     -11.300  23.917 -10.592  1.00  0.00    -0.349 N 
HETATM   32  C18 UNL     1     -10.746  23.151 -11.612  1.00  0.00     0.184 C 
HETATM   33  N6  UNL     1      -9.799  22.312 -11.413  1.00  0.00    -0.374 N 
HETATM   34  N7  UNL     1     -11.255  23.310 -12.928  1.00  0.00    -0.064 NA
ATOM     35  H62 UNL     1      -9.434  22.199 -10.468  1.00  0.00     0.158 HD
ATOM     36  H61 UNL     1      -9.392  21.750 -12.162  1.00  0.00     0.158 HD
ENDBRANCH  26  27
ENDBRANCH  20  26
ENDBRANCH  19  20
ENDBRANCH  18  19
ENDBRANCH  17  18
ENDBRANCH  11  17
BRANCH  15  37
HETATM   37  C22 UNL     1      -4.052  23.202 -14.758  1.00  0.00     0.229 C 
HETATM   38  O1  UNL     1      -4.280  22.014 -15.068  1.00  0.00    -0.643 OA
HETATM   39  O2  UNL     1      -3.758  24.121 -15.734  1.00  0.00    -0.643 OA
ENDBRANCH  15  37
ENDBRANCH   6  10
BRANCH   8  40
HETATM   40  C23 UNL     1      -8.747  23.629 -15.756  1.00  0.00     0.152 A 
HETATM   41  C24 UNL     1     -10.023  23.947 -16.210  1.00  0.00     0.155 A 
HETATM   42  N10 UNL     1      -9.952  24.426 -17.470  1.00  0.00    -0.199 N 
HETATM   43  C25 UNL     1      -8.642  24.421 -17.835  1.00  0.00     0.677 A 
ATOM     44  H10 UNL     1     -10.737  24.735 -18.042  1.00  0.00     0.183 HD
HETATM   45  N12 UNL     1      -7.954  23.943 -16.796  1.00  0.00    -0.175 N 
ATOM     46  H12 UNL     1      -6.941  23.828 -16.791  1.00  0.00     0.186 HD
BRANCH  43  47
HETATM   47  N11 UNL     1      -8.195  24.823 -18.989  1.00  0.00    -0.234 N 
ATOM     48 2H11 UNL     1      -7.685  24.292 -19.695  1.00  0.00     0.174 HD
ATOM     49 1H11 UNL     1      -8.297  25.772 -19.350  1.00  0.00     0.174 HD
ENDBRANCH  43  47
ENDBRANCH   8  40
TORSDOF 13
ENDMDL
MODEL 3
REMARK VINA RESULT: -9.614969286      2.123      4.499
REMARK  13 active torsions:
REMARK  status: ('A' for Active; 'I' for Inactive)
REMARK       I    between atoms: N2_3  and  C2_5 
REMARK       I    between atoms: C2_5  and  N9_38 
REMARK    1  A    between atoms: N3_6  and  C3_8 
REMARK    2  A    between atoms: C4_9  and  C5_10 
REMARK    3  A    between atoms: C5_10  and  C6_11 
REMARK    4  A    between atoms: C6_11  and  C7_12 
REMARK    5  A    between atoms: C7_12  and  N4_13 
REMARK    6  A    between atoms: N4_13  and  C8_14 
REMARK    7  A    between atoms: N4_13  and  C13_19 
REMARK    8  A    between atoms: C8_14  and  C9_15 
REMARK    9  A    between atoms: C9_15  and  C10_16 
REMARK   10  A    between atoms: C13_19  and  C14_20 
REMARK       I    between atoms: N5_24  and  C18_25 
REMARK   11  A    between atoms: C21_34  and  C22_35 
REMARK   12  A    between atoms: N9_38  and  C23_40 
REMARK   13  A    between atoms: C25_44  and  N11_45 
ROOT
HETATM    1  N1  UNL     1      -4.872  27.094 -15.998  1.00  0.00    -0.171 NA
HETATM    2  C1  UNL     1      -5.615  26.214 -15.877  1.00  0.00     0.196 C 
HETATM    3  N2  UNL     1      -6.524  25.161 -15.733  1.00  0.00    -0.126 N 
ATOM      4  H2  UNL     1      -7.361  25.289 -15.163  1.00  0.00     0.197 HD
HETATM    5  C2  UNL     1      -6.291  23.904 -16.378  1.00  0.00     0.693 C 
HETATM    6  N3  UNL     1      -7.250  23.147 -16.774  1.00  0.00    -0.188 N 
ATOM      7  H3  UNL     1      -7.038  22.257 -17.224  1.00  0.00     0.184 HD
HETATM    8  N9  UNL     1      -4.900  23.573 -16.541  1.00  0.00    -0.174 N 
ATOM      9  H9  UNL     1      -4.549  23.361 -17.475  1.00  0.00     0.186 HD
ENDROOT
BRANCH   6  10
HETATM   10  C3  UNL     1      -8.583  23.535 -16.591  1.00  0.00     0.089 A 
HETATM   11  C4  UNL     1      -9.348  23.028 -15.593  1.00  0.00    -0.027 A 
HETATM   12  C19 UNL     1     -10.725  23.334 -15.597  1.00  0.00     0.026 A 
HETATM   13  C20 UNL     1     -11.256  24.128 -16.591  1.00  0.00     0.089 A 
HETATM   14  N8  UNL     1     -10.450  24.604 -17.551  1.00  0.00    -0.359 N 
HETATM   15  C21 UNL     1      -9.134  24.348 -17.603  1.00  0.00     0.137 A 
ATOM     16  H8  UNL     1     -10.859  25.191 -18.278  1.00  0.00     0.165 HD
BRANCH  11  17
HETATM   17  C5  UNL     1      -8.797  22.320 -14.437  1.00  0.00     0.043 C 
BRANCH  17  18
HETATM   18  C6  UNL     1      -9.807  22.621 -13.277  1.00  0.00     0.035 C 
BRANCH  18  19
HETATM   19  C7  UNL     1      -9.265  23.710 -12.417  1.00  0.00     0.272 C 
BRANCH  19  20
HETATM   20  N4  UNL     1      -9.435  23.375 -11.019  1.00  0.00     0.090 N 
BRANCH  20  21
HETATM   21  C8  UNL     1      -8.201  23.197 -10.353  1.00  0.00     0.273 C 
BRANCH  21  22
HETATM   22  C9  UNL     1      -7.002  23.694 -11.145  1.00  0.00     0.034 C 
BRANCH  22  23
HETATM   23  C10 UNL     1      -5.801  23.596 -10.233  1.00  0.00    -0.013 A 
HETATM   24  C11 UNL     1      -5.306  24.804  -9.528  1.00  0.00     0.005 A 
HETATM   25  C12 UNL     1      -4.555  24.330 -10.738  1.00  0.00     0.005 A 
ENDBRANCH  22  23
ENDBRANCH  21  22
ENDBRANCH  20  21
BRANCH  20  26
HETATM   26  C13 UNL     1     -10.385  24.118 -10.307  1.00  0.00     0.297 C 
BRANCH  26  27
HETATM   27  C14 UNL     1     -11.590  24.442 -11.133  1.00  0.00     0.115 C 
HETATM   28  C15 UNL     1     -11.908  25.939 -10.993  1.00  0.00     0.029 C 
HETATM   29  C16 UNL     1     -12.585  26.045  -9.641  1.00  0.00     0.022 C 
HETATM   30  C17 UNL     1     -13.067  24.649  -9.364  1.00  0.00     0.126 C 
HETATM   31  N5  UNL     1     -12.802  23.851 -10.532  1.00  0.00    -0.349 N 
HETATM   32  C18 UNL     1     -13.515  22.765 -11.028  1.00  0.00     0.184 C 
HETATM   33  N6  UNL     1     -13.089  21.560 -10.947  1.00  0.00    -0.374 N 
HETATM   34  N7  UNL     1     -14.768  23.007 -11.650  1.00  0.00    -0.064 NA
ATOM     35  H62 UNL     1     -12.188  21.387 -10.500  1.00  0.00     0.158 HD
ATOM     36  H61 UNL     1     -13.611  20.763 -11.312  1.00  0.00     0.158 HD
ENDBRANCH  26  27
ENDBRANCH  20  26
ENDBRANCH  19  20
ENDBRANCH  18  19
ENDBRANCH  17  18
ENDBRANCH  11  17
BRANCH  15  37
HETATM   37  C22 UNL     1      -8.267  24.871 -18.644  1.00  0.00     0.229 C 
HETATM   38  O1  UNL     1      -7.901  24.109 -19.563  1.00  0.00    -0.643 OA
HETATM   39  O2  UNL     1      -7.849  26.178 -18.630  1.00  0.00    -0.643 OA
ENDBRANCH  15  37
ENDBRANCH   6  10
BRANCH   8  40
HETATM   40  C23 UNL     1      -4.004  23.533 -15.442  1.00  0.00     0.152 A 
HETATM   41  C24 UNL     1      -3.917  22.527 -14.485  1.00  0.00     0.155 A 
HETATM   42  N10 UNL     1      -2.949  22.828 -13.594  1.00  0.00    -0.199 N 
HETATM   43  C25 UNL     1      -2.408  24.020 -13.966  1.00  0.00     0.677 A 
ATOM     44  H10 UNL     1      -2.673  22.266 -12.789  1.00  0.00     0.183 HD
HETATM   45  N12 UNL     1      -3.056  24.410 -15.065  1.00  0.00    -0.175 N 
ATOM     46  H12 UNL     1      -2.855  25.276 -15.565  1.00  0.00     0.186 HD
BRANCH  43  47
HETATM   47  N11 UNL     1      -1.439  24.620 -13.339  1.00  0.00    -0.234 N 
ATOM     48 2H11 UNL     1      -0.435  24.456 -13.412  1.00  0.00     0.174 HD
ATOM     49 1H11 UNL     1      -1.566  25.366 -12.654  1.00  0.00     0.174 HD
ENDBRANCH  43  47
ENDBRANCH   8  40
TORSDOF 13
ENDMDL
MODEL 4
REMARK VINA RESULT: -9.605231021      3.419      7.248
REMARK  13 active torsions:
REMARK  status: ('A' for Active; 'I' for Inactive)
REMARK       I    between atoms: N2_3  and  C2_5 
REMARK       I    between atoms: C2_5  and  N9_38 
REMARK    1  A    between atoms: N3_6  and  C3_8 
REMARK    2  A    between atoms: C4_9  and  C5_10 
REMARK    3  A    between atoms: C5_10  and  C6_11 
REMARK    4  A    between atoms: C6_11  and  C7_12 
REMARK    5  A    between atoms: C7_12  and  N4_13 
REMARK    6  A    between atoms: N4_13  and  C8_14 
REMARK    7  A    between atoms: N4_13  and  C13_19 
REMARK    8  A    between atoms: C8_14  and  C9_15 
REMARK    9  A    between atoms: C9_15  and  C10_16 
REMARK   10  A    between atoms: C13_19  and  C14_20 
REMARK       I    between atoms: N5_24  and  C18_25 
REMARK   11  A    between atoms: C21_34  and  C22_35 
REMARK   12  A    between atoms: N9_38  and  C23_40 
REMARK   13  A    between atoms: C25_44  and  N11_45 
ROOT
HETATM    1  N1  UNL     1      -4.697  21.922 -14.033  1.00  0.00    -0.171 NA
HETATM    2  C1  UNL     1      -5.806  22.248 -14.105  1.00  0.00     0.196 C 
HETATM    3  N2  UNL     1      -7.149  22.634 -14.178  1.00  0.00    -0.126 N 
ATOM      4  H2  UNL     1      -7.880  21.977 -13.909  1.00  0.00     0.197 HD
HETATM    5  C2  UNL     1      -7.504  23.946 -14.628  1.00  0.00     0.693 C 
HETATM    6  N3  UNL     1      -8.553  24.555 -14.205  1.00  0.00    -0.188 N 
ATOM      7  H3  UNL     1      -8.772  25.488 -14.556  1.00  0.00     0.184 HD
HETATM    8  N9  UNL     1      -6.590  24.512 -15.583  1.00  0.00    -0.174 N 
ATOM      9  H9  UNL     1      -6.168  25.419 -15.386  1.00  0.00     0.186 HD
ENDROOT
BRANCH   6  10
HETATM   10  C3  UNL     1      -9.397  23.950 -13.266  1.00  0.00     0.089 A 
HETATM   11  C4  UNL     1      -9.193  24.073 -11.931  1.00  0.00    -0.027 A 
HETATM   12  C19 UNL     1      -9.980  23.282 -11.068  1.00  0.00     0.026 A 
HETATM   13  C20 UNL     1     -10.923  22.420 -11.585  1.00  0.00     0.089 A 
HETATM   14  N8  UNL     1     -11.084  22.343 -12.913  1.00  0.00    -0.359 N 
HETATM   15  C21 UNL     1     -10.367  23.068 -13.786  1.00  0.00     0.137 A 
ATOM     16  H8  UNL     1     -11.788  21.701 -13.278  1.00  0.00     0.165 HD
BRANCH  11  17
HETATM   17  C5  UNL     1      -8.321  25.088 -11.342  1.00  0.00     0.043 C 
BRANCH  17  18
HETATM   18  C6  UNL     1      -7.029  24.302 -10.931  1.00  0.00     0.035 C 
BRANCH  18  19
HETATM   19  C7  UNL     1      -5.831  24.985 -11.495  1.00  0.00     0.272 C 
BRANCH  19  20
HETATM   20  N4  UNL     1      -5.123  25.697 -10.451  1.00  0.00     0.090 N 
BRANCH  20  21
HETATM   21  C8  UNL     1      -5.255  25.074  -9.189  1.00  0.00     0.273 C 
BRANCH  21  22
HETATM   22  C9  UNL     1      -5.226  26.047  -8.021  1.00  0.00     0.034 C 
BRANCH  22  23
HETATM   23  C10 UNL     1      -6.191  25.518  -6.984  1.00  0.00    -0.013 A 
HETATM   24  C11 UNL     1      -7.451  24.864  -7.412  1.00  0.00     0.005 A 
HETATM   25  C12 UNL     1      -7.520  26.275  -6.906  1.00  0.00     0.005 A 
ENDBRANCH  22  23
ENDBRANCH  21  22
ENDBRANCH  20  21
BRANCH  20  26
HETATM   26  C13 UNL     1      -3.829  26.135 -10.759  1.00  0.00     0.297 C 
BRANCH  26  27
HETATM   27  C14 UNL     1      -2.908  25.005 -11.092  1.00  0.00     0.115 C 
HETATM   28  C15 UNL     1      -1.739  24.998 -10.097  1.00  0.00     0.029 C 
HETATM   29  C16 UNL     1      -0.836  26.113 -10.585  1.00  0.00     0.022 C 
HETATM   30  C17 UNL     1      -1.233  26.303 -12.022  1.00  0.00     0.126 C 
HETATM   31  N5  UNL     1      -2.189  25.279 -12.353  1.00  0.00    -0.349 N 
HETATM   32  C18 UNL     1      -2.409  24.650 -13.573  1.00  0.00     0.184 C 
HETATM   33  N6  UNL     1      -3.436  24.888 -14.301  1.00  0.00    -0.374 N 
HETATM   34  N7  UNL     1      -1.452  23.706 -14.028  1.00  0.00    -0.064 NA
ATOM     35  H62 UNL     1      -4.124  25.567 -13.974  1.00  0.00     0.158 HD
ATOM     36  H61 UNL     1      -3.598  24.426 -15.197  1.00  0.00     0.158 HD
ENDBRANCH  26  27
ENDBRANCH  20  26
ENDBRANCH  19  20
ENDBRANCH  18  19
ENDBRANCH  17  18
ENDBRANCH  11  17
BRANCH  15  37
HETATM   37  C22 UNL     1     -10.550  22.981 -15.224  1.00  0.00     0.229 C 
HETATM   38  O1  UNL     1     -11.233  23.854 -15.799  1.00  0.00    -0.643 OA
HETATM   39  O2  UNL     1      -9.986  21.963 -15.952  1.00  0.00    -0.643 OA
ENDBRANCH  15  37
ENDBRANCH   6  10
BRANCH   8  40
HETATM   40  C23 UNL     1      -6.258  23.846 -16.791  1.00  0.00     0.152 A 
HETATM   41  C24 UNL     1      -7.004  23.847 -17.966  1.00  0.00     0.155 A 
HETATM   42  N10 UNL     1      -6.377  23.108 -18.904  1.00  0.00    -0.199 N 
HETATM   43  C25 UNL     1      -5.233  22.627 -18.348  1.00  0.00     0.677 A 
ATOM     44  H10 UNL     1      -6.703  22.940 -19.856  1.00  0.00     0.183 HD
HETATM   45  N12 UNL     1      -5.192  23.084 -17.095  1.00  0.00    -0.175 N 
ATOM     46  H12 UNL     1      -4.438  22.879 -16.441  1.00  0.00     0.186 HD
BRANCH  43  47
HETATM   47  N11 UNL     1      -4.370  21.875 -18.966  1.00  0.00    -0.234 N 
ATOM     48 2H11 UNL     1      -3.758  22.116 -19.747  1.00  0.00     0.174 HD
ATOM     49 1H11 UNL     1      -4.189  20.896 -18.743  1.00  0.00     0.174 HD
ENDBRANCH  43  47
ENDBRANCH   8  40
TORSDOF 13
ENDMDL
MODEL 5
REMARK VINA RESULT: -9.604199874      2.700      5.432
REMARK  13 active torsions:
REMARK  status: ('A' for Active; 'I' for Inactive)
REMARK       I    between atoms: N2_3  and  C2_5 
REMARK       I    between atoms: C2_5  and  N9_38 
REMARK    1  A    between atoms: N3_6  and  C3_8 
REMARK    2  A    between atoms: C4_9  and  C5_10 
REMARK    3  A    between atoms: C5_10  and  C6_11 
REMARK    4  A    between atoms: C6_11  and  C7_12 
REMARK    5  A    between atoms: C7_12  and  N4_13 
REMARK    6  A    between atoms: N4_13  and  C8_14 
REMARK    7  A    between atoms: N4_13  and  C13_19 
REMARK    8  A    between atoms: C8_14  and  C9_15 
REMARK    9  A    between atoms: C9_15  and  C10_16 
REMARK   10  A    between atoms: C13_19  and  C14_20 
REMARK       I    between atoms: N5_24  and  C18_25 
REMARK   11  A    between atoms: C21_34  and  C22_35 
REMARK   12  A    between atoms: N9_38  and  C23_40 
REMARK   13  A    between atoms: C25_44  and  N11_45 
ROOT
HETATM    1  N1  UNL     1      -2.751  26.694 -16.409  1.00  0.00    -0.171 NA
HETATM    2  C1  UNL     1      -3.613  25.997 -16.072  1.00  0.00     0.196 C 
HETATM    3  N2  UNL     1      -4.663  25.163 -15.675  1.00  0.00    -0.126 N 
ATOM      4  H2  UNL     1      -5.595  25.553 -15.538  1.00  0.00     0.197 HD
HETATM    5  C2  UNL     1      -4.440  23.765 -15.458  1.00  0.00     0.693 C 
HETATM    6  N3  UNL     1      -5.352  22.885 -15.661  1.00  0.00    -0.188 N 
ATOM      7  H3  UNL     1      -5.152  21.899 -15.489  1.00  0.00     0.184 HD
HETATM    8  N9  UNL     1      -3.115  23.443 -14.998  1.00  0.00    -0.174 N 
ATOM      9  H9  UNL     1      -2.559  22.769 -15.525  1.00  0.00     0.186 HD
ENDROOT
BRANCH   6  10
HETATM   10  C3  UNL     1      -6.619  23.267 -16.118  1.00  0.00     0.089 A 
HETATM   11  C4  UNL     1      -7.695  23.316 -15.293  1.00  0.00    -0.027 A 
HETATM   12  C19 UNL     1      -8.962  23.531 -15.875  1.00  0.00     0.026 A 
HETATM   13  C20 UNL     1      -9.081  23.688 -17.239  1.00  0.00     0.089 A 
HETATM   14  N8  UNL     1      -7.982  23.634 -18.005  1.00  0.00    -0.359 N 
HETATM   15  C21 UNL     1      -6.750  23.431 -17.512  1.00  0.00     0.137 A 
ATOM     16  H8  UNL     1      -8.088  23.753 -19.012  1.00  0.00     0.165 HD
BRANCH  11  17
HETATM   17  C5  UNL     1      -7.591  23.316 -13.835  1.00  0.00     0.043 C 
BRANCH  17  18
HETATM   18  C6  UNL     1      -7.798  24.816 -13.429  1.00  0.00     0.035 C 
BRANCH  18  19
HETATM   19  C7  UNL     1      -7.394  25.006 -12.008  1.00  0.00     0.272 C 
BRANCH  19  20
HETATM   20  N4  UNL     1      -8.397  24.451 -11.123  1.00  0.00     0.090 N 
BRANCH  20  21
HETATM   21  C8  UNL     1      -7.865  24.091  -9.863  1.00  0.00     0.273 C 
BRANCH  21  22
HETATM   22  C9  UNL     1      -6.346  24.036  -9.834  1.00  0.00     0.034 C 
BRANCH  22  23
HETATM   23  C10 UNL     1      -5.892  24.981  -8.745  1.00  0.00    -0.013 A 
HETATM   24  C11 UNL     1      -5.702  26.421  -9.047  1.00  0.00     0.005 A 
HETATM   25  C12 UNL     1      -4.484  25.550  -8.942  1.00  0.00     0.005 A 
ENDBRANCH  22  23
ENDBRANCH  21  22
ENDBRANCH  20  21
BRANCH  20  26
HETATM   26  C13 UNL     1      -9.627  25.118 -11.073  1.00  0.00     0.297 C 
BRANCH  26  27
HETATM   27  C14 UNL     1     -10.771  24.187 -10.824  1.00  0.00     0.115 C 
HETATM   28  C15 UNL     1     -10.809  23.128 -11.936  1.00  0.00     0.029 C 
HETATM   29  C16 UNL     1     -11.426  23.857 -13.114  1.00  0.00     0.022 C 
HETATM   30  C17 UNL     1     -12.147  25.018 -12.488  1.00  0.00     0.126 C 
HETATM   31  N5  UNL     1     -12.057  24.874 -11.060  1.00  0.00    -0.349 N 
HETATM   32  C18 UNL     1     -12.964  25.267 -10.082  1.00  0.00     0.184 C 
HETATM   33  N6  UNL     1     -12.762  26.268  -9.309  1.00  0.00    -0.374 N 
HETATM   34  N7  UNL     1     -14.166  24.525  -9.940  1.00  0.00    -0.064 NA
ATOM     35  H62 UNL     1     -11.898  26.800  -9.412  1.00  0.00     0.158 HD
ATOM     36  H61 UNL     1     -13.428  26.556  -8.592  1.00  0.00     0.158 HD
ENDBRANCH  26  27
ENDBRANCH  20  26
ENDBRANCH  19  20
ENDBRANCH  18  19
ENDBRANCH  17  18
ENDBRANCH  11  17
BRANCH  15  37
HETATM   37  C22 UNL     1      -5.563  23.377 -18.348  1.00  0.00     0.229 C 
HETATM   38  O1  UNL     1      -5.177  24.420 -18.915  1.00  0.00    -0.643 OA
HETATM   39  O2  UNL     1      -4.868  22.207 -18.519  1.00  0.00    -0.643 OA
ENDBRANCH  15  37
ENDBRANCH   6  10
BRANCH   8  40
HETATM   40  C23 UNL     1      -2.559  24.034 -13.834  1.00  0.00     0.152 A 
HETATM   41  C24 UNL     1      -2.957  23.802 -12.521  1.00  0.00     0.155 A 
HETATM   42  N10 UNL     1      -2.200  24.537 -11.680  1.00  0.00    -0.199 N 
HETATM   43  C25 UNL     1      -1.317  25.243 -12.436  1.00  0.00     0.677 A 
ATOM     44  H10 UNL     1      -2.277  24.560 -10.663  1.00  0.00     0.183 HD
HETATM   45  N12 UNL     1      -1.556  24.921 -13.708  1.00  0.00    -0.175 N 
ATOM     46  H12 UNL     1      -1.037  25.304 -14.498  1.00  0.00     0.186 HD
BRANCH  43  47
HETATM   47  N11 UNL     1      -0.422  26.059 -11.959  1.00  0.00    -0.234 N 
ATOM     48 2H11 UNL     1      -0.563  26.943 -11.470  1.00  0.00     0.174 HD
ATOM     49 1H11 UNL     1       0.586  25.914 -12.022  1.00  0.00     0.174 HD
ENDBRANCH  43  47
ENDBRANCH   8  40
TORSDOF 13
ENDMDL
