MODEL 1
REMARK VINA RESULT: -9.837698163      0.000      0.000
REMARK  14 active torsions:
REMARK  status: ('A' for Active; 'I' for Inactive)
REMARK    1  A    between atoms: C3_3  and  C4_4 
REMARK    2  A    between atoms: C7_7  and  C8_8 
REMARK       I    between atoms: C8_8  and  N1_10 
REMARK    3  A    between atoms: N1_10  and  C9_12 
REMARK    4  A    between atoms: C9_12  and  C10_13 
REMARK    5  A    between atoms: C10_13  and  C11_14 
REMARK    6  A    between atoms: C11_14  and  C12_15 
REMARK    7  A    between atoms: C14_19  and  N3_20 
REMARK    8  A    between atoms: C17_30  and  O2_31 
REMARK    9  A    between atoms: O2_31  and  C18_32 
REMARK   10  A    between atoms: C18_32  and  C19_33 
REMARK   11  A    between atoms: C19_33  and  C20_34 
REMARK   12  A    between atoms: C20_34  and  C21_35 
REMARK   13  A    between atoms: C21_35  and  C22_36 
REMARK   14  A    between atoms: C22_36  and  N6_37 
ROOT
HETATM    1  C1  UNL     1      -5.942  25.124  -4.876  1.00  0.00     0.012 C 
HETATM    2  C2  UNL     1      -6.254  25.619  -5.932  1.00  0.00    -0.113 C 
HETATM    3  C3  UNL     1      -6.655  26.228  -7.201  1.00  0.00     0.134 C 
ENDROOT
BRANCH   3   4
HETATM    4  C4  UNL     1      -6.177  25.448  -8.375  1.00  0.00    -0.014 A 
HETATM    5  C5  UNL     1      -4.861  25.520  -8.766  1.00  0.00     0.012 A 
HETATM    6  C6  UNL     1      -4.362  24.824  -9.842  1.00  0.00     0.018 A 
HETATM    7  C7  UNL     1      -5.202  24.018 -10.570  1.00  0.00     0.034 A 
HETATM    8  C16 UNL     1      -6.538  23.948 -10.170  1.00  0.00     0.054 A 
HETATM    9  C17 UNL     1      -7.054  24.630  -9.103  1.00  0.00     0.076 A 
BRANCH   7  10
HETATM   10  C8  UNL     1      -4.682  23.261 -11.710  1.00  0.00     0.251 C 
HETATM   11  O1  UNL     1      -5.167  22.124 -11.998  1.00  0.00    -0.268 OA
HETATM   12  N1  UNL     1      -3.637  23.825 -12.469  1.00  0.00    -0.357 N 
ATOM     13  H1  UNL     1      -3.293  24.739 -12.176  1.00  0.00     0.162 HD
BRANCH  12  14
HETATM   14  C9  UNL     1      -3.007  23.230 -13.621  1.00  0.00     0.123 C 
BRANCH  14  15
HETATM   15  C10 UNL     1      -3.485  23.882 -14.938  1.00  0.00     0.024 C 
BRANCH  15  16
HETATM   16  C11 UNL     1      -4.272  22.854 -15.645  1.00  0.00     0.045 C 
BRANCH  16  17
HETATM   17  C12 UNL     1      -5.243  23.272 -16.654  1.00  0.00     0.002 A 
HETATM   18  C13 UNL     1      -6.156  24.241 -16.220  1.00  0.00     0.117 A 
HETATM   19  N2  UNL     1      -7.084  24.690 -17.060  1.00  0.00    -0.202 N 
HETATM   20  C14 UNL     1      -7.160  24.226 -18.334  1.00  0.00     0.677 A 
ATOM     21  H2  UNL     1      -7.749  25.395 -16.742  1.00  0.00     0.183 HD
HETATM   22  N4  UNL     1      -6.310  23.316 -18.765  1.00  0.00    -0.177 N 
HETATM   23  C15 UNL     1      -5.334  22.812 -17.951  1.00  0.00     0.122 A 
ATOM     24  H4  UNL     1      -6.383  22.980 -19.725  1.00  0.00     0.185 HD
HETATM   25  N5  UNL     1      -4.544  21.959 -18.369  1.00  0.00    -0.385 N 
ATOM     26  H52 UNL     1      -3.816  21.582 -17.762  1.00  0.00     0.157 HD
ATOM     27  H51 UNL     1      -4.612  21.618 -19.329  1.00  0.00     0.157 HD
BRANCH  20  28
HETATM   28  N3  UNL     1      -8.099  24.712 -19.108  1.00  0.00    -0.234 N 
ATOM     29  H32 UNL     1      -7.878  25.251 -19.945  1.00  0.00     0.174 HD
ATOM     30  H31 UNL     1      -9.069  24.535 -18.848  1.00  0.00     0.174 HD
ENDBRANCH  20  28
ENDBRANCH  16  17
ENDBRANCH  15  16
ENDBRANCH  14  15
ENDBRANCH  12  14
ENDBRANCH   7  10
BRANCH   9  31
HETATM   31  O2  UNL     1      -8.329  24.590  -8.690  1.00  0.00    -0.350 OA
BRANCH  31  32
HETATM   32  C18 UNL     1      -9.548  24.408  -9.350  1.00  0.00     0.179 C 
BRANCH  32  33
HETATM   33  C19 UNL     1     -10.013  25.686  -9.924  1.00  0.00     0.054 C 
BRANCH  33  34
HETATM   34  C20 UNL     1     -11.400  25.860 -10.321  1.00  0.00    -0.023 C 
BRANCH  34  35
HETATM   35  C21 UNL     1     -12.077  25.524 -11.529  1.00  0.00     0.014 C 
BRANCH  35  36
HETATM   36  C22 UNL     1     -12.373  24.270 -12.168  1.00  0.00     0.103 C 
BRANCH  36  37
HETATM   37  N6  UNL     1     -11.536  23.375 -12.825  1.00  0.00    -0.258 N 
HETATM   38  C23 UNL     1     -10.955  22.250 -12.319  1.00  0.00     0.332 A 
HETATM   39  O3  UNL     1     -11.110  21.855 -11.125  1.00  0.00    -0.246 OA
HETATM   40  N7  UNL     1     -10.229  21.671 -13.260  1.00  0.00    -0.304 N 
HETATM   41  C24 UNL     1     -10.308  22.377 -14.383  1.00  0.00     0.098 A 
ATOM     42  H7  UNL     1      -9.690  20.813 -13.142  1.00  0.00     0.171 HD
HETATM   43  C25 UNL     1      -9.753  22.220 -15.646  1.00  0.00     0.139 A 
HETATM   44  C27 UNL     1     -11.124  23.443 -14.119  1.00  0.00     0.159 A 
HETATM   45  N8  UNL     1     -10.013  23.108 -16.604  1.00  0.00    -0.200 N 
HETATM   46  C26 UNL     1     -10.812  24.162 -16.364  1.00  0.00     0.677 A 
ATOM     47  H8  UNL     1      -9.601  22.988 -17.530  1.00  0.00     0.183 HD
HETATM   48  N9  UNL     1     -11.067  25.023 -17.289  1.00  0.00    -0.234 N 
HETATM   49  N10 UNL     1     -11.352  24.307 -15.123  1.00  0.00    -0.174 N 
ATOM     50  H92 UNL     1     -10.661  24.914 -18.219  1.00  0.00     0.174 HD
ATOM     51  H91 UNL     1     -11.673  25.823 -17.106  1.00  0.00     0.174 HD
ATOM     52  H10 UNL     1     -11.958  25.109 -14.946  1.00  0.00     0.186 HD
ENDBRANCH  36  37
ENDBRANCH  35  36
ENDBRANCH  34  35
ENDBRANCH  33  34
ENDBRANCH  32  33
ENDBRANCH  31  32
ENDBRANCH   9  31
ENDBRANCH   3   4
TORSDOF 14
ENDMDL
MODEL 2
REMARK VINA RESULT: -9.598807286      2.263      6.934
REMARK  14 active torsions:
REMARK  status: ('A' for Active; 'I' for Inactive)
REMARK    1  A    between atoms: C3_3  and  C4_4 
REMARK    2  A    between atoms: C7_7  and  C8_8 
REMARK       I    between atoms: C8_8  and  N1_10 
REMARK    3  A    between atoms: N1_10  and  C9_12 
REMARK    4  A    between atoms: C9_12  and  C10_13 
REMARK    5  A    between atoms: C10_13  and  C11_14 
REMARK    6  A    between atoms: C11_14  and  C12_15 
REMARK    7  A    between atoms: C14_19  and  N3_20 
REMARK    8  A    between atoms: C17_30  and  O2_31 
REMARK    9  A    between atoms: O2_31  and  C18_32 
REMARK   10  A    between atoms: C18_32  and  C19_33 
REMARK   11  A    between atoms: C19_33  and  C20_34 
REMARK   12  A    between atoms: C20_34  and  C21_35 
REMARK   13  A    between atoms: C21_35  and  C22_36 
REMARK   14  A    between atoms: C22_36  and  N6_37 
ROOT
HETATM    1  C1  UNL     1      -2.018  25.253 -14.323  1.00  0.00     0.012 C 
HETATM    2  C2  UNL     1      -2.345  24.395 -13.539  1.00  0.00    -0.113 C 
HETATM    3  C3  UNL     1      -2.737  23.337 -12.607  1.00  0.00     0.134 C 
ENDROOT
BRANCH   3   4
HETATM    4  C4  UNL     1      -3.787  23.788 -11.653  1.00  0.00    -0.014 A 
HETATM    5  C5  UNL     1      -3.479  24.677 -10.651  1.00  0.00     0.012 A 
HETATM    6  C6  UNL     1      -4.407  25.128  -9.741  1.00  0.00     0.018 A 
HETATM    7  C7  UNL     1      -5.702  24.679  -9.823  1.00  0.00     0.034 A 
HETATM    8  C16 UNL     1      -6.011  23.776 -10.842  1.00  0.00     0.054 A 
HETATM    9  C17 UNL     1      -5.105  23.316 -11.757  1.00  0.00     0.076 A 
BRANCH   7  10
HETATM   10  C8  UNL     1      -6.702  25.161  -8.869  1.00  0.00     0.251 C 
HETATM   11  O1  UNL     1      -6.703  24.736  -7.673  1.00  0.00    -0.268 OA
HETATM   12  N1  UNL     1      -7.657  26.099  -9.313  1.00  0.00    -0.357 N 
ATOM     13  H1  UNL     1      -7.599  26.390 -10.289  1.00  0.00     0.162 HD
BRANCH  12  14
HETATM   14  C9  UNL     1      -8.707  26.684  -8.518  1.00  0.00     0.123 C 
BRANCH  14  15
HETATM   15  C10 UNL     1      -9.907  25.725  -8.356  1.00  0.00     0.024 C 
BRANCH  15  16
HETATM   16  C11 UNL     1     -10.629  25.748  -9.642  1.00  0.00     0.045 C 
BRANCH  16  17
HETATM   17  C12 UNL     1     -11.355  24.554 -10.070  1.00  0.00     0.002 A 
HETATM   18  C13 UNL     1     -12.690  24.498  -9.649  1.00  0.00     0.117 A 
HETATM   19  N2  UNL     1     -13.439  23.452  -9.983  1.00  0.00    -0.202 N 
HETATM   20  C14 UNL     1     -12.933  22.436 -10.729  1.00  0.00     0.677 A 
ATOM     21  H2  UNL     1     -14.410  23.412  -9.674  1.00  0.00     0.183 HD
HETATM   22  N4  UNL     1     -11.680  22.467 -11.138  1.00  0.00    -0.177 N 
HETATM   23  C15 UNL     1     -10.857  23.513 -10.827  1.00  0.00     0.122 A 
ATOM     24  H4  UNL     1     -11.318  21.696 -11.698  1.00  0.00     0.185 HD
HETATM   25  N5  UNL     1      -9.684  23.530 -11.218  1.00  0.00    -0.385 N 
ATOM     26  H52 UNL     1      -9.070  24.310 -10.987  1.00  0.00     0.157 HD
ATOM     27  H51 UNL     1      -9.316  22.760 -11.778  1.00  0.00     0.157 HD
BRANCH  20  28
HETATM   28  N3  UNL     1     -13.727  21.436 -11.021  1.00  0.00    -0.234 N 
ATOM     29  H32 UNL     1     -14.487  21.535 -11.694  1.00  0.00     0.174 HD
ATOM     30  H31 UNL     1     -13.564  20.545 -10.552  1.00  0.00     0.174 HD
ENDBRANCH  20  28
ENDBRANCH  16  17
ENDBRANCH  15  16
ENDBRANCH  14  15
ENDBRANCH  12  14
ENDBRANCH   7  10
BRANCH   9  31
HETATM   31  O2  UNL     1      -5.363  22.449 -12.747  1.00  0.00    -0.350 OA
BRANCH  31  32
HETATM   32  C18 UNL     1      -6.091  22.536 -13.936  1.00  0.00     0.179 C 
BRANCH  32  33
HETATM   33  C19 UNL     1      -5.188  22.413 -15.097  1.00  0.00     0.054 C 
BRANCH  33  34
HETATM   34  C20 UNL     1      -5.308  23.319 -16.228  1.00  0.00    -0.023 C 
BRANCH  34  35
HETATM   35  C21 UNL     1      -5.795  23.107 -17.550  1.00  0.00     0.014 C 
BRANCH  35  36
HETATM   36  C22 UNL     1      -7.100  23.224 -18.141  1.00  0.00     0.103 C 
BRANCH  36  37
HETATM   37  N6  UNL     1      -8.250  23.846 -17.669  1.00  0.00    -0.258 N 
HETATM   38  C23 UNL     1      -8.847  24.973 -18.149  1.00  0.00     0.332 A 
HETATM   39  O3  UNL     1      -8.410  25.633 -19.139  1.00  0.00    -0.246 OA
HETATM   40  N7  UNL     1      -9.920  25.243 -17.426  1.00  0.00    -0.304 N 
HETATM   41  C24 UNL     1     -10.059  24.327 -16.474  1.00  0.00     0.098 A 
ATOM     42  H7  UNL     1     -10.546  26.034 -17.576  1.00  0.00     0.171 HD
HETATM   43  C25 UNL     1     -10.991  24.140 -15.462  1.00  0.00     0.139 A 
HETATM   44  C27 UNL     1      -9.019  23.450 -16.620  1.00  0.00     0.159 A 
HETATM   45  N8  UNL     1     -10.876  23.106 -14.631  1.00  0.00    -0.200 N 
HETATM   46  C26 UNL     1      -9.861  22.234 -14.759  1.00  0.00     0.677 A 
ATOM     47  H8  UNL     1     -11.564  22.974 -13.889  1.00  0.00     0.183 HD
HETATM   48  N9  UNL     1      -9.746  21.231 -13.956  1.00  0.00    -0.234 N 
HETATM   49  N10 UNL     1      -8.952  22.424 -15.753  1.00  0.00    -0.174 N 
ATOM     50  H92 UNL     1     -10.427  21.088 -13.210  1.00  0.00     0.174 HD
ATOM     51  H91 UNL     1      -8.976  20.569 -14.053  1.00  0.00     0.174 HD
ATOM     52  H10 UNL     1      -8.184  21.759 -15.845  1.00  0.00     0.186 HD
ENDBRANCH  36  37
ENDBRANCH  35  36
ENDBRANCH  34  35
ENDBRANCH  33  34
ENDBRANCH  32  33
ENDBRANCH  31  32
ENDBRANCH   9  31
ENDBRANCH   3   4
TORSDOF 14
ENDMDL
MODEL 3
REMARK VINA RESULT: -9.586852669      2.172      6.798
REMARK  14 active torsions:
REMARK  status: ('A' for Active; 'I' for Inactive)
REMARK    1  A    between atoms: C3_3  and  C4_4 
REMARK    2  A    between atoms: C7_7  and  C8_8 
REMARK       I    between atoms: C8_8  and  N1_10 
REMARK    3  A    between atoms: N1_10  and  C9_12 
REMARK    4  A    between atoms: C9_12  and  C10_13 
REMARK    5  A    between atoms: C10_13  and  C11_14 
REMARK    6  A    between atoms: C11_14  and  C12_15 
REMARK    7  A    between atoms: C14_19  and  N3_20 
REMARK    8  A    between atoms: C17_30  and  O2_31 
REMARK    9  A    between atoms: O2_31  and  C18_32 
REMARK   10  A    between atoms: C18_32  and  C19_33 
REMARK   11  A    between atoms: C19_33  and  C20_34 
REMARK   12  A    between atoms: C20_34  and  C21_35 
REMARK   13  A    between atoms: C21_35  and  C22_36 
REMARK   14  A    between atoms: C22_36  and  N6_37 
ROOT
HETATM    1  C1  UNL     1      -2.379  25.634 -14.554  1.00  0.00     0.012 C 
HETATM    2  C2  UNL     1      -2.474  24.744 -13.744  1.00  0.00    -0.113 C 
HETATM    3  C3  UNL     1      -2.584  23.647 -12.780  1.00  0.00     0.134 C 
ENDROOT
BRANCH   3   4
HETATM    4  C4  UNL     1      -3.598  23.923 -11.727  1.00  0.00    -0.014 A 
HETATM    5  C5  UNL     1      -3.315  24.796 -10.703  1.00  0.00     0.012 A 
HETATM    6  C6  UNL     1      -4.212  25.089  -9.702  1.00  0.00     0.018 A 
HETATM    7  C7  UNL     1      -5.448  24.491  -9.710  1.00  0.00     0.034 A 
HETATM    8  C16 UNL     1      -5.732  23.606 -10.752  1.00  0.00     0.054 A 
HETATM    9  C17 UNL     1      -4.856  23.301 -11.757  1.00  0.00     0.076 A 
BRANCH   7  10
HETATM   10  C8  UNL     1      -6.417  24.804  -8.659  1.00  0.00     0.251 C 
HETATM   11  O1  UNL     1      -6.028  25.301  -7.557  1.00  0.00    -0.268 OA
HETATM   12  N1  UNL     1      -7.780  24.537  -8.900  1.00  0.00    -0.357 N 
ATOM     13  H1  UNL     1      -8.019  24.132  -9.805  1.00  0.00     0.162 HD
BRANCH  12  14
HETATM   14  C9  UNL     1      -8.869  24.784  -7.988  1.00  0.00     0.123 C 
BRANCH  14  15
HETATM   15  C10 UNL     1     -10.083  25.418  -8.701  1.00  0.00     0.024 C 
BRANCH  15  16
HETATM   16  C11 UNL     1     -10.131  24.818 -10.047  1.00  0.00     0.045 C 
BRANCH  16  17
HETATM   17  C12 UNL     1     -11.188  23.856 -10.358  1.00  0.00     0.002 A 
HETATM   18  C13 UNL     1     -12.410  24.104  -9.722  1.00  0.00     0.117 A 
HETATM   19  N2  UNL     1     -13.437  23.288  -9.936  1.00  0.00    -0.202 N 
HETATM   20  C14 UNL     1     -13.322  22.216 -10.763  1.00  0.00     0.677 A 
ATOM     21  H2  UNL     1     -14.327  23.469  -9.471  1.00  0.00     0.183 HD
HETATM   22  N4  UNL     1     -12.181  21.964 -11.373  1.00  0.00    -0.177 N 
HETATM   23  C15 UNL     1     -11.087  22.763 -11.195  1.00  0.00     0.122 A 
ATOM     24  H4  UNL     1     -12.114  21.155 -11.991  1.00  0.00     0.185 HD
HETATM   25  N5  UNL     1     -10.024  22.515 -11.774  1.00  0.00    -0.385 N 
ATOM     26  H52 UNL     1      -9.207  23.111 -11.642  1.00  0.00     0.157 HD
ATOM     27  H51 UNL     1      -9.950  21.707 -12.393  1.00  0.00     0.157 HD
BRANCH  20  28
HETATM   28  N3  UNL     1     -14.374  21.453 -10.927  1.00  0.00    -0.234 N 
ATOM     29  H32 UNL     1     -15.007  21.241 -10.156  1.00  0.00     0.174 HD
ATOM     30  H31 UNL     1     -14.545  21.071 -11.857  1.00  0.00     0.174 HD
ENDBRANCH  20  28
ENDBRANCH  16  17
ENDBRANCH  15  16
ENDBRANCH  14  15
ENDBRANCH  12  14
ENDBRANCH   7  10
BRANCH   9  31
HETATM   31  O2  UNL     1      -5.091  22.456 -12.771  1.00  0.00    -0.350 OA
BRANCH  31  32
HETATM   32  C18 UNL     1      -5.928  22.504 -13.889  1.00  0.00     0.179 C 
BRANCH  32  33
HETATM   33  C19 UNL     1      -5.172  22.154 -15.108  1.00  0.00     0.054 C 
BRANCH  33  34
HETATM   34  C20 UNL     1      -5.031  23.110 -16.193  1.00  0.00    -0.023 C 
BRANCH  34  35
HETATM   35  C21 UNL     1      -5.993  23.656 -17.090  1.00  0.00     0.014 C 
BRANCH  35  36
HETATM   36  C22 UNL     1      -7.256  23.176 -17.581  1.00  0.00     0.103 C 
BRANCH  36  37
HETATM   37  N6  UNL     1      -8.548  23.625 -17.335  1.00  0.00    -0.258 N 
HETATM   38  C23 UNL     1      -9.459  23.111 -16.460  1.00  0.00     0.332 A 
HETATM   39  O3  UNL     1      -9.233  22.107 -15.720  1.00  0.00    -0.246 OA
HETATM   40  N7  UNL     1     -10.573  23.818 -16.521  1.00  0.00    -0.304 N 
HETATM   41  C24 UNL     1     -10.436  24.793 -17.413  1.00  0.00     0.098 A 
ATOM     42  H7  UNL     1     -11.412  23.643 -15.968  1.00  0.00     0.171 HD
HETATM   43  C25 UNL     1     -11.280  25.800 -17.860  1.00  0.00     0.139 A 
HETATM   44  C27 UNL     1      -9.172  24.679 -17.926  1.00  0.00     0.159 A 
HETATM   45  N8  UNL     1     -10.863  26.658 -18.790  1.00  0.00    -0.200 N 
HETATM   46  C26 UNL     1      -9.625  26.562 -19.305  1.00  0.00     0.677 A 
ATOM     47  H8  UNL     1     -11.488  27.396 -19.114  1.00  0.00     0.183 HD
HETATM   48  N9  UNL     1      -9.216  27.391 -20.204  1.00  0.00    -0.234 N 
HETATM   49  N10 UNL     1      -8.803  25.572 -18.861  1.00  0.00    -0.174 N 
ATOM     50  H92 UNL     1      -9.832  28.133 -20.537  1.00  0.00     0.174 HD
ATOM     51  H91 UNL     1      -8.277  27.317 -20.595  1.00  0.00     0.174 HD
ATOM     52  H10 UNL     1      -7.865  25.504 -19.255  1.00  0.00     0.186 HD
ENDBRANCH  36  37
ENDBRANCH  35  36
ENDBRANCH  34  35
ENDBRANCH  33  34
ENDBRANCH  32  33
ENDBRANCH  31  32
ENDBRANCH   9  31
ENDBRANCH   3   4
TORSDOF 14
ENDMDL
MODEL 4
REMARK VINA RESULT: -9.464405041      2.657      7.326
REMARK  14 active torsions:
REMARK  status: ('A' for Active; 'I' for Inactive)
REMARK    1  A    between atoms: C3_3  and  C4_4 
REMARK    2  A    between atoms: C7_7  and  C8_8 
REMARK       I    between atoms: C8_8  and  N1_10 
REMARK    3  A    between atoms: N1_10  and  C9_12 
REMARK    4  A    between atoms: C9_12  and  C10_13 
REMARK    5  A    between atoms: C10_13  and  C11_14 
REMARK    6  A    between atoms: C11_14  and  C12_15 
REMARK    7  A    between atoms: C14_19  and  N3_20 
REMARK    8  A    between atoms: C17_30  and  O2_31 
REMARK    9  A    between atoms: O2_31  and  C18_32 
REMARK   10  A    between atoms: C18_32  and  C19_33 
REMARK   11  A    between atoms: C19_33  and  C20_34 
REMARK   12  A    between atoms: C20_34  and  C21_35 
REMARK   13  A    between atoms: C21_35  and  C22_36 
REMARK   14  A    between atoms: C22_36  and  N6_37 
ROOT
HETATM    1  C1  UNL     1      -1.536  25.469 -13.730  1.00  0.00     0.012 C 
HETATM    2  C2  UNL     1      -2.078  24.392 -13.669  1.00  0.00    -0.113 C 
HETATM    3  C3  UNL     1      -2.711  23.074 -13.596  1.00  0.00     0.134 C 
ENDROOT
BRANCH   3   4
HETATM    4  C4  UNL     1      -4.042  23.052 -14.261  1.00  0.00    -0.014 A 
HETATM    5  C5  UNL     1      -4.143  23.252 -15.618  1.00  0.00     0.012 A 
HETATM    6  C6  UNL     1      -5.345  23.244 -16.287  1.00  0.00     0.018 A 
HETATM    7  C7  UNL     1      -6.505  23.028 -15.583  1.00  0.00     0.034 A 
HETATM    8  C16 UNL     1      -6.398  22.826 -14.206  1.00  0.00     0.054 A 
HETATM    9  C17 UNL     1      -5.214  22.829 -13.522  1.00  0.00     0.076 A 
BRANCH   7  10
HETATM   10  C8  UNL     1      -7.789  23.004 -16.284  1.00  0.00     0.251 C 
HETATM   11  O1  UNL     1      -7.829  22.834 -17.542  1.00  0.00    -0.268 OA
HETATM   12  N1  UNL     1      -8.969  23.175 -15.532  1.00  0.00    -0.357 N 
ATOM     13  H1  UNL     1      -8.860  23.312 -14.526  1.00  0.00     0.162 HD
BRANCH  12  14
HETATM   14  C9  UNL     1     -10.314  23.174 -16.048  1.00  0.00     0.123 C 
BRANCH  14  15
HETATM   15  C10 UNL     1     -11.196  24.237 -15.356  1.00  0.00     0.024 C 
BRANCH  15  16
HETATM   16  C11 UNL     1     -10.819  24.221 -13.930  1.00  0.00     0.045 C 
BRANCH  16  17
HETATM   17  C12 UNL     1     -11.628  23.446 -12.991  1.00  0.00     0.002 A 
HETATM   18  C13 UNL     1     -12.858  24.028 -12.660  1.00  0.00     0.117 A 
HETATM   19  N2  UNL     1     -13.670  23.405 -11.811  1.00  0.00    -0.202 N 
HETATM   20  C14 UNL     1     -13.328  22.211 -11.261  1.00  0.00     0.677 A 
ATOM     21  H2  UNL     1     -14.565  23.832 -11.569  1.00  0.00     0.183 HD
HETATM   22  N4  UNL     1     -12.177  21.643 -11.560  1.00  0.00    -0.177 N 
HETATM   23  C15 UNL     1     -11.297  22.232 -12.424  1.00  0.00     0.122 A 
ATOM     24  H4  UNL     1     -11.938  20.746 -11.138  1.00  0.00     0.185 HD
HETATM   25  N5  UNL     1     -10.221  21.688 -12.696  1.00  0.00    -0.385 N 
ATOM     26  H52 UNL     1      -9.564  22.127 -13.340  1.00  0.00     0.157 HD
ATOM     27  H51 UNL     1      -9.976  20.790 -12.276  1.00  0.00     0.157 HD
BRANCH  20  28
HETATM   28  N3  UNL     1     -14.176  21.653 -10.433  1.00  0.00    -0.234 N 
ATOM     29  H32 UNL     1     -15.110  22.035 -10.285  1.00  0.00     0.174 HD
ATOM     30  H31 UNL     1     -13.874  20.817  -9.933  1.00  0.00     0.174 HD
ENDBRANCH  20  28
ENDBRANCH  16  17
ENDBRANCH  15  16
ENDBRANCH  14  15
ENDBRANCH  12  14
ENDBRANCH   7  10
BRANCH   9  31
HETATM   31  O2  UNL     1      -5.071  22.641 -12.202  1.00  0.00    -0.350 OA
BRANCH  31  32
HETATM   32  C18 UNL     1      -5.786  23.082 -11.085  1.00  0.00     0.179 C 
BRANCH  32  33
HETATM   33  C19 UNL     1      -5.508  24.510 -10.834  1.00  0.00     0.054 C 
BRANCH  33  34
HETATM   34  C20 UNL     1      -4.994  24.950  -9.547  1.00  0.00    -0.023 C 
BRANCH  34  35
HETATM   35  C21 UNL     1      -5.653  25.527  -8.424  1.00  0.00     0.014 C 
BRANCH  35  36
HETATM   36  C22 UNL     1      -6.884  26.257  -8.281  1.00  0.00     0.103 C 
BRANCH  36  37
HETATM   37  N6  UNL     1      -8.045  26.223  -9.044  1.00  0.00    -0.258 N 
HETATM   38  C23 UNL     1      -8.258  26.785 -10.267  1.00  0.00     0.332 A 
HETATM   39  O3  UNL     1      -7.379  27.442 -10.901  1.00  0.00    -0.246 OA
HETATM   40  N7  UNL     1      -9.494  26.531 -10.657  1.00  0.00    -0.304 N 
HETATM   41  C24 UNL     1     -10.118  25.814  -9.729  1.00  0.00     0.098 A 
ATOM     42  H7  UNL     1      -9.908  26.838 -11.538  1.00  0.00     0.171 HD
HETATM   43  C25 UNL     1     -11.400  25.290  -9.632  1.00  0.00     0.139 A 
HETATM   44  C27 UNL     1      -9.218  25.617  -8.717  1.00  0.00     0.159 A 
HETATM   45  N8  UNL     1     -11.758  24.594  -8.554  1.00  0.00    -0.200 N 
HETATM   46  C26 UNL     1     -10.888  24.391  -7.551  1.00  0.00     0.677 A 
ATOM     47  H8  UNL     1     -12.702  24.212  -8.490  1.00  0.00     0.183 HD
HETATM   48  N9  UNL     1     -11.230  23.717  -6.505  1.00  0.00    -0.234 N 
HETATM   49  N10 UNL     1      -9.633  24.907  -7.653  1.00  0.00    -0.174 N 
ATOM     50  H92 UNL     1     -12.171  23.330  -6.428  1.00  0.00     0.174 HD
ATOM     51  H91 UNL     1     -10.570  23.563  -5.743  1.00  0.00     0.174 HD
ATOM     52  H10 UNL     1      -8.977  24.749  -6.888  1.00  0.00     0.186 HD
ENDBRANCH  36  37
ENDBRANCH  35  36
ENDBRANCH  34  35
ENDBRANCH  33  34
ENDBRANCH  32  33
ENDBRANCH  31  32
ENDBRANCH   9  31
ENDBRANCH   3   4
TORSDOF 14
ENDMDL
MODEL 5
REMARK VINA RESULT: -9.463725790      2.263      5.854
REMARK  14 active torsions:
REMARK  status: ('A' for Active; 'I' for Inactive)
REMARK    1  A    between atoms: C3_3  and  C4_4 
REMARK    2  A    between atoms: C7_7  and  C8_8 
REMARK       I    between atoms: C8_8  and  N1_10 
REMARK    3  A    between atoms: N1_10  and  C9_12 
REMARK    4  A    between atoms: C9_12  and  C10_13 
REMARK    5  A    between atoms: C10_13  and  C11_14 
REMARK    6  A    between atoms: C11_14  and  C12_15 
REMARK    7  A    between atoms: C14_19  and  N3_20 
REMARK    8  A    between atoms: C17_30  and  O2_31 
REMARK    9  A    between atoms: O2_31  and  C18_32 
REMARK   10  A    between atoms: C18_32  and  C19_33 
REMARK   11  A    between atoms: C19_33  and  C20_34 
REMARK   12  A    between atoms: C20_34  and  C21_35 
REMARK   13  A    between atoms: C21_35  and  C22_36 
REMARK   14  A    between atoms: C22_36  and  N6_37 
ROOT
HETATM    1  C1  UNL     1     -13.105  22.633 -11.658  1.00  0.00     0.012 C 
HETATM    2  C2  UNL     1     -12.921  23.822 -11.561  1.00  0.00    -0.113 C 
HETATM    3  C3  UNL     1     -12.708  25.267 -11.468  1.00  0.00     0.134 C 
ENDROOT
BRANCH   3   4
HETATM    4  C4  UNL     1     -11.493  25.607 -10.677  1.00  0.00    -0.014 A 
HETATM    5  C5  UNL     1     -11.509  25.508  -9.306  1.00  0.00     0.012 A 
HETATM    6  C6  UNL     1     -10.419  25.810  -8.523  1.00  0.00     0.018 A 
HETATM    7  C7  UNL     1      -9.256  26.230  -9.122  1.00  0.00     0.034 A 
HETATM    8  C16 UNL     1      -9.245  26.329 -10.514  1.00  0.00     0.054 A 
HETATM    9  C17 UNL     1     -10.317  26.033 -11.312  1.00  0.00     0.076 A 
BRANCH   7  10
HETATM   10  C8  UNL     1      -8.085  26.541  -8.302  1.00  0.00     0.251 C 
HETATM   11  O1  UNL     1      -8.230  26.995  -7.125  1.00  0.00    -0.268 OA
HETATM   12  N1  UNL     1      -6.804  26.327  -8.851  1.00  0.00    -0.357 N 
ATOM     13  H1  UNL     1      -6.765  25.966  -9.804  1.00  0.00     0.162 HD
BRANCH  12  14
HETATM   14  C9  UNL     1      -5.546  26.571  -8.193  1.00  0.00     0.123 C 
BRANCH  14  15
HETATM   15  C10 UNL     1      -4.409  25.712  -8.791  1.00  0.00     0.024 C 
BRANCH  15  16
HETATM   16  C11 UNL     1      -5.053  24.764  -9.719  1.00  0.00     0.045 C 
BRANCH  16  17
HETATM   17  C12 UNL     1      -4.280  24.236 -10.842  1.00  0.00     0.002 A 
HETATM   18  C13 UNL     1      -3.073  24.901 -11.086  1.00  0.00     0.117 A 
HETATM   19  N2  UNL     1      -2.295  24.500 -12.087  1.00  0.00    -0.202 N 
HETATM   20  C14 UNL     1      -2.650  23.453 -12.876  1.00  0.00     0.677 A 
ATOM     21  H2  UNL     1      -1.416  24.987 -12.264  1.00  0.00     0.183 HD
HETATM   22  N4  UNL     1      -3.781  22.811 -12.664  1.00  0.00    -0.177 N 
HETATM   23  C15 UNL     1      -4.626  23.174 -11.653  1.00  0.00     0.122 A 
ATOM     24  H4  UNL     1      -4.031  22.027 -13.266  1.00  0.00     0.185 HD
HETATM   25  N5  UNL     1      -5.683  22.562 -11.465  1.00  0.00    -0.385 N 
ATOM     26  H52 UNL     1      -6.315  22.833 -10.711  1.00  0.00     0.157 HD
ATOM     27  H51 UNL     1      -5.939  21.777 -12.065  1.00  0.00     0.157 HD
BRANCH  20  28
HETATM   28  N3  UNL     1      -1.836  23.112 -13.844  1.00  0.00    -0.234 N 
ATOM     29  H32 UNL     1      -0.836  22.988 -13.685  1.00  0.00     0.174 HD
ATOM     30  H31 UNL     1      -2.233  22.972 -14.773  1.00  0.00     0.174 HD
ENDBRANCH  20  28
ENDBRANCH  16  17
ENDBRANCH  15  16
ENDBRANCH  14  15
ENDBRANCH  12  14
ENDBRANCH   7  10
BRANCH   9  31
HETATM   31  O2  UNL     1     -10.345  26.118 -12.649  1.00  0.00    -0.350 OA
BRANCH  31  32
HETATM   32  C18 UNL     1      -9.706  25.411 -13.671  1.00  0.00     0.179 C 
BRANCH  32  33
HETATM   33  C19 UNL     1      -9.035  24.216 -13.122  1.00  0.00     0.054 C 
BRANCH  33  34
HETATM   34  C20 UNL     1      -9.655  22.905 -13.223  1.00  0.00    -0.023 C 
BRANCH  34  35
HETATM   35  C21 UNL     1      -9.946  22.092 -14.356  1.00  0.00     0.014 C 
BRANCH  35  36
HETATM   36  C22 UNL     1      -9.594  22.191 -15.747  1.00  0.00     0.103 C 
BRANCH  36  37
HETATM   37  N6  UNL     1      -9.118  23.272 -16.481  1.00  0.00    -0.258 N 
HETATM   38  C23 UNL     1      -7.826  23.558 -16.806  1.00  0.00     0.332 A 
HETATM   39  O3  UNL     1      -6.840  22.838 -16.464  1.00  0.00    -0.246 OA
HETATM   40  N7  UNL     1      -7.788  24.675 -17.511  1.00  0.00    -0.304 N 
HETATM   41  C24 UNL     1      -9.020  25.146 -17.669  1.00  0.00     0.098 A 
ATOM     42  H7  UNL     1      -6.941  25.109 -17.879  1.00  0.00     0.171 HD
HETATM   43  C25 UNL     1      -9.536  26.263 -18.311  1.00  0.00     0.139 A 
HETATM   44  C27 UNL     1      -9.858  24.274 -17.028  1.00  0.00     0.159 A 
HETATM   45  N8  UNL     1     -10.849  26.490 -18.305  1.00  0.00    -0.200 N 
HETATM   46  C26 UNL     1     -11.687  25.645 -17.681  1.00  0.00     0.677 A 
ATOM     47  H8  UNL     1     -11.222  27.313 -18.778  1.00  0.00     0.183 HD
HETATM   48  N9  UNL     1     -12.959  25.860 -17.673  1.00  0.00    -0.234 N 
HETATM   49  N10 UNL     1     -11.173  24.551 -17.054  1.00  0.00    -0.174 N 
ATOM     50  H92 UNL     1     -13.344  26.680 -18.143  1.00  0.00     0.174 HD
ATOM     51  H91 UNL     1     -13.595  25.219 -17.199  1.00  0.00     0.174 HD
ATOM     52  H10 UNL     1     -11.814  23.914 -16.582  1.00  0.00     0.186 HD
ENDBRANCH  36  37
ENDBRANCH  35  36
ENDBRANCH  34  35
ENDBRANCH  33  34
ENDBRANCH  32  33
ENDBRANCH  31  32
ENDBRANCH   9  31
ENDBRANCH   3   4
TORSDOF 14
ENDMDL
