MODEL 1
REMARK VINA RESULT: -7.343411717      0.000      0.000
REMARK  2 active torsions:
REMARK  status: ('A' for Active; 'I' for Inactive)
REMARK    1  A    between atoms: C3_3  and  O1_4 
REMARK    2  A    between atoms: C11_13  and  C12_14 
ROOT
HETATM    1  C1  UNL     1       2.787  -0.235   7.688  1.00  0.00     0.017 C 
HETATM    2  C2  UNL     1       3.983  -0.366   7.174  1.00  0.00    -0.056 C 
HETATM    3  C3  UNL     1       4.157  -0.571   5.739  1.00  0.00     0.151 C 
HETATM    4  C4  UNL     1       5.027  -1.761   5.443  1.00  0.00     0.020 C 
HETATM    5  C5  UNL     1       5.610  -1.531   4.046  1.00  0.00     0.013 C 
HETATM    6  C6  UNL     1       6.119  -2.005   6.368  1.00  0.00     0.009 C 
HETATM    7  C7  UNL     1       6.378  -0.970   7.426  1.00  0.00     0.037 C 
HETATM    8  C8  UNL     1       5.223  -0.307   8.044  1.00  0.00     0.024 C 
HETATM    9  C9  UNL     1       4.791  -0.654   9.399  1.00  0.00     0.015 C 
HETATM   10  C10 UNL     1       5.748  -1.011  10.442  1.00  0.00     0.069 C 
HETATM   11  C11 UNL     1       6.744  -2.054  10.257  1.00  0.00     0.165 C 
HETATM   12  O2  UNL     1       6.362  -3.305   9.892  1.00  0.00    -0.346 OA
HETATM   13  C14 UNL     1       6.716  -3.441   8.513  1.00  0.00     0.168 A 
HETATM   14  C15 UNL     1       5.870  -2.828   7.609  1.00  0.00     0.060 A 
HETATM   15  C16 UNL     1       6.965  -2.109   8.139  1.00  0.00     0.102 A 
HETATM   16  O3  UNL     1       7.580  -1.653   9.220  1.00  0.00    -0.341 OA
ENDROOT
BRANCH   3  17
HETATM   17  O1  UNL     1       4.680   0.613   5.190  1.00  0.00    -0.391 OA
ATOM     18  H1  UNL     1       4.734   0.502   4.248  1.00  0.00     0.210 HD
ENDBRANCH   3  17
BRANCH  11  19
HETATM   19  C12 UNL     1       7.637  -2.075  11.509  1.00  0.00     0.064 C 
HETATM   20  C13 UNL     1       7.581  -0.782  12.246  1.00  0.00     0.010 C 
ENDBRANCH  11  19
TORSDOF 2
ENDMDL
MODEL 2
REMARK VINA RESULT: -7.309695682      2.885      5.218
REMARK  2 active torsions:
REMARK  status: ('A' for Active; 'I' for Inactive)
REMARK    1  A    between atoms: C3_3  and  O1_4 
REMARK    2  A    between atoms: C11_13  and  C12_14 
ROOT
HETATM    1  C1  UNL     1       7.363  -0.710   8.479  1.00  0.00     0.017 C 
HETATM    2  C2  UNL     1       6.771  -1.622   9.207  1.00  0.00    -0.056 C 
HETATM    3  C3  UNL     1       6.244  -1.291  10.527  1.00  0.00     0.151 C 
HETATM    4  C4  UNL     1       6.732  -2.244  11.583  1.00  0.00     0.020 C 
HETATM    5  C5  UNL     1       5.706  -2.191  12.719  1.00  0.00     0.013 C 
HETATM    6  C6  UNL     1       6.901  -3.626  11.173  1.00  0.00     0.009 C 
HETATM    7  C7  UNL     1       6.423  -4.008   9.801  1.00  0.00     0.037 C 
HETATM    8  C8  UNL     1       6.613  -3.045   8.709  1.00  0.00     0.024 C 
HETATM    9  C9  UNL     1       7.654  -3.245   7.700  1.00  0.00     0.015 C 
HETATM   10  C10 UNL     1       8.019  -4.578   7.228  1.00  0.00     0.069 C 
HETATM   11  C11 UNL     1       8.388  -5.650   8.138  1.00  0.00     0.165 C 
HETATM   12  O2  UNL     1       9.392  -5.468   9.035  1.00  0.00    -0.346 OA
HETATM   13  C14 UNL     1       8.760  -5.303  10.308  1.00  0.00     0.168 A 
HETATM   14  C15 UNL     1       8.205  -4.062  10.551  1.00  0.00     0.060 A 
HETATM   15  C16 UNL     1       7.421  -5.070   9.946  1.00  0.00     0.102 A 
HETATM   16  O3  UNL     1       7.281  -5.917   8.937  1.00  0.00    -0.341 OA
ENDROOT
BRANCH   3  17
HETATM   17  O1  UNL     1       4.840  -1.275  10.443  1.00  0.00    -0.391 OA
ATOM     18  H1  UNL     1       4.496  -1.059  11.302  1.00  0.00     0.210 HD
ENDBRANCH   3  17
BRANCH  11  19
HETATM   19  C12 UNL     1       8.598  -6.923   7.301  1.00  0.00     0.064 C 
HETATM   20  C13 UNL     1       9.602  -6.712   6.221  1.00  0.00     0.010 C 
ENDBRANCH  11  19
TORSDOF 2
ENDMDL
MODEL 3
REMARK VINA RESULT: -7.078833043      3.549      5.811
REMARK  2 active torsions:
REMARK  status: ('A' for Active; 'I' for Inactive)
REMARK    1  A    between atoms: C3_3  and  O1_4 
REMARK    2  A    between atoms: C11_13  and  C12_14 
ROOT
HETATM    1  C1  UNL     1       7.224  -0.743  11.063  1.00  0.00     0.017 C 
HETATM    2  C2  UNL     1       6.676  -1.906  11.304  1.00  0.00    -0.056 C 
HETATM    3  C3  UNL     1       6.264  -2.267  12.657  1.00  0.00     0.151 C 
HETATM    4  C4  UNL     1       6.819  -3.600  13.077  1.00  0.00     0.020 C 
HETATM    5  C5  UNL     1       5.890  -4.127  14.175  1.00  0.00     0.013 C 
HETATM    6  C6  UNL     1       6.927  -4.608  12.037  1.00  0.00     0.009 C 
HETATM    7  C7  UNL     1       6.332  -4.289  10.695  1.00  0.00     0.037 C 
HETATM    8  C8  UNL     1       6.450  -2.914  10.194  1.00  0.00     0.024 C 
HETATM    9  C9  UNL     1       7.402  -2.578   9.134  1.00  0.00     0.015 C 
HETATM   10  C10 UNL     1       7.702  -3.507   8.049  1.00  0.00     0.069 C 
HETATM   11  C11 UNL     1       8.123  -4.877   8.294  1.00  0.00     0.165 C 
HETATM   12  O2  UNL     1       9.200  -5.128   9.082  1.00  0.00    -0.346 OA
HETATM   13  C14 UNL     1       8.678  -5.614  10.322  1.00  0.00     0.168 A 
HETATM   14  C15 UNL     1       8.168  -4.658  11.179  1.00  0.00     0.060 A 
HETATM   15  C16 UNL     1       7.319  -5.266  10.228  1.00  0.00     0.102 A 
HETATM   16  O3  UNL     1       7.080  -5.523   8.950  1.00  0.00    -0.341 OA
ENDROOT
BRANCH   3  17
HETATM   17  O1  UNL     1       4.859  -2.244  12.705  1.00  0.00    -0.391 OA
ATOM     18  H1  UNL     1       4.532  -2.857  12.056  1.00  0.00     0.210 HD
ENDBRANCH   3  17
BRANCH  11  19
HETATM   19  C12 UNL     1       8.239  -5.581   6.931  1.00  0.00     0.064 C 
HETATM   20  C13 UNL     1       8.770  -6.966   7.071  1.00  0.00     0.010 C 
ENDBRANCH  11  19
TORSDOF 2
ENDMDL
MODEL 4
REMARK VINA RESULT: -6.955745843      2.901      4.187
REMARK  2 active torsions:
REMARK  status: ('A' for Active; 'I' for Inactive)
REMARK    1  A    between atoms: C3_3  and  O1_4 
REMARK    2  A    between atoms: C11_13  and  C12_14 
ROOT
HETATM    1  C1  UNL     1       5.526  -3.977   6.753  1.00  0.00     0.017 C 
HETATM    2  C2  UNL     1       6.714  -4.254   7.227  1.00  0.00    -0.056 C 
HETATM    3  C3  UNL     1       7.503  -5.345   6.662  1.00  0.00     0.151 C 
HETATM    4  C4  UNL     1       7.994  -6.291   7.722  1.00  0.00     0.020 C 
HETATM    5  C5  UNL     1       9.231  -6.983   7.141  1.00  0.00     0.013 C 
HETATM    6  C6  UNL     1       8.350  -5.698   8.998  1.00  0.00     0.009 C 
HETATM    7  C7  UNL     1       8.353  -4.198   9.092  1.00  0.00     0.037 C 
HETATM    8  C8  UNL     1       7.310  -3.458   8.371  1.00  0.00     0.024 C 
HETATM    9  C9  UNL     1       6.182  -2.858   9.085  1.00  0.00     0.015 C 
HETATM   10  C10 UNL     1       6.334  -2.286  10.420  1.00  0.00     0.069 C 
HETATM   11  C11 UNL     1       6.918  -3.034  11.522  1.00  0.00     0.165 C 
HETATM   12  O2  UNL     1       6.405  -4.242  11.874  1.00  0.00    -0.346 OA
HETATM   13  C14 UNL     1       7.335  -5.219  11.398  1.00  0.00     0.168 A 
HETATM   14  C15 UNL     1       7.282  -5.496  10.046  1.00  0.00     0.060 A 
HETATM   15  C16 UNL     1       8.130  -4.468  10.515  1.00  0.00     0.102 A 
HETATM   16  O3  UNL     1       8.234  -3.325  11.178  1.00  0.00    -0.341 OA
ENDROOT
BRANCH   3  17
HETATM   17  O1  UNL     1       8.562  -4.780   5.928  1.00  0.00    -0.391 OA
ATOM     18  H1  UNL     1       8.641  -3.868   6.180  1.00  0.00     0.210 HD
ENDBRANCH   3  17
BRANCH  11  19
HETATM   19  C12 UNL     1       7.017  -2.086  12.729  1.00  0.00     0.064 C 
HETATM   20  C13 UNL     1       7.668  -0.797  12.363  1.00  0.00     0.010 C 
ENDBRANCH  11  19
TORSDOF 2
ENDMDL
MODEL 5
REMARK VINA RESULT: -6.925527948      2.707      4.311
REMARK  2 active torsions:
REMARK  status: ('A' for Active; 'I' for Inactive)
REMARK    1  A    between atoms: C3_3  and  O1_4 
REMARK    2  A    between atoms: C11_13  and  C12_14 
ROOT
HETATM    1  C1  UNL     1       9.341  -5.971   8.746  1.00  0.00     0.017 C 
HETATM    2  C2  UNL     1       8.169  -5.500   8.408  1.00  0.00    -0.056 C 
HETATM    3  C3  UNL     1       7.700  -5.594   7.028  1.00  0.00     0.151 C 
HETATM    4  C4  UNL     1       7.238  -4.264   6.500  1.00  0.00     0.020 C 
HETATM    5  C5  UNL     1       6.261  -4.570   5.360  1.00  0.00     0.013 C 
HETATM    6  C6  UNL     1       6.580  -3.388   7.453  1.00  0.00     0.009 C 
HETATM    7  C7  UNL     1       6.278  -3.943   8.815  1.00  0.00     0.037 C 
HETATM    8  C8  UNL     1       7.261  -4.844   9.429  1.00  0.00     0.024 C 
HETATM    9  C9  UNL     1       8.128  -4.385  10.516  1.00  0.00     0.015 C 
HETATM   10  C10 UNL     1       7.662  -3.434  11.520  1.00  0.00     0.069 C 
HETATM   11  C11 UNL     1       7.066  -2.157  11.163  1.00  0.00     0.165 C 
HETATM   12  O2  UNL     1       7.737  -1.293  10.358  1.00  0.00    -0.346 OA
HETATM   13  C14 UNL     1       7.096  -1.363   9.081  1.00  0.00     0.168 A 
HETATM   14  C15 UNL     1       7.413  -2.462   8.306  1.00  0.00     0.060 A 
HETATM   15  C16 UNL     1       6.322  -2.530   9.202  1.00  0.00     0.102 A 
HETATM   16  O3  UNL     1       5.900  -2.426  10.453  1.00  0.00    -0.341 OA
ENDROOT
BRANCH   3  17
HETATM   17  O1  UNL     1       6.681  -6.562   6.980  1.00  0.00    -0.391 OA
ATOM     18  H1  UNL     1       6.215  -6.540   7.808  1.00  0.00     0.210 HD
ENDBRANCH   3  17
BRANCH  11  19
HETATM   19  C12 UNL     1       6.600  -1.479  12.462  1.00  0.00     0.064 C 
HETATM   20  C13 UNL     1       5.347  -2.092  12.984  1.00  0.00     0.010 C 
ENDBRANCH  11  19
TORSDOF 2
ENDMDL
