MODEL 1
REMARK VINA RESULT: -6.730283670      0.000      0.000
REMARK  2 active torsions:
REMARK  status: ('A' for Active; 'I' for Inactive)
REMARK    1  A    between atoms: C2_2  and  N1_3 
REMARK    2  A    between atoms: C2_2  and  C3_7 
ROOT
HETATM    1  C3  UNL     1       7.080  -4.284  12.842  1.00  0.00     0.020 A 
HETATM    2  C4  UNL     1       6.917  -3.088  11.908  1.00  0.00     0.013 A 
HETATM    3  C5  UNL     1       6.700  -3.991  10.714  1.00  0.00     0.005 A 
HETATM    4  C6  UNL     1       6.988  -5.175  11.647  1.00  0.00    -0.003 A 
HETATM    5  C7  UNL     1       8.332  -5.730  11.155  1.00  0.00     0.013 C 
HETATM    6  C8  UNL     1       8.232  -5.433   9.697  1.00  0.00     0.019 C 
HETATM    7  C9  UNL     1       9.454  -5.675   8.906  1.00  0.00     0.129 C 
HETATM    8  N2  UNL     1       9.080  -5.638   7.484  1.00  0.00    -0.370 N 
HETATM    9  C10 UNL     1       9.534  -6.661   6.559  1.00  0.00     0.151 C 
HETATM   10  C11 UNL     1       8.259  -4.604   6.951  1.00  0.00     0.136 C 
HETATM   11  S1  UNL     1       8.191  -4.371   5.335  1.00  0.00    -0.053 SA
HETATM   12  S2  UNL     1       7.289  -3.545   8.051  1.00  0.00    -0.095 SA
HETATM   13  C12 UNL     1       7.833  -3.950   9.731  1.00  0.00     0.065 C 
ENDROOT
BRANCH   1  14
HETATM   14  C2  UNL     1       5.816  -4.448  13.697  1.00  0.00     0.183 C 
HETATM   15  C1  UNL     1       5.064  -3.169  13.845  1.00  0.00     0.040 C 
BRANCH  14  16
HETATM   16  N1  UNL     1       6.278  -4.856  15.023  1.00  0.00    -0.075 N 
ATOM     17  H13 UNL     1       7.058  -4.291  15.361  1.00  0.00     0.274 HD
ATOM     18  H12 UNL     1       5.613  -4.625  15.762  1.00  0.00     0.274 HD
ATOM     19  H11 UNL     1       6.497  -5.852  14.987  1.00  0.00     0.274 HD
ENDBRANCH  14  16
ENDBRANCH   1  14
TORSDOF 2
ENDMDL
MODEL 2
REMARK VINA RESULT: -6.166061386      4.067      6.338
REMARK  2 active torsions:
REMARK  status: ('A' for Active; 'I' for Inactive)
REMARK    1  A    between atoms: C2_2  and  N1_3 
REMARK    2  A    between atoms: C2_2  and  C3_7 
ROOT
HETATM    1  C3  UNL     1       5.437  -0.040   7.609  1.00  0.00     0.020 A 
HETATM    2  C4  UNL     1       6.565  -0.997   7.232  1.00  0.00     0.013 A 
HETATM    3  C5  UNL     1       6.014  -2.077   8.136  1.00  0.00     0.005 A 
HETATM    4  C6  UNL     1       4.961  -1.058   8.592  1.00  0.00    -0.003 A 
HETATM    5  C7  UNL     1       5.326  -0.759  10.053  1.00  0.00     0.013 C 
HETATM    6  C8  UNL     1       5.883  -2.079  10.469  1.00  0.00     0.019 C 
HETATM    7  C9  UNL     1       6.517  -2.118  11.801  1.00  0.00     0.129 C 
HETATM    8  N2  UNL     1       6.709  -3.531  12.163  1.00  0.00    -0.370 N 
HETATM    9  C10 UNL     1       6.340  -4.030  13.475  1.00  0.00     0.151 C 
HETATM   10  C11 UNL     1       7.264  -4.470  11.247  1.00  0.00     0.136 C 
HETATM   11  S1  UNL     1       7.825  -5.904  11.793  1.00  0.00    -0.053 SA
HETATM   12  S2  UNL     1       7.352  -4.086   9.482  1.00  0.00    -0.095 SA
HETATM   13  C12 UNL     1       6.880  -2.343   9.332  1.00  0.00     0.065 C 
ENDROOT
BRANCH   1  14
HETATM   14  C2  UNL     1       4.434   0.057   6.451  1.00  0.00     0.183 C 
HETATM   15  C1  UNL     1       4.988  -0.481   5.176  1.00  0.00     0.040 C 
BRANCH  14  16
HETATM   16  N1  UNL     1       4.174   1.484   6.263  1.00  0.00    -0.075 N 
ATOM     17  H13 UNL     1       5.020   2.051   6.330  1.00  0.00     0.274 HD
ATOM     18  H12 UNL     1       3.929   1.717   5.300  1.00  0.00     0.274 HD
ATOM     19  H11 UNL     1       3.457   1.764   6.932  1.00  0.00     0.274 HD
ENDBRANCH  14  16
ENDBRANCH   1  14
TORSDOF 2
ENDMDL
MODEL 3
REMARK VINA RESULT: -6.159979323      4.615      5.780
REMARK  2 active torsions:
REMARK  status: ('A' for Active; 'I' for Inactive)
REMARK    1  A    between atoms: C2_2  and  N1_3 
REMARK    2  A    between atoms: C2_2  and  C3_7 
ROOT
HETATM    1  C3  UNL     1       4.433   0.381   7.699  1.00  0.00     0.020 A 
HETATM    2  C4  UNL     1       5.425  -0.217   6.705  1.00  0.00     0.013 A 
HETATM    3  C5  UNL     1       5.371  -1.565   7.389  1.00  0.00     0.005 A 
HETATM    4  C6  UNL     1       4.471  -0.912   8.447  1.00  0.00    -0.003 A 
HETATM    5  C7  UNL     1       5.331  -0.891   9.719  1.00  0.00     0.013 C 
HETATM    6  C8  UNL     1       6.135  -2.132   9.523  1.00  0.00     0.019 C 
HETATM    7  C9  UNL     1       7.227  -2.350  10.492  1.00  0.00     0.129 C 
HETATM    8  N2  UNL     1       7.685  -3.739  10.343  1.00  0.00    -0.370 N 
HETATM    9  C10 UNL     1       7.894  -4.593  11.499  1.00  0.00     0.151 C 
HETATM   10  C11 UNL     1       7.944  -4.311   9.065  1.00  0.00     0.136 C 
HETATM   11  S1  UNL     1       8.813  -5.690   8.950  1.00  0.00    -0.053 SA
HETATM   12  S2  UNL     1       7.316  -3.520   7.563  1.00  0.00    -0.095 SA
HETATM   13  C12 UNL     1       6.648  -1.920   8.091  1.00  0.00     0.065 C 
ENDROOT
BRANCH   1  14
HETATM   14  C2  UNL     1       3.062   0.539   7.028  1.00  0.00     0.183 C 
HETATM   15  C1  UNL     1       2.618   1.961   6.979  1.00  0.00     0.040 C 
BRANCH  14  16
HETATM   16  N1  UNL     1       2.117  -0.200   7.866  1.00  0.00    -0.075 N 
ATOM     17  H13 UNL     1       1.200  -0.302   7.431  1.00  0.00     0.274 HD
ATOM     18  H12 UNL     1       2.345  -1.192   7.938  1.00  0.00     0.274 HD
ATOM     19  H11 UNL     1       2.075   0.263   8.774  1.00  0.00     0.274 HD
ENDBRANCH  14  16
ENDBRANCH   1  14
TORSDOF 2
ENDMDL
MODEL 4
REMARK VINA RESULT: -5.958001344      1.803      2.495
REMARK  2 active torsions:
REMARK  status: ('A' for Active; 'I' for Inactive)
REMARK    1  A    between atoms: C2_2  and  N1_3 
REMARK    2  A    between atoms: C2_2  and  C3_7 
ROOT
HETATM    1  C3  UNL     1       6.681  -4.612  11.634  1.00  0.00     0.020 A 
HETATM    2  C4  UNL     1       7.567  -5.844  11.471  1.00  0.00     0.013 A 
HETATM    3  C5  UNL     1       8.373  -5.176  10.379  1.00  0.00     0.005 A 
HETATM    4  C6  UNL     1       7.396  -3.998  10.476  1.00  0.00    -0.003 A 
HETATM    5  C7  UNL     1       6.621  -4.036   9.151  1.00  0.00     0.013 C 
HETATM    6  C8  UNL     1       7.672  -4.565   8.235  1.00  0.00     0.019 C 
HETATM    7  C9  UNL     1       7.225  -4.910   6.872  1.00  0.00     0.129 C 
HETATM    8  N2  UNL     1       8.424  -5.100   6.043  1.00  0.00    -0.370 N 
HETATM    9  C10 UNL     1       8.536  -4.495   4.728  1.00  0.00     0.151 C 
HETATM   10  C11 UNL     1       9.527  -5.883   6.488  1.00  0.00     0.136 C 
HETATM   11  S1  UNL     1      10.647  -6.396   5.415  1.00  0.00    -0.053 SA
HETATM   12  S2  UNL     1       9.698  -6.314   8.237  1.00  0.00    -0.095 SA
HETATM   13  C12 UNL     1       8.154  -5.790   9.027  1.00  0.00     0.065 C 
ENDROOT
BRANCH   1  14
HETATM   14  C2  UNL     1       7.064  -3.866  12.920  1.00  0.00     0.183 C 
HETATM   15  C1  UNL     1       6.228  -4.279  14.083  1.00  0.00     0.040 C 
BRANCH  14  16
HETATM   16  N1  UNL     1       6.804  -2.451  12.657  1.00  0.00    -0.075 N 
ATOM     17  H13 UNL     1       7.653  -1.886  12.661  1.00  0.00     0.274 HD
ATOM     18  H12 UNL     1       6.526  -2.273  11.692  1.00  0.00     0.274 HD
ATOM     19  H11 UNL     1       6.111  -2.129  13.333  1.00  0.00     0.274 HD
ENDBRANCH  14  16
ENDBRANCH   1  14
TORSDOF 2
ENDMDL
MODEL 5
REMARK VINA RESULT: -5.903142075      2.190      2.790
REMARK  2 active torsions:
REMARK  status: ('A' for Active; 'I' for Inactive)
REMARK    1  A    between atoms: C2_2  and  N1_3 
REMARK    2  A    between atoms: C2_2  and  C3_7 
ROOT
HETATM    1  C3  UNL     1       7.730  -4.353  10.788  1.00  0.00     0.020 A 
HETATM    2  C4  UNL     1       7.019  -3.052  10.424  1.00  0.00     0.013 A 
HETATM    3  C5  UNL     1       6.503  -3.641   9.130  1.00  0.00     0.005 A 
HETATM    4  C6  UNL     1       7.323  -4.896   9.457  1.00  0.00    -0.003 A 
HETATM    5  C7  UNL     1       8.438  -4.908   8.402  1.00  0.00     0.013 C 
HETATM    6  C8  UNL     1       7.727  -4.286   7.247  1.00  0.00     0.019 C 
HETATM    7  C9  UNL     1       8.562  -3.966   6.074  1.00  0.00     0.129 C 
HETATM    8  N2  UNL     1       7.661  -3.671   4.950  1.00  0.00    -0.370 N 
HETATM    9  C10 UNL     1       7.876  -4.254   3.638  1.00  0.00     0.151 C 
HETATM   10  C11 UNL     1       6.539  -2.806   5.096  1.00  0.00     0.136 C 
HETATM   11  S1  UNL     1       5.806  -2.194   3.771  1.00  0.00    -0.053 SA
HETATM   12  S2  UNL     1       5.919  -2.379   6.741  1.00  0.00    -0.095 SA
HETATM   13  C12 UNL     1       7.136  -3.035   7.913  1.00  0.00     0.065 C 
ENDROOT
BRANCH   1  14
HETATM   14  C2  UNL     1       6.947  -5.077  11.892  1.00  0.00     0.183 C 
HETATM   15  C1  UNL     1       6.741  -4.219  13.094  1.00  0.00     0.040 C 
BRANCH  14  16
HETATM   16  N1  UNL     1       7.774  -6.217  12.289  1.00  0.00    -0.075 N 
ATOM     17  H13 UNL     1       8.522  -5.957  12.932  1.00  0.00     0.274 HD
ATOM     18  H12 UNL     1       7.283  -6.865  12.905  1.00  0.00     0.274 HD
ATOM     19  H11 UNL     1       8.119  -6.665  11.440  1.00  0.00     0.274 HD
ENDBRANCH  14  16
ENDBRANCH   1  14
TORSDOF 2
ENDMDL
