MODEL 1
REMARK VINA RESULT: -7.704701751      0.000      0.000
REMARK  1 active torsions:
REMARK  status: ('A' for Active; 'I' for Inactive)
REMARK    1  A    between atoms: C3_3  and  N1_4 
ROOT
HETATM    1  N1  UNL     1       6.814  -3.636  11.753  1.00  0.00     0.093 N 
HETATM    2  C4  UNL     1       7.453  -4.904  11.645  1.00  0.00     0.276 C 
HETATM    3  C5  UNL     1       7.153  -5.465  10.294  1.00  0.00     0.070 C 
HETATM    4  C6  UNL     1       7.267  -4.523   9.150  1.00  0.00     0.089 C 
HETATM    5  C7  UNL     1       7.118  -3.078   9.481  1.00  0.00     0.070 C 
HETATM    6  C8  UNL     1       7.477  -2.717  10.902  1.00  0.00     0.276 C 
HETATM    7  C9  UNL     1       6.108  -4.850   8.192  1.00  0.00     0.270 C 
HETATM    8  N2  UNL     1       6.183  -6.206   7.750  1.00  0.00    -0.070 N 
ATOM      9  H21 UNL     1       5.577  -6.358   6.944  1.00  0.00     0.277 HD
ATOM     10  H22 UNL     1       5.734  -6.830   8.420  1.00  0.00     0.277 HD
HETATM   11  C10 UNL     1       7.529  -6.643   7.466  1.00  0.00     0.270 C 
HETATM   12  C11 UNL     1       8.534  -5.545   7.478  1.00  0.00     0.086 C 
HETATM   13  C12 UNL     1       9.920  -6.205   7.493  1.00  0.00     0.040 C 
HETATM   14  C13 UNL     1      10.297  -6.448   6.071  1.00  0.00     0.003 C 
HETATM   15  C14 UNL     1       9.269  -5.837   5.185  1.00  0.00     0.003 C 
HETATM   16  C15 UNL     1       8.538  -4.881   6.128  1.00  0.00     0.040 C 
HETATM   17  O1  UNL     1       8.487  -4.697   8.534  1.00  0.00    -0.366 OA
ENDROOT
BRANCH   1  18
HETATM   18  C3  UNL     1       6.493  -3.230  13.062  1.00  0.00     0.223 C 
HETATM   19  C2  UNL     1       5.150  -2.597  13.286  1.00  0.00     0.036 C 
HETATM   20  C1  UNL     1       5.028  -3.449  14.550  1.00  0.00     0.004 C 
HETATM   21  C16 UNL     1       5.945  -4.444  13.831  1.00  0.00     0.036 C 
ENDBRANCH   1  18
TORSDOF 1
ENDMDL
MODEL 2
REMARK VINA RESULT: -6.835238924      1.309      1.581
REMARK  1 active torsions:
REMARK  status: ('A' for Active; 'I' for Inactive)
REMARK    1  A    between atoms: C3_3  and  N1_4 
ROOT
HETATM    1  N1  UNL     1       7.486  -4.136  10.856  1.00  0.00     0.093 N 
HETATM    2  C4  UNL     1       8.773  -4.658  10.541  1.00  0.00     0.276 C 
HETATM    3  C5  UNL     1       8.650  -5.492   9.308  1.00  0.00     0.070 C 
HETATM    4  C6  UNL     1       7.837  -4.920   8.204  1.00  0.00     0.089 C 
HETATM    5  C7  UNL     1       6.820  -3.907   8.604  1.00  0.00     0.070 C 
HETATM    6  C8  UNL     1       7.136  -3.167   9.882  1.00  0.00     0.276 C 
HETATM    7  C9  UNL     1       7.041  -6.086   7.592  1.00  0.00     0.270 C 
HETATM    8  N2  UNL     1       7.922  -7.101   7.108  1.00  0.00    -0.070 N 
ATOM      9  H21 UNL     1       7.426  -7.749   6.496  1.00  0.00     0.277 HD
ATOM     10  H22 UNL     1       8.180  -7.743   7.858  1.00  0.00     0.277 HD
HETATM   11  C10 UNL     1       9.097  -6.578   6.454  1.00  0.00     0.270 C 
HETATM   12  C11 UNL     1       9.052  -5.109   6.221  1.00  0.00     0.086 C 
HETATM   13  C12 UNL     1      10.472  -4.672   5.837  1.00  0.00     0.040 C 
HETATM   14  C13 UNL     1      10.590  -4.838   4.360  1.00  0.00     0.003 C 
HETATM   15  C14 UNL     1       9.261  -5.220   3.807  1.00  0.00     0.003 C 
HETATM   16  C15 UNL     1       8.306  -4.846   4.941  1.00  0.00     0.040 C 
HETATM   17  O1  UNL     1       8.672  -4.343   7.273  1.00  0.00    -0.366 OA
ENDROOT
BRANCH   1  18
HETATM   18  C3  UNL     1       7.272  -3.831  12.213  1.00  0.00     0.223 C 
HETATM   19  C2  UNL     1       6.058  -3.019  12.562  1.00  0.00     0.036 C 
HETATM   20  C1  UNL     1       5.831  -3.976  13.733  1.00  0.00     0.004 C 
HETATM   21  C16 UNL     1       6.551  -5.020  12.873  1.00  0.00     0.036 C 
ENDBRANCH   1  18
TORSDOF 1
ENDMDL
MODEL 3
REMARK VINA RESULT: -6.807801115      1.735      6.974
REMARK  1 active torsions:
REMARK  status: ('A' for Active; 'I' for Inactive)
REMARK    1  A    between atoms: C3_3  and  N1_4 
ROOT
HETATM    1  N1  UNL     1       9.412  -5.775   4.916  1.00  0.00     0.093 N 
HETATM    2  C4  UNL     1       8.733  -4.562   5.228  1.00  0.00     0.276 C 
HETATM    3  C5  UNL     1       7.721  -4.852   6.287  1.00  0.00     0.070 C 
HETATM    4  C6  UNL     1       8.173  -5.710   7.412  1.00  0.00     0.089 C 
HETATM    5  C7  UNL     1       9.324  -6.611   7.121  1.00  0.00     0.070 C 
HETATM    6  C8  UNL     1      10.234  -6.132   6.014  1.00  0.00     0.276 C 
HETATM    7  C9  UNL     1       6.998  -6.641   7.758  1.00  0.00     0.270 C 
HETATM    8  N2  UNL     1       5.842  -5.884   8.122  1.00  0.00    -0.070 N 
ATOM      9  H21 UNL     1       5.149  -6.478   8.577  1.00  0.00     0.277 HD
ATOM     10  H22 UNL     1       5.313  -5.612   7.293  1.00  0.00     0.277 HD
HETATM   11  C10 UNL     1       6.144  -4.732   8.937  1.00  0.00     0.270 C 
HETATM   12  C11 UNL     1       7.553  -4.687   9.415  1.00  0.00     0.086 C 
HETATM   13  C12 UNL     1       7.793  -3.275   9.969  1.00  0.00     0.040 C 
HETATM   14  C13 UNL     1       7.376  -3.296  11.400  1.00  0.00     0.003 C 
HETATM   15  C14 UNL     1       7.027  -4.692  11.783  1.00  0.00     0.003 C 
HETATM   16  C15 UNL     1       7.666  -5.516  10.665  1.00  0.00     0.040 C 
HETATM   17  O1  UNL     1       8.512  -4.916   8.486  1.00  0.00    -0.366 OA
ENDROOT
BRANCH   1  18
HETATM   18  C3  UNL     1       9.954  -5.849   3.620  1.00  0.00     0.223 C 
HETATM   19  C2  UNL     1      10.989  -4.831   3.238  1.00  0.00     0.036 C 
HETATM   20  C1  UNL     1      11.783  -5.970   2.596  1.00  0.00     0.004 C 
HETATM   21  C16 UNL     1      11.100  -6.875   3.627  1.00  0.00     0.036 C 
ENDBRANCH   1  18
TORSDOF 1
ENDMDL
MODEL 4
REMARK VINA RESULT: -6.771332812      4.713      6.295
REMARK  1 active torsions:
REMARK  status: ('A' for Active; 'I' for Inactive)
REMARK    1  A    between atoms: C3_3  and  N1_4 
ROOT
HETATM    1  N1  UNL     1       6.570  -1.472   9.415  1.00  0.00     0.093 N 
HETATM    2  C4  UNL     1       5.448  -0.622   9.633  1.00  0.00     0.276 C 
HETATM    3  C5  UNL     1       4.937  -0.173   8.303  1.00  0.00     0.070 C 
HETATM    4  C6  UNL     1       4.831  -1.217   7.252  1.00  0.00     0.089 C 
HETATM    5  C7  UNL     1       5.715  -2.404   7.424  1.00  0.00     0.070 C 
HETATM    6  C8  UNL     1       6.116  -2.690   8.851  1.00  0.00     0.276 C 
HETATM    7  C9  UNL     1       5.271  -0.562   5.932  1.00  0.00     0.270 C 
HETATM    8  N2  UNL     1       4.444   0.562   5.624  1.00  0.00    -0.070 N 
ATOM      9  H21 UNL     1       4.569   0.848   4.653  1.00  0.00     0.277 HD
ATOM     10  H22 UNL     1       4.786   1.401   6.092  1.00  0.00     0.277 HD
HETATM   11  C10 UNL     1       3.048   0.345   5.918  1.00  0.00     0.270 C 
HETATM   12  C11 UNL     1       2.720  -1.063   6.271  1.00  0.00     0.086 C 
HETATM   13  C12 UNL     1       1.304  -1.057   6.866  1.00  0.00     0.040 C 
HETATM   14  C13 UNL     1       0.356  -1.190   5.724  1.00  0.00     0.003 C 
HETATM   15  C14 UNL     1       1.131  -1.420   4.473  1.00  0.00     0.003 C 
HETATM   16  C15 UNL     1       2.503  -1.840   5.002  1.00  0.00     0.040 C 
HETATM   17  O1  UNL     1       3.529  -1.661   7.178  1.00  0.00    -0.366 OA
ENDROOT
BRANCH   1  18
HETATM   18  C3  UNL     1       7.502  -1.525  10.469  1.00  0.00     0.223 C 
HETATM   19  C2  UNL     1       7.257  -0.645  11.661  1.00  0.00     0.036 C 
HETATM   20  C1  UNL     1       7.640  -1.836  12.541  1.00  0.00     0.004 C 
HETATM   21  C16 UNL     1       7.138  -2.707  11.384  1.00  0.00     0.036 C 
ENDBRANCH   1  18
TORSDOF 1
ENDMDL
MODEL 5
REMARK VINA RESULT: -6.407992766      1.628      2.072
REMARK  1 active torsions:
REMARK  status: ('A' for Active; 'I' for Inactive)
REMARK    1  A    between atoms: C3_3  and  N1_4 
ROOT
HETATM    1  N1  UNL     1       6.893  -3.081  10.009  1.00  0.00     0.093 N 
HETATM    2  C4  UNL     1       8.023  -3.928  10.193  1.00  0.00     0.276 C 
HETATM    3  C5  UNL     1       7.991  -4.985   9.139  1.00  0.00     0.070 C 
HETATM    4  C6  UNL     1       7.674  -4.530   7.760  1.00  0.00     0.089 C 
HETATM    5  C7  UNL     1       6.908  -3.256   7.656  1.00  0.00     0.070 C 
HETATM    6  C8  UNL     1       7.081  -2.320   8.828  1.00  0.00     0.276 C 
HETATM    7  C9  UNL     1       6.770  -5.608   7.136  1.00  0.00     0.270 C 
HETATM    8  N2  UNL     1       7.430  -6.875   7.120  1.00  0.00    -0.070 N 
ATOM      9  H21 UNL     1       6.947  -7.527   6.502  1.00  0.00     0.277 HD
ATOM     10  H22 UNL     1       7.303  -7.360   8.009  1.00  0.00     0.277 HD
HETATM   11  C10 UNL     1       8.830  -6.789   6.779  1.00  0.00     0.270 C 
HETATM   12  C11 UNL     1       9.251  -5.443   6.303  1.00  0.00     0.086 C 
HETATM   13  C12 UNL     1      10.786  -5.428   6.304  1.00  0.00     0.040 C 
HETATM   14  C13 UNL     1      11.224  -5.962   4.983  1.00  0.00     0.003 C 
HETATM   15  C14 UNL     1      10.026  -6.168   4.121  1.00  0.00     0.003 C 
HETATM   16  C15 UNL     1       8.956  -5.338   4.831  1.00  0.00     0.040 C 
HETATM   17  O1  UNL     1       8.843  -4.386   7.046  1.00  0.00    -0.366 OA
ENDROOT
BRANCH   1  18
HETATM   18  C3  UNL     1       6.434  -2.423  11.166  1.00  0.00     0.223 C 
HETATM   19  C2  UNL     1       7.213  -2.621  12.434  1.00  0.00     0.036 C 
HETATM   20  C1  UNL     1       7.064  -1.120  12.687  1.00  0.00     0.004 C 
HETATM   21  C16 UNL     1       6.984  -0.986  11.162  1.00  0.00     0.036 C 
ENDBRANCH   1  18
TORSDOF 1
ENDMDL
