MODEL 1
REMARK VINA RESULT: -6.486623870      0.000      0.000
REMARK  2 active torsions:
REMARK  status: ('A' for Active; 'I' for Inactive)
REMARK    1  A    between atoms: C3_4  and  N2_5 
REMARK    2  A    between atoms: N3_14  and  C9_15 
ROOT
HETATM    1  C1  UNL     1       9.586  -3.959   5.608  1.00  0.00     0.311 C 
HETATM    2  N1  UNL     1       8.185  -3.647   5.508  1.00  0.00     0.097 N 
HETATM    3  C2  UNL     1       7.547  -4.253   4.358  1.00  0.00     0.305 C 
HETATM    4  C3  UNL     1       6.079  -4.394   4.698  1.00  0.00     0.214 C 
HETATM    5  C4  UNL     1       5.972  -4.030   6.152  1.00  0.00     0.077 C 
HETATM    6  C5  UNL     1       7.406  -4.108   6.606  1.00  0.00     0.172 C 
HETATM    7  C6  UNL     1       7.768  -5.561   7.011  1.00  0.00     0.123 C 
HETATM    8  C7  UNL     1       7.650  -5.635   8.406  1.00  0.00    -0.151 C 
HETATM    9  C8  UNL     1       7.475  -5.509   9.790  1.00  0.00     0.352 C 
HETATM   10  N3  UNL     1       7.216  -4.081  10.097  1.00  0.00     0.103 N 
HETATM   11  C15 UNL     1       6.750  -3.315   8.975  1.00  0.00     0.276 C 
HETATM   12  C16 UNL     1       7.553  -3.140   7.775  1.00  0.00     0.073 C 
ENDROOT
BRANCH   4  13
HETATM   13  N2  UNL     1       5.237  -3.545   3.892  1.00  0.00    -0.073 N 
ATOM     14  H23 UNL     1       5.617  -2.601   3.837  1.00  0.00     0.274 HD
ATOM     15  H22 UNL     1       5.293  -3.804   2.907  1.00  0.00     0.274 HD
ATOM     16  H21 UNL     1       4.269  -3.533   4.213  1.00  0.00     0.274 HD
ENDBRANCH   4  13
BRANCH  10  17
HETATM   17  C9  UNL     1       6.486  -3.891  11.288  1.00  0.00     0.224 C 
HETATM   18  C10 UNL     1       6.601  -2.543  11.923  1.00  0.00     0.036 C 
HETATM   19  C11 UNL     1       5.544  -2.402  13.013  1.00  0.00     0.002 C 
HETATM   20  C12 UNL     1       5.387  -3.651  13.826  1.00  0.00     0.000 C 
HETATM   21  C13 UNL     1       6.545  -4.600  13.699  1.00  0.00     0.002 C 
HETATM   22  C14 UNL     1       6.871  -4.957  12.277  1.00  0.00     0.036 C 
ENDBRANCH  10  17
TORSDOF 2
ENDMDL
MODEL 2
REMARK VINA RESULT: -6.301313917      0.940      1.479
REMARK  2 active torsions:
REMARK  status: ('A' for Active; 'I' for Inactive)
REMARK    1  A    between atoms: C3_4  and  N2_5 
REMARK    2  A    between atoms: N3_14  and  C9_15 
ROOT
HETATM    1  C1  UNL     1       9.032  -3.202   5.940  1.00  0.00     0.311 C 
HETATM    2  N1  UNL     1       7.617  -3.409   6.093  1.00  0.00     0.097 N 
HETATM    3  C2  UNL     1       7.066  -4.325   5.115  1.00  0.00     0.305 C 
HETATM    4  C3  UNL     1       5.824  -4.928   5.733  1.00  0.00     0.214 C 
HETATM    5  C4  UNL     1       5.826  -4.463   7.162  1.00  0.00     0.077 C 
HETATM    6  C5  UNL     1       7.243  -3.986   7.340  1.00  0.00     0.172 C 
HETATM    7  C6  UNL     1       8.168  -5.167   7.737  1.00  0.00     0.123 C 
HETATM    8  C7  UNL     1       8.308  -5.120   9.132  1.00  0.00    -0.151 C 
HETATM    9  C8  UNL     1       8.323  -4.908  10.516  1.00  0.00     0.352 C 
HETATM   10  N3  UNL     1       7.617  -3.634  10.798  1.00  0.00     0.103 N 
HETATM   11  C15 UNL     1       6.733  -3.209   9.749  1.00  0.00     0.276 C 
HETATM   12  C16 UNL     1       7.215  -2.902   8.412  1.00  0.00     0.073 C 
ENDROOT
BRANCH   4  13
HETATM   13  N2  UNL     1       4.615  -4.522   5.062  1.00  0.00    -0.073 N 
ATOM     14  H23 UNL     1       4.254  -3.652   5.454  1.00  0.00     0.274 HD
ATOM     15  H22 UNL     1       4.812  -4.206   4.112  1.00  0.00     0.274 HD
ATOM     16  H21 UNL     1       3.900  -5.249   5.064  1.00  0.00     0.274 HD
ENDBRANCH   4  13
BRANCH  10  17
HETATM   17  C9  UNL     1       7.068  -3.577  12.095  1.00  0.00     0.224 C 
HETATM   18  C10 UNL     1       6.572  -4.869  12.658  1.00  0.00     0.036 C 
HETATM   19  C11 UNL     1       6.289  -4.701  14.147  1.00  0.00     0.002 C 
HETATM   20  C12 UNL     1       5.628  -3.393  14.461  1.00  0.00     0.000 C 
HETATM   21  C13 UNL     1       5.011  -2.729  13.264  1.00  0.00     0.002 C 
HETATM   22  C14 UNL     1       5.968  -2.553  12.119  1.00  0.00     0.036 C 
ENDBRANCH  10  17
TORSDOF 2
ENDMDL
MODEL 3
REMARK VINA RESULT: -6.265690778      2.318      6.773
REMARK  2 active torsions:
REMARK  status: ('A' for Active; 'I' for Inactive)
REMARK    1  A    between atoms: C3_4  and  N2_5 
REMARK    2  A    between atoms: N3_14  and  C9_15 
ROOT
HETATM    1  C1  UNL     1       7.681  -0.845  12.659  1.00  0.00     0.311 C 
HETATM    2  N1  UNL     1       7.614  -2.208  12.205  1.00  0.00     0.097 N 
HETATM    3  C2  UNL     1       7.030  -3.106  13.180  1.00  0.00     0.305 C 
HETATM    4  C3  UNL     1       6.451  -4.271  12.408  1.00  0.00     0.214 C 
HETATM    5  C4  UNL     1       6.560  -3.882  10.961  1.00  0.00     0.077 C 
HETATM    6  C5  UNL     1       6.807  -2.398  11.048  1.00  0.00     0.172 C 
HETATM    7  C6  UNL     1       5.464  -1.628  11.140  1.00  0.00     0.123 C 
HETATM    8  C7  UNL     1       5.161  -1.185   9.844  1.00  0.00    -0.151 C 
HETATM    9  C8  UNL     1       5.035  -0.837   8.494  1.00  0.00     0.352 C 
HETATM   10  N3  UNL     1       6.281  -1.234   7.794  1.00  0.00     0.103 N 
HETATM   11  C15 UNL     1       7.046  -2.237   8.482  1.00  0.00     0.276 C 
HETATM   12  C16 UNL     1       7.602  -2.008   9.806  1.00  0.00     0.073 C 
ENDROOT
BRANCH   4  13
HETATM   13  N2  UNL     1       7.148  -5.507  12.662  1.00  0.00    -0.073 N 
ATOM     14  H23 UNL     1       7.311  -6.018  11.795  1.00  0.00     0.274 HD
ATOM     15  H22 UNL     1       8.115  -5.333  12.936  1.00  0.00     0.274 HD
ATOM     16  H21 UNL     1       6.673  -6.093  13.348  1.00  0.00     0.274 HD
ENDBRANCH   4  13
BRANCH  10  17
HETATM   17  C9  UNL     1       6.094  -1.473   6.417  1.00  0.00     0.224 C 
HETATM   18  C10 UNL     1       4.710  -1.845   5.995  1.00  0.00     0.036 C 
HETATM   19  C11 UNL     1       4.606  -1.779   4.475  1.00  0.00     0.002 C 
HETATM   20  C12 UNL     1       5.819  -2.335   3.792  1.00  0.00     0.000 C 
HETATM   21  C13 UNL     1       6.666  -3.200   4.683  1.00  0.00     0.002 C 
HETATM   22  C14 UNL     1       7.067  -2.526   5.964  1.00  0.00     0.036 C 
ENDBRANCH  10  17
TORSDOF 2
ENDMDL
MODEL 4
REMARK VINA RESULT: -6.229271699      1.569      3.037
REMARK  2 active torsions:
REMARK  status: ('A' for Active; 'I' for Inactive)
REMARK    1  A    between atoms: C3_4  and  N2_5 
REMARK    2  A    between atoms: N3_14  and  C9_15 
ROOT
HETATM    1  C1  UNL     1       7.719  -4.545   3.694  1.00  0.00     0.311 C 
HETATM    2  N1  UNL     1       8.730  -5.192   4.487  1.00  0.00     0.097 N 
HETATM    3  C2  UNL     1      10.071  -4.981   3.981  1.00  0.00     0.305 C 
HETATM    4  C3  UNL     1      11.009  -5.129   5.159  1.00  0.00     0.214 C 
HETATM    5  C4  UNL     1      10.119  -5.228   6.365  1.00  0.00     0.077 C 
HETATM    6  C5  UNL     1       8.802  -4.730   5.831  1.00  0.00     0.172 C 
HETATM    7  C6  UNL     1       8.730  -3.182   5.921  1.00  0.00     0.123 C 
HETATM    8  C7  UNL     1       8.014  -2.878   7.088  1.00  0.00    -0.151 C 
HETATM    9  C8  UNL     1       7.289  -2.779   8.281  1.00  0.00     0.352 C 
HETATM   10  N3  UNL     1       6.869  -4.143   8.684  1.00  0.00     0.103 N 
HETATM   11  C15 UNL     1       7.650  -5.194   8.095  1.00  0.00     0.276 C 
HETATM   12  C16 UNL     1       7.707  -5.398   6.656  1.00  0.00     0.073 C 
ENDROOT
BRANCH   4  13
HETATM   13  N2  UNL     1      11.859  -6.288   5.051  1.00  0.00    -0.073 N 
ATOM     14  H23 UNL     1      12.823  -6.018   4.856  1.00  0.00     0.274 HD
ATOM     15  H22 UNL     1      11.992  -6.730   5.961  1.00  0.00     0.274 HD
ATOM     16  H21 UNL     1      11.521  -6.961   4.363  1.00  0.00     0.274 HD
ENDBRANCH   4  13
BRANCH  10  17
HETATM   17  C9  UNL     1       6.652  -4.272  10.071  1.00  0.00     0.224 C 
HETATM   18  C10 UNL     1       7.029  -3.094  10.910  1.00  0.00     0.036 C 
HETATM   19  C11 UNL     1       6.470  -3.271  12.317  1.00  0.00     0.002 C 
HETATM   20  C12 UNL     1       6.609  -4.677  12.818  1.00  0.00     0.000 C 
HETATM   21  C13 UNL     1       7.611  -5.492  12.049  1.00  0.00     0.002 C 
HETATM   22  C14 UNL     1       7.363  -5.501  10.568  1.00  0.00     0.036 C 
ENDBRANCH  10  17
TORSDOF 2
ENDMDL
MODEL 5
REMARK VINA RESULT: -6.177420868      3.776      4.956
REMARK  2 active torsions:
REMARK  status: ('A' for Active; 'I' for Inactive)
REMARK    1  A    between atoms: C3_4  and  N2_5 
REMARK    2  A    between atoms: N3_14  and  C9_15 
ROOT
HETATM    1  C1  UNL     1       4.154   2.242   7.140  1.00  0.00     0.311 C 
HETATM    2  N1  UNL     1       3.322   1.080   7.298  1.00  0.00     0.097 N 
HETATM    3  C2  UNL     1       2.384   0.899   6.209  1.00  0.00     0.305 C 
HETATM    4  C3  UNL     1       2.060  -0.578   6.154  1.00  0.00     0.214 C 
HETATM    5  C4  UNL     1       3.008  -1.229   7.120  1.00  0.00     0.077 C 
HETATM    6  C5  UNL     1       4.037  -0.150   7.331  1.00  0.00     0.172 C 
HETATM    7  C6  UNL     1       5.130  -0.220   6.232  1.00  0.00     0.123 C 
HETATM    8  C7  UNL     1       6.212  -0.923   6.782  1.00  0.00    -0.151 C 
HETATM    9  C8  UNL     1       7.175  -1.642   7.500  1.00  0.00     0.352 C 
HETATM   10  N3  UNL     1       6.703  -1.782   8.899  1.00  0.00     0.103 N 
HETATM   11  C15 UNL     1       5.286  -1.609   9.058  1.00  0.00     0.276 C 
HETATM   12  C16 UNL     1       4.620  -0.359   8.725  1.00  0.00     0.073 C 
ENDROOT
BRANCH   4  13
HETATM   13  N2  UNL     1       0.691  -0.861   6.508  1.00  0.00    -0.073 N 
ATOM     14  H23 UNL     1       0.224  -0.025   6.857  1.00  0.00     0.274 HD
ATOM     15  H22 UNL     1       0.125  -1.031   5.675  1.00  0.00     0.274 HD
ATOM     16  H21 UNL     1       0.608  -1.632   7.170  1.00  0.00     0.274 HD
ENDBRANCH   4  13
BRANCH  10  17
HETATM   17  C9  UNL     1       7.240  -2.905   9.559  1.00  0.00     0.224 C 
HETATM   18  C10 UNL     1       6.672  -4.232   9.170  1.00  0.00     0.036 C 
HETATM   19  C11 UNL     1       7.544  -5.346   9.739  1.00  0.00     0.002 C 
HETATM   20  C12 UNL     1       8.001  -5.059  11.137  1.00  0.00     0.000 C 
HETATM   21  C13 UNL     1       7.198  -3.991  11.825  1.00  0.00     0.002 C 
HETATM   22  C14 UNL     1       7.113  -2.711  11.044  1.00  0.00     0.036 C 
ENDBRANCH  10  17
TORSDOF 2
ENDMDL
