MODEL 1
REMARK VINA RESULT: -6.549792542      0.000      0.000
REMARK  0 active torsions:
REMARK  status: ('A' for Active; 'I' for Inactive)
ROOT
HETATM    1  O1  UNL     1      34.599   3.484  43.128  1.00  0.00    -0.245 OA
HETATM    2  C1  UNL     1      33.343   3.494  43.157  1.00  0.00     0.341 A 
HETATM    3  N1  UNL     1      32.659   2.537  42.502  1.00  0.00    -0.248 N 
ATOM      4  H1  UNL     1      33.142   1.804  41.982  1.00  0.00     0.192 HD
HETATM    5  N2  UNL     1      31.335   2.581  42.555  1.00  0.00    -0.258 N 
ATOM      6  H2  UNL     1      30.803   1.863  42.063  1.00  0.00     0.190 HD
HETATM    7  C2  UNL     1      30.664   3.528  43.227  1.00  0.00     0.328 A 
HETATM    8  O2  UNL     1      29.411   3.592  43.294  1.00  0.00    -0.261 OA
HETATM    9  C3  UNL     1      31.376   4.503  43.896  1.00  0.00     0.319 A 
HETATM   10  O3  UNL     1      30.778   5.418  44.546  1.00  0.00    -0.262 OA
HETATM   11  N3  UNL     1      32.723   4.470  43.849  1.00  0.00    -0.270 N 
ATOM     12  H3  UNL     1      33.270   5.180  44.336  1.00  0.00     0.174 HD
ENDROOT
TORSDOF 0
ENDMDL
MODEL 2
REMARK VINA RESULT: -6.295214720      1.066      3.017
REMARK  0 active torsions:
REMARK  status: ('A' for Active; 'I' for Inactive)
ROOT
HETATM    1  O1  UNL     1      29.309   3.577  43.208  1.00  0.00    -0.245 OA
HETATM    2  C1  UNL     1      30.563   3.500  43.198  1.00  0.00     0.341 A 
HETATM    3  N1  UNL     1      31.159   2.508  42.510  1.00  0.00    -0.248 N 
ATOM      4  H1  UNL     1      30.611   1.818  41.996  1.00  0.00     0.192 HD
HETATM    5  N2  UNL     1      32.484   2.459  42.524  1.00  0.00    -0.258 N 
ATOM      6  H2  UNL     1      32.950   1.714  42.007  1.00  0.00     0.190 HD
HETATM    7  C2  UNL     1      33.238   3.347  43.187  1.00  0.00     0.328 A 
HETATM    8  O2  UNL     1      34.495   3.324  43.216  1.00  0.00    -0.261 OA
HETATM    9  C3  UNL     1      32.616   4.360  43.888  1.00  0.00     0.319 A 
HETATM   10  O3  UNL     1      33.295   5.223  44.530  1.00  0.00    -0.262 OA
HETATM   11  N3  UNL     1      31.270   4.421  43.882  1.00  0.00    -0.270 N 
ATOM     12  H3  UNL     1      30.788   5.160  44.394  1.00  0.00     0.174 HD
ENDROOT
TORSDOF 0
ENDMDL
MODEL 3
REMARK VINA RESULT: -6.169003167      1.492      1.854
REMARK  0 active torsions:
REMARK  status: ('A' for Active; 'I' for Inactive)
ROOT
HETATM    1  O1  UNL     1      33.356   1.357  41.820  1.00  0.00    -0.245 OA
HETATM    2  C1  UNL     1      32.711   2.223  42.463  1.00  0.00     0.341 A 
HETATM    3  N1  UNL     1      31.365   2.179  42.464  1.00  0.00    -0.248 N 
ATOM      4  H1  UNL     1      30.860   1.455  41.954  1.00  0.00     0.192 HD
HETATM    5  N2  UNL     1      30.720   3.110  43.154  1.00  0.00    -0.258 N 
ATOM      6  H2  UNL     1      29.701   3.090  43.165  1.00  0.00     0.190 HD
HETATM    7  C2  UNL     1      31.349   4.076  43.837  1.00  0.00     0.328 A 
HETATM    8  O2  UNL     1      30.762   4.970  44.498  1.00  0.00    -0.261 OA
HETATM    9  C3  UNL     1      32.730   4.111  43.829  1.00  0.00     0.319 A 
HETATM   10  O3  UNL     1      33.364   5.011  44.465  1.00  0.00    -0.262 OA
HETATM   11  N3  UNL     1      33.397   3.170  43.131  1.00  0.00    -0.270 N 
ATOM     12  H3  UNL     1      34.417   3.176  43.110  1.00  0.00     0.174 HD
ENDROOT
TORSDOF 0
ENDMDL
MODEL 4
REMARK VINA RESULT: -5.913851345      1.091      3.094
REMARK  0 active torsions:
REMARK  status: ('A' for Active; 'I' for Inactive)
ROOT
HETATM    1  O1  UNL     1      30.669   4.935  44.524  1.00  0.00    -0.245 OA
HETATM    2  C1  UNL     1      31.336   4.102  43.862  1.00  0.00     0.341 A 
HETATM    3  N1  UNL     1      30.696   3.118  43.201  1.00  0.00    -0.248 N 
ATOM      4  H1  UNL     1      29.679   3.038  43.229  1.00  0.00     0.192 HD
HETATM    5  N2  UNL     1      31.434   2.258  42.513  1.00  0.00    -0.258 N 
ATOM      6  H2  UNL     1      30.963   1.507  42.008  1.00  0.00     0.190 HD
HETATM    7  C2  UNL     1      32.771   2.331  42.453  1.00  0.00     0.328 A 
HETATM    8  O2  UNL     1      33.493   1.529  41.809  1.00  0.00    -0.261 OA
HETATM    9  C3  UNL     1      33.416   3.344  43.134  1.00  0.00     0.319 A 
HETATM   10  O3  UNL     1      34.683   3.448  43.101  1.00  0.00    -0.262 OA
HETATM   11  N3  UNL     1      32.677   4.225  43.837  1.00  0.00    -0.270 N 
ATOM     12  H3  UNL     1      33.132   4.981  44.348  1.00  0.00     0.174 HD
ENDROOT
TORSDOF 0
ENDMDL
MODEL 5
REMARK VINA RESULT: -5.851316744      1.102      2.175
REMARK  0 active torsions:
REMARK  status: ('A' for Active; 'I' for Inactive)
ROOT
HETATM    1  O1  UNL     1      33.174   1.544  41.923  1.00  0.00    -0.245 OA
HETATM    2  C1  UNL     1      32.627   2.480  42.557  1.00  0.00     0.341 A 
HETATM    3  N1  UNL     1      33.396   3.377  43.205  1.00  0.00    -0.248 N 
ATOM      4  H1  UNL     1      34.414   3.309  43.190  1.00  0.00     0.192 HD
HETATM    5  N2  UNL     1      32.783   4.351  43.864  1.00  0.00    -0.258 N 
ATOM      6  H2  UNL     1      33.352   5.037  44.359  1.00  0.00     0.190 HD
HETATM    7  C2  UNL     1      31.449   4.473  43.906  1.00  0.00     0.328 A 
HETATM    8  O2  UNL     1      30.843   5.385  44.523  1.00  0.00    -0.261 OA
HETATM    9  C3  UNL     1      30.671   3.548  43.238  1.00  0.00     0.319 A 
HETATM   10  O3  UNL     1      29.403   3.629  43.254  1.00  0.00    -0.262 OA
HETATM   11  N3  UNL     1      31.282   2.553  42.565  1.00  0.00    -0.270 N 
ATOM     12  H3  UNL     1      30.728   1.858  42.064  1.00  0.00     0.174 HD
ENDROOT
TORSDOF 0
ENDMDL
