MODEL 1
REMARK VINA RESULT: -5.531401232      0.000      0.000
REMARK  1 active torsions:
REMARK  status: ('A' for Active; 'I' for Inactive)
REMARK    1  A    between atoms: N1_1  and  C1_4 
ROOT
HETATM    1  C1  UNL     1      33.043   2.679  42.253  1.00  0.00     0.172 C 
HETATM    2  N2  UNL     1      32.231   3.313  43.120  1.00  0.00    -0.290 N 
ATOM      3  H2  UNL     1      31.577   2.721  43.633  1.00  0.00     0.172 HD
HETATM    4  C2  UNL     1      32.173   4.649  43.397  1.00  0.00     0.329 C 
HETATM    5  O1  UNL     1      31.544   4.956  44.445  1.00  0.00    -0.246 OA
HETATM    6  N3  UNL     1      32.709   5.670  42.680  1.00  0.00    -0.260 N 
ATOM      7  H3  UNL     1      32.424   6.603  42.979  1.00  0.00     0.175 HD
HETATM    8  C3  UNL     1      33.559   5.640  41.632  1.00  0.00     0.331 C 
HETATM    9  O2  UNL     1      33.660   6.669  40.911  1.00  0.00    -0.246 OA
HETATM   10  N4  UNL     1      34.318   4.578  41.289  1.00  0.00    -0.272 N 
ATOM     11  H4  UNL     1      35.166   4.788  40.764  1.00  0.00     0.174 HD
HETATM   12  C4  UNL     1      34.092   3.259  41.557  1.00  0.00     0.293 C 
HETATM   13  O3  UNL     1      34.925   2.434  41.131  1.00  0.00    -0.264 OA
ENDROOT
BRANCH   1  14
HETATM   14  N1  UNL     1      32.836   1.422  42.047  1.00  0.00    -0.381 N 
ATOM     15  H12 UNL     1      32.108   1.181  41.374  1.00  0.00     0.157 HD
ATOM     16  H11 UNL     1      33.410   0.756  42.565  1.00  0.00     0.157 HD
ENDBRANCH   1  14
TORSDOF 1
ENDMDL
MODEL 2
REMARK VINA RESULT: -5.491663691      1.301      3.702
REMARK  1 active torsions:
REMARK  status: ('A' for Active; 'I' for Inactive)
REMARK    1  A    between atoms: N1_1  and  C1_4 
ROOT
HETATM    1  C1  UNL     1      32.449   4.806  43.315  1.00  0.00     0.172 C 
HETATM    2  N2  UNL     1      32.919   5.364  42.183  1.00  0.00    -0.290 N 
ATOM      3  H2  UNL     1      32.662   6.338  42.026  1.00  0.00     0.172 HD
HETATM    4  C2  UNL     1      33.697   4.787  41.219  1.00  0.00     0.329 C 
HETATM    5  O1  UNL     1      34.243   5.589  40.416  1.00  0.00    -0.246 OA
HETATM    6  N3  UNL     1      33.943   3.465  41.032  1.00  0.00    -0.260 N 
ATOM      7  H3  UNL     1      34.430   3.236  40.165  1.00  0.00     0.175 HD
HETATM    8  C3  UNL     1      33.642   2.408  41.815  1.00  0.00     0.331 C 
HETATM    9  O2  UNL     1      33.656   1.257  41.303  1.00  0.00    -0.246 OA
HETATM   10  N4  UNL     1      33.319   2.489  43.123  1.00  0.00    -0.272 N 
ATOM     11  H4  UNL     1      33.498   1.653  43.679  1.00  0.00     0.174 HD
HETATM   12  C4  UNL     1      32.784   3.550  43.795  1.00  0.00     0.293 C 
HETATM   13  O3  UNL     1      32.550   3.402  45.012  1.00  0.00    -0.264 OA
ENDROOT
BRANCH   1  14
HETATM   14  N1  UNL     1      31.616   5.494  44.021  1.00  0.00    -0.381 N 
ATOM     15  H12 UNL     1      31.760   6.503  44.045  1.00  0.00     0.157 HD
ATOM     16  H11 UNL     1      30.875   4.988  44.505  1.00  0.00     0.157 HD
ENDBRANCH   1  14
TORSDOF 1
ENDMDL
MODEL 3
REMARK VINA RESULT: -5.403907658      2.144      2.897
REMARK  1 active torsions:
REMARK  status: ('A' for Active; 'I' for Inactive)
REMARK    1  A    between atoms: N1_1  and  C1_4 
ROOT
HETATM    1  C1  UNL     1      32.805   2.685  42.375  1.00  0.00     0.172 C 
HETATM    2  N2  UNL     1      31.522   2.285  42.284  1.00  0.00    -0.290 N 
ATOM      3  H2  UNL     1      31.325   1.577  41.577  1.00  0.00     0.172 HD
HETATM    4  C2  UNL     1      30.452   2.710  43.020  1.00  0.00     0.329 C 
HETATM    5  O1  UNL     1      29.426   1.982  42.949  1.00  0.00    -0.246 OA
HETATM    6  N3  UNL     1      30.371   3.813  43.806  1.00  0.00    -0.260 N 
ATOM      7  H3  UNL     1      29.436   4.030  44.151  1.00  0.00     0.175 HD
HETATM    8  C3  UNL     1      31.338   4.669  44.202  1.00  0.00     0.331 C 
HETATM    9  O2  UNL     1      30.997   5.798  44.642  1.00  0.00    -0.246 OA
HETATM   10  N4  UNL     1      32.661   4.404  44.160  1.00  0.00    -0.272 N 
ATOM     11  H4  UNL     1      33.240   4.925  44.818  1.00  0.00     0.174 HD
HETATM   12  C4  UNL     1      33.320   3.528  43.347  1.00  0.00     0.293 C 
HETATM   13  O3  UNL     1      34.559   3.451  43.469  1.00  0.00    -0.264 OA
ENDROOT
BRANCH   1  14
HETATM   14  N1  UNL     1      33.633   2.250  41.487  1.00  0.00    -0.381 N 
ATOM     15  H12 UNL     1      34.144   2.953  40.953  1.00  0.00     0.157 HD
ATOM     16  H11 UNL     1      33.724   1.240  41.378  1.00  0.00     0.157 HD
ENDBRANCH   1  14
TORSDOF 1
ENDMDL
MODEL 4
REMARK VINA RESULT: -5.402916538      2.109      4.468
REMARK  1 active torsions:
REMARK  status: ('A' for Active; 'I' for Inactive)
REMARK    1  A    between atoms: N1_1  and  C1_4 
ROOT
HETATM    1  C1  UNL     1      32.289   4.598  43.094  1.00  0.00     0.172 C 
HETATM    2  N2  UNL     1      32.792   3.504  42.490  1.00  0.00    -0.290 N 
ATOM      3  H2  UNL     1      33.722   3.607  42.083  1.00  0.00     0.172 HD
HETATM    4  C2  UNL     1      32.213   2.274  42.355  1.00  0.00     0.329 C 
HETATM    5  O1  UNL     1      32.993   1.345  42.016  1.00  0.00    -0.246 OA
HETATM    6  N3  UNL     1      30.909   1.946  42.542  1.00  0.00    -0.260 N 
ATOM      7  H3  UNL     1      30.655   1.003  42.245  1.00  0.00     0.175 HD
HETATM    8  C3  UNL     1      29.897   2.674  43.058  1.00  0.00     0.331 C 
HETATM    9  O2  UNL     1      28.714   2.306  42.830  1.00  0.00    -0.246 OA
HETATM   10  N4  UNL     1      30.056   3.784  43.810  1.00  0.00    -0.272 N 
ATOM     11  H4  UNL     1      29.289   4.006  44.444  1.00  0.00     0.174 HD
HETATM   12  C4  UNL     1      31.114   4.646  43.827  1.00  0.00     0.293 C 
HETATM   13  O3  UNL     1      31.046   5.625  44.597  1.00  0.00    -0.264 OA
ENDROOT
BRANCH   1  14
HETATM   14  N1  UNL     1      32.952   5.700  42.987  1.00  0.00    -0.381 N 
ATOM     15  H12 UNL     1      32.448   6.560  43.202  1.00  0.00     0.157 HD
ATOM     16  H11 UNL     1      33.928   5.639  42.698  1.00  0.00     0.157 HD
ENDBRANCH   1  14
TORSDOF 1
ENDMDL
MODEL 5
REMARK VINA RESULT: -5.372642236      1.175      3.383
REMARK  1 active torsions:
REMARK  status: ('A' for Active; 'I' for Inactive)
REMARK    1  A    between atoms: N1_1  and  C1_4 
ROOT
HETATM    1  C1  UNL     1      33.711   4.603  40.912  1.00  0.00     0.172 C 
HETATM    2  N2  UNL     1      33.570   3.276  41.090  1.00  0.00    -0.290 N 
ATOM      3  H2  UNL     1      33.917   2.685  40.335  1.00  0.00     0.172 HD
HETATM    4  C2  UNL     1      33.019   2.623  42.156  1.00  0.00     0.329 C 
HETATM    5  O1  UNL     1      33.268   1.389  42.220  1.00  0.00    -0.246 OA
HETATM    6  N3  UNL     1      32.245   3.146  43.141  1.00  0.00    -0.260 N 
ATOM      7  H3  UNL     1      31.813   2.460  43.761  1.00  0.00     0.175 HD
HETATM    8  C3  UNL     1      31.957   4.434  43.425  1.00  0.00     0.331 C 
HETATM    9  O2  UNL     1      30.963   4.680  44.158  1.00  0.00    -0.246 OA
HETATM   10  N4  UNL     1      32.661   5.495  42.976  1.00  0.00    -0.272 N 
ATOM     11  H4  UNL     1      32.605   6.339  43.545  1.00  0.00     0.174 HD
HETATM   12  C4  UNL     1      33.438   5.579  41.858  1.00  0.00     0.293 C 
HETATM   13  O3  UNL     1      33.994   6.671  41.624  1.00  0.00    -0.264 OA
ENDROOT
BRANCH   1  14
HETATM   14  N1  UNL     1      34.138   5.012  39.764  1.00  0.00    -0.381 N 
ATOM     15  H12 UNL     1      33.951   4.408  38.964  1.00  0.00     0.157 HD
ATOM     16  H11 UNL     1      34.629   5.905  39.733  1.00  0.00     0.157 HD
ENDBRANCH   1  14
TORSDOF 1
ENDMDL
