MODEL 1
REMARK VINA RESULT: -6.776933933      0.000      0.000
REMARK  4 active torsions:
REMARK  status: ('A' for Active; 'I' for Inactive)
REMARK    1  A    between atoms: N1_1  and  C1_5 
REMARK    2  A    between atoms: C1_5  and  N2_6 
REMARK    3  A    between atoms: C1_5  and  C12_26 
REMARK       I    between atoms: N2_6  and  C2_8 
REMARK       I    between atoms: C2_8  and  N3_10 
REMARK       I    between atoms: C12_26  and  N6_28 
REMARK    4  A    between atoms: C16_32  and  C17_33 
ROOT
HETATM    1  N2  UNL     1     -30.253   2.084  24.865  1.00  0.00    -0.307 N 
ATOM      2  H2  UNL     1     -29.324   2.333  25.203  1.00  0.00     0.166 HD
HETATM    3  C2  UNL     1     -30.682   0.737  24.978  1.00  0.00     0.320 C 
HETATM    4  O1  UNL     1     -31.829   0.455  24.554  1.00  0.00    -0.247 OA
HETATM    5  N3  UNL     1     -29.898  -0.302  25.536  1.00  0.00    -0.334 N 
HETATM    6  C3  UNL     1     -30.387  -1.636  25.622  1.00  0.00     0.132 C 
HETATM    7  C4  UNL     1     -29.332  -2.711  25.645  1.00  0.00     0.089 C 
HETATM    8  C5  UNL     1     -28.122  -2.368  26.434  1.00  0.00     0.289 C 
HETATM    9  C6  UNL     1     -28.294  -1.040  27.127  1.00  0.00     0.089 C 
HETATM   10  C7  UNL     1     -28.551  -0.002  26.039  1.00  0.00     0.132 C 
HETATM   11  N4  UNL     1     -27.993  -3.365  27.509  1.00  0.00    -0.040 N 
ATOM     12  H41 UNL     1     -28.840  -3.405  28.076  1.00  0.00     0.280 HD
ATOM     13  H42 UNL     1     -27.333  -3.053  28.222  1.00  0.00     0.280 HD
HETATM   14  C8  UNL     1     -27.642  -4.658  27.018  1.00  0.00     0.235 C 
HETATM   15  C9  UNL     1     -26.150  -4.824  26.816  1.00  0.00     0.029 C 
HETATM   16  C10 UNL     1     -25.390  -3.586  27.245  1.00  0.00     0.029 C 
HETATM   17  C11 UNL     1     -25.724  -2.370  26.450  1.00  0.00     0.235 C 
HETATM   18  N5  UNL     1     -26.911  -2.454  25.665  1.00  0.00    -0.040 N 
ATOM     19  H51 UNL     1     -26.904  -1.750  24.927  1.00  0.00     0.280 HD
ATOM     20  H52 UNL     1     -26.907  -3.300  25.095  1.00  0.00     0.280 HD
ENDROOT
BRANCH   1  21
HETATM   21  C1  UNL     1     -31.084   3.120  24.289  1.00  0.00     0.378 C 
BRANCH  21  22
HETATM   22  N1  UNL     1     -30.384   4.028  23.440  1.00  0.00    -0.049 N 
ATOM     23  H13 UNL     1     -30.627   4.992  23.670  1.00  0.00     0.277 HD
ATOM     24  H12 UNL     1     -29.391   4.040  23.672  1.00  0.00     0.277 HD
ATOM     25  H11 UNL     1     -30.515   3.855  22.443  1.00  0.00     0.277 HD
ENDBRANCH  21  22
BRANCH  21  26
HETATM   26  C12 UNL     1     -31.840   3.852  25.351  1.00  0.00     0.271 C 
HETATM   27  O2  UNL     1     -31.361   3.876  26.506  1.00  0.00    -0.269 OA
HETATM   28  N6  UNL     1     -33.062   4.506  25.088  1.00  0.00    -0.334 N 
HETATM   29  C13 UNL     1     -33.867   5.236  26.035  1.00  0.00     0.127 C 
HETATM   30  C16 UNL     1     -33.745   4.568  23.818  1.00  0.00     0.188 C 
HETATM   31  C14 UNL     1     -35.279   5.011  25.560  1.00  0.00     0.022 C 
HETATM   32  C15 UNL     1     -35.192   4.318  24.230  1.00  0.00     0.038 C 
BRANCH  30  33
HETATM   33  C17 UNL     1     -33.597   5.876  23.157  1.00  0.00     0.196 C 
HETATM   34  O3  UNL     1     -34.563   6.318  22.499  1.00  0.00    -0.646 OA
HETATM   35  O4  UNL     1     -32.441   6.603  23.247  1.00  0.00    -0.646 OA
ENDBRANCH  30  33
ENDBRANCH  21  26
ENDBRANCH   1  21
TORSDOF 4
ENDMDL
MODEL 2
REMARK VINA RESULT: -6.674468329      1.931      3.265
REMARK  4 active torsions:
REMARK  status: ('A' for Active; 'I' for Inactive)
REMARK    1  A    between atoms: N1_1  and  C1_5 
REMARK    2  A    between atoms: C1_5  and  N2_6 
REMARK    3  A    between atoms: C1_5  and  C12_26 
REMARK       I    between atoms: N2_6  and  C2_8 
REMARK       I    between atoms: C2_8  and  N3_10 
REMARK       I    between atoms: C12_26  and  N6_28 
REMARK    4  A    between atoms: C16_32  and  C17_33 
ROOT
HETATM    1  N2  UNL     1     -32.620   1.907  25.436  1.00  0.00    -0.307 N 
ATOM      2  H2  UNL     1     -32.619   0.971  25.032  1.00  0.00     0.166 HD
HETATM    3  C2  UNL     1     -31.413   2.417  25.979  1.00  0.00     0.320 C 
HETATM    4  O1  UNL     1     -31.439   3.571  26.472  1.00  0.00    -0.247 OA
HETATM    5  N3  UNL     1     -30.188   1.707  25.998  1.00  0.00    -0.334 N 
HETATM    6  C3  UNL     1     -29.009   2.276  26.558  1.00  0.00     0.132 C 
HETATM    7  C4  UNL     1     -27.993   1.288  27.067  1.00  0.00     0.089 C 
HETATM    8  C5  UNL     1     -27.840   0.074  26.226  1.00  0.00     0.289 C 
HETATM    9  C6  UNL     1     -28.681   0.179  24.978  1.00  0.00     0.089 C 
HETATM   10  C7  UNL     1     -30.127   0.354  25.431  1.00  0.00     0.132 C 
HETATM   11  N4  UNL     1     -26.444   0.024  25.763  1.00  0.00    -0.040 N 
ATOM     12  H41 UNL     1     -26.188   0.882  25.275  1.00  0.00     0.280 HD
ATOM     13  H42 UNL     1     -26.335  -0.640  24.996  1.00  0.00     0.280 HD
HETATM   14  C8  UNL     1     -25.527  -0.258  26.819  1.00  0.00     0.235 C 
HETATM   15  C9  UNL     1     -25.388  -1.741  27.095  1.00  0.00     0.029 C 
HETATM   16  C10 UNL     1     -26.219  -2.565  26.133  1.00  0.00     0.029 C 
HETATM   17  C11 UNL     1     -27.684  -2.319  26.243  1.00  0.00     0.235 C 
HETATM   18  N5  UNL     1     -28.060  -1.143  26.956  1.00  0.00    -0.040 N 
ATOM     19  H51 UNL     1     -29.030  -1.206  27.266  1.00  0.00     0.280 HD
ATOM     20  H52 UNL     1     -27.593  -1.108  27.863  1.00  0.00     0.280 HD
ENDROOT
BRANCH   1  21
HETATM   21  C1  UNL     1     -33.853   2.663  25.434  1.00  0.00     0.378 C 
BRANCH  21  22
HETATM   22  N1  UNL     1     -34.884   2.107  26.250  1.00  0.00    -0.049 N 
ATOM     23  H13 UNL     1     -35.109   1.160  25.945  1.00  0.00     0.277 HD
ATOM     24  H12 UNL     1     -34.530   1.908  27.186  1.00  0.00     0.277 HD
ATOM     25  H11 UNL     1     -35.729   2.675  26.303  1.00  0.00     0.277 HD
ENDBRANCH  21  22
BRANCH  21  26
HETATM   26  C12 UNL     1     -34.339   2.892  24.038  1.00  0.00     0.271 C 
HETATM   27  O2  UNL     1     -35.188   2.102  23.573  1.00  0.00    -0.269 OA
HETATM   28  N6  UNL     1     -33.869   3.960  23.245  1.00  0.00    -0.334 N 
HETATM   29  C13 UNL     1     -34.269   4.268  21.895  1.00  0.00     0.127 C 
HETATM   30  C16 UNL     1     -32.894   4.951  23.632  1.00  0.00     0.188 C 
HETATM   31  C14 UNL     1     -33.029   4.857  21.275  1.00  0.00     0.022 C 
HETATM   32  C15 UNL     1     -32.028   5.041  22.379  1.00  0.00     0.038 C 
BRANCH  30  33
HETATM   33  C17 UNL     1     -33.504   6.253  23.955  1.00  0.00     0.196 C 
HETATM   34  O3  UNL     1     -34.504   6.267  24.702  1.00  0.00    -0.646 OA
HETATM   35  O4  UNL     1     -33.003   7.426  23.459  1.00  0.00    -0.646 OA
ENDBRANCH  30  33
ENDBRANCH  21  26
ENDBRANCH   1  21
TORSDOF 4
ENDMDL
MODEL 3
REMARK VINA RESULT: -6.667165873      1.568      2.571
REMARK  4 active torsions:
REMARK  status: ('A' for Active; 'I' for Inactive)
REMARK    1  A    between atoms: N1_1  and  C1_5 
REMARK    2  A    between atoms: C1_5  and  N2_6 
REMARK    3  A    between atoms: C1_5  and  C12_26 
REMARK       I    between atoms: N2_6  and  C2_8 
REMARK       I    between atoms: C2_8  and  N3_10 
REMARK       I    between atoms: C12_26  and  N6_28 
REMARK    4  A    between atoms: C16_32  and  C17_33 
ROOT
HETATM    1  N2  UNL     1     -30.948   2.251  25.449  1.00  0.00    -0.307 N 
ATOM      2  H2  UNL     1     -31.285   1.399  25.003  1.00  0.00     0.166 HD
HETATM    3  C2  UNL     1     -29.674   2.235  26.073  1.00  0.00     0.320 C 
HETATM    4  O1  UNL     1     -29.280   3.295  26.617  1.00  0.00    -0.247 OA
HETATM    5  N3  UNL     1     -28.825   1.102  26.119  1.00  0.00    -0.334 N 
HETATM    6  C3  UNL     1     -27.556   1.151  26.761  1.00  0.00     0.132 C 
HETATM    7  C4  UNL     1     -27.039  -0.168  27.273  1.00  0.00     0.089 C 
HETATM    8  C5  UNL     1     -27.318  -1.324  26.384  1.00  0.00     0.289 C 
HETATM    9  C6  UNL     1     -27.971  -0.869  25.103  1.00  0.00     0.089 C 
HETATM   10  C7  UNL     1     -29.261  -0.154  25.492  1.00  0.00     0.132 C 
HETATM   11  N4  UNL     1     -26.025  -1.906  25.988  1.00  0.00    -0.040 N 
ATOM     12  H41 UNL     1     -25.426  -1.205  25.553  1.00  0.00     0.280 HD
ATOM     13  H42 UNL     1     -26.135  -2.541  25.197  1.00  0.00     0.280 HD
HETATM   14  C8  UNL     1     -25.358  -2.549  27.073  1.00  0.00     0.235 C 
HETATM   15  C9  UNL     1     -25.825  -3.974  27.286  1.00  0.00     0.029 C 
HETATM   16  C10 UNL     1     -26.849  -4.385  26.248  1.00  0.00     0.029 C 
HETATM   17  C11 UNL     1     -28.107  -3.588  26.297  1.00  0.00     0.235 C 
HETATM   18  N5  UNL     1     -28.040  -2.376  27.045  1.00  0.00    -0.040 N 
ATOM     19  H51 UNL     1     -28.975  -2.062  27.305  1.00  0.00     0.280 HD
ATOM     20  H52 UNL     1     -27.654  -2.547  27.974  1.00  0.00     0.280 HD
ENDROOT
BRANCH   1  21
HETATM   21  C1  UNL     1     -31.786   3.429  25.422  1.00  0.00     0.378 C 
BRANCH  21  22
HETATM   22  N1  UNL     1     -31.978   4.042  26.697  1.00  0.00    -0.049 N 
ATOM     23  H13 UNL     1     -32.115   3.331  27.417  1.00  0.00     0.277 HD
ATOM     24  H12 UNL     1     -31.108   4.458  27.028  1.00  0.00     0.277 HD
ATOM     25  H11 UNL     1     -32.734   4.726  26.724  1.00  0.00     0.277 HD
ENDBRANCH  21  22
BRANCH  21  26
HETATM   26  C12 UNL     1     -33.097   3.139  24.763  1.00  0.00     0.271 C 
HETATM   27  O2  UNL     1     -33.668   2.061  25.037  1.00  0.00    -0.269 OA
HETATM   28  N6  UNL     1     -33.696   4.036  23.854  1.00  0.00    -0.334 N 
HETATM   29  C13 UNL     1     -34.950   3.853  23.167  1.00  0.00     0.127 C 
HETATM   30  C16 UNL     1     -33.167   5.311  23.434  1.00  0.00     0.188 C 
HETATM   31  C14 UNL     1     -34.745   4.550  21.848  1.00  0.00     0.022 C 
HETATM   32  C15 UNL     1     -33.434   5.278  21.932  1.00  0.00     0.038 C 
BRANCH  30  33
HETATM   33  C17 UNL     1     -33.849   6.449  24.072  1.00  0.00     0.196 C 
HETATM   34  O3  UNL     1     -33.730   7.577  23.552  1.00  0.00    -0.646 OA
HETATM   35  O4  UNL     1     -34.600   6.295  25.207  1.00  0.00    -0.646 OA
ENDBRANCH  30  33
ENDBRANCH  21  26
ENDBRANCH   1  21
TORSDOF 4
ENDMDL
MODEL 4
REMARK VINA RESULT: -6.652839217      2.832      9.304
REMARK  4 active torsions:
REMARK  status: ('A' for Active; 'I' for Inactive)
REMARK    1  A    between atoms: N1_1  and  C1_5 
REMARK    2  A    between atoms: C1_5  and  N2_6 
REMARK    3  A    between atoms: C1_5  and  C12_26 
REMARK       I    between atoms: N2_6  and  C2_8 
REMARK       I    between atoms: C2_8  and  N3_10 
REMARK       I    between atoms: C12_26  and  N6_28 
REMARK    4  A    between atoms: C16_32  and  C17_33 
ROOT
HETATM    1  N2  UNL     1     -28.541   0.399  24.387  1.00  0.00    -0.307 N 
ATOM      2  H2  UNL     1     -28.763   0.522  23.400  1.00  0.00     0.166 HD
HETATM    3  C2  UNL     1     -29.329   1.077  25.352  1.00  0.00     0.320 C 
HETATM    4  O1  UNL     1     -29.036   0.911  26.562  1.00  0.00    -0.247 OA
HETATM    5  N3  UNL     1     -30.419   1.924  25.036  1.00  0.00    -0.334 N 
HETATM    6  C3  UNL     1     -31.172   2.575  26.053  1.00  0.00     0.132 C 
HETATM    7  C4  UNL     1     -31.853   3.852  25.635  1.00  0.00     0.089 C 
HETATM    8  C5  UNL     1     -32.426   3.824  24.265  1.00  0.00     0.289 C 
HETATM    9  C6  UNL     1     -32.276   2.455  23.651  1.00  0.00     0.089 C 
HETATM   10  C7  UNL     1     -30.784   2.138  23.629  1.00  0.00     0.132 C 
HETATM   11  N4  UNL     1     -33.875   4.054  24.381  1.00  0.00    -0.040 N 
ATOM     12  H41 UNL     1     -34.305   3.373  25.006  1.00  0.00     0.280 HD
ATOM     13  H42 UNL     1     -34.356   3.808  23.515  1.00  0.00     0.280 HD
HETATM   14  C8  UNL     1     -34.188   5.387  24.780  1.00  0.00     0.235 C 
HETATM   15  C9  UNL     1     -34.225   6.355  23.616  1.00  0.00     0.029 C 
HETATM   16  C10 UNL     1     -33.976   5.649  22.299  1.00  0.00     0.029 C 
HETATM   17  C11 UNL     1     -32.628   5.023  22.197  1.00  0.00     0.235 C 
HETATM   18  N5  UNL     1     -31.922   4.878  23.428  1.00  0.00    -0.040 N 
ATOM     19  H51 UNL     1     -30.924   4.755  23.257  1.00  0.00     0.280 HD
ATOM     20  H52 UNL     1     -31.901   5.761  23.937  1.00  0.00     0.280 HD
ENDROOT
BRANCH   1  21
HETATM   21  C1  UNL     1     -27.435  -0.460  24.749  1.00  0.00     0.378 C 
BRANCH  21  22
HETATM   22  N1  UNL     1     -26.185  -0.080  24.174  1.00  0.00    -0.049 N 
ATOM     23  H13 UNL     1     -26.147  -0.354  23.192  1.00  0.00     0.277 HD
ATOM     24  H12 UNL     1     -26.132   0.933  24.074  1.00  0.00     0.277 HD
ATOM     25  H11 UNL     1     -25.369  -0.432  24.675  1.00  0.00     0.277 HD
ENDBRANCH  21  22
BRANCH  21  26
HETATM   26  C12 UNL     1     -27.749  -1.892  24.453  1.00  0.00     0.271 C 
HETATM   27  O2  UNL     1     -28.160  -2.180  23.308  1.00  0.00    -0.269 OA
HETATM   28  N6  UNL     1     -27.597  -2.909  25.418  1.00  0.00    -0.334 N 
HETATM   29  C13 UNL     1     -27.871  -4.313  25.237  1.00  0.00     0.127 C 
HETATM   30  C16 UNL     1     -27.139  -2.741  26.777  1.00  0.00     0.188 C 
HETATM   31  C14 UNL     1     -28.339  -4.769  26.594  1.00  0.00     0.022 C 
HETATM   32  C15 UNL     1     -28.114  -3.628  27.545  1.00  0.00     0.038 C 
BRANCH  30  33
HETATM   33  C17 UNL     1     -25.749  -3.186  26.967  1.00  0.00     0.196 C 
HETATM   34  O3  UNL     1     -24.850  -2.606  26.323  1.00  0.00    -0.646 OA
HETATM   35  O4  UNL     1     -25.428  -4.205  27.823  1.00  0.00    -0.646 OA
ENDBRANCH  30  33
ENDBRANCH  21  26
ENDBRANCH   1  21
TORSDOF 4
ENDMDL
MODEL 5
REMARK VINA RESULT: -6.632245184      3.052      3.951
REMARK  4 active torsions:
REMARK  status: ('A' for Active; 'I' for Inactive)
REMARK    1  A    between atoms: N1_1  and  C1_5 
REMARK    2  A    between atoms: C1_5  and  N2_6 
REMARK    3  A    between atoms: C1_5  and  C12_26 
REMARK       I    between atoms: N2_6  and  C2_8 
REMARK       I    between atoms: C2_8  and  N3_10 
REMARK       I    between atoms: C12_26  and  N6_28 
REMARK    4  A    between atoms: C16_32  and  C17_33 
ROOT
HETATM    1  N2  UNL     1     -31.503   1.230  25.480  1.00  0.00    -0.307 N 
ATOM      2  H2  UNL     1     -31.190   2.184  25.300  1.00  0.00     0.166 HD
HETATM    3  C2  UNL     1     -30.723   0.406  26.330  1.00  0.00     0.320 C 
HETATM    4  O1  UNL     1     -31.127  -0.764  26.537  1.00  0.00    -0.247 OA
HETATM    5  N3  UNL     1     -29.522   0.821  26.957  1.00  0.00    -0.334 N 
HETATM    6  C3  UNL     1     -28.785  -0.055  27.802  1.00  0.00     0.132 C 
HETATM    7  C4  UNL     1     -27.311   0.237  27.907  1.00  0.00     0.089 C 
HETATM    8  C5  UNL     1     -26.972   1.682  27.949  1.00  0.00     0.289 C 
HETATM    9  C6  UNL     1     -28.223   2.524  27.986  1.00  0.00     0.089 C 
HETATM   10  C7  UNL     1     -29.024   2.185  26.733  1.00  0.00     0.132 C 
HETATM   11  N4  UNL     1     -26.278   1.942  29.221  1.00  0.00    -0.040 N 
ATOM     12  H41 UNL     1     -26.844   1.643  30.015  1.00  0.00     0.280 HD
ATOM     13  H42 UNL     1     -26.235   2.942  29.418  1.00  0.00     0.280 HD
HETATM   14  C8  UNL     1     -24.979   1.355  29.266  1.00  0.00     0.235 C 
HETATM   15  C9  UNL     1     -23.919   2.224  28.621  1.00  0.00     0.029 C 
HETATM   16  C10 UNL     1     -24.498   3.539  28.138  1.00  0.00     0.029 C 
HETATM   17  C11 UNL     1     -25.529   3.386  27.073  1.00  0.00     0.235 C 
HETATM   18  N5  UNL     1     -26.058   2.072  26.911  1.00  0.00    -0.040 N 
ATOM     19  H51 UNL     1     -26.491   1.969  25.994  1.00  0.00     0.280 HD
ATOM     20  H52 UNL     1     -25.305   1.389  26.822  1.00  0.00     0.280 HD
ENDROOT
BRANCH   1  21
HETATM   21  C1  UNL     1     -32.726   0.770  24.858  1.00  0.00     0.378 C 
BRANCH  21  22
HETATM   22  N1  UNL     1     -32.737   0.881  23.435  1.00  0.00    -0.049 N 
ATOM     23  H13 UNL     1     -33.660   1.165  23.107  1.00  0.00     0.277 HD
ATOM     24  H12 UNL     1     -32.190   1.687  23.135  1.00  0.00     0.277 HD
ATOM     25  H11 UNL     1     -32.429   0.040  22.947  1.00  0.00     0.277 HD
ENDBRANCH  21  22
BRANCH  21  26
HETATM   26  C12 UNL     1     -33.918   1.444  25.458  1.00  0.00     0.271 C 
HETATM   27  O2  UNL     1     -34.603   0.803  26.285  1.00  0.00    -0.269 OA
HETATM   28  N6  UNL     1     -34.285   2.763  25.120  1.00  0.00    -0.334 N 
HETATM   29  C13 UNL     1     -35.410   3.501  25.638  1.00  0.00     0.127 C 
HETATM   30  C16 UNL     1     -33.606   3.630  24.187  1.00  0.00     0.188 C 
HETATM   31  C14 UNL     1     -35.826   4.381  24.488  1.00  0.00     0.022 C 
HETATM   32  C15 UNL     1     -34.776   4.243  23.423  1.00  0.00     0.038 C 
BRANCH  30  33
HETATM   33  C17 UNL     1     -32.803   4.668  24.856  1.00  0.00     0.196 C 
HETATM   34  O3  UNL     1     -32.864   5.835  24.418  1.00  0.00    -0.646 OA
HETATM   35  O4  UNL     1     -32.006   4.382  25.931  1.00  0.00    -0.646 OA
ENDBRANCH  30  33
ENDBRANCH  21  26
ENDBRANCH   1  21
TORSDOF 4
ENDMDL
