MODEL 1
REMARK VINA RESULT: -7.535829812      0.000      0.000
REMARK  4 active torsions:
REMARK  status: ('A' for Active; 'I' for Inactive)
REMARK    1  A    between atoms: C6_10  and  N3_11 
REMARK       I    between atoms: N3_11  and  C7_13 
REMARK    2  A    between atoms: C7_13  and  C8_15 
REMARK    3  A    between atoms: C8_15  and  C9_16 
REMARK    4  A    between atoms: C8_15  and  N4_18 
ROOT
HETATM    1  C1  UNL     1     -27.838  -1.452  27.443  1.00  0.00     0.018 C 
HETATM    2  C2  UNL     1     -27.750  -0.256  27.381  1.00  0.00    -0.072 C 
HETATM    3  C3  UNL     1     -27.647   1.173  27.333  1.00  0.00     0.086 A 
HETATM    4  C4  UNL     1     -26.522   1.883  27.682  1.00  0.00     0.044 A 
HETATM    5  C5  UNL     1     -25.216   1.313  28.168  1.00  0.00     0.071 C 
HETATM    6  N1  UNL     1     -26.826   3.179  27.501  1.00  0.00    -0.302 N 
ATOM      7  H1  UNL     1     -26.197   3.962  27.674  1.00  0.00     0.186 HD
HETATM    8  N2  UNL     1     -28.085   3.280  27.058  1.00  0.00    -0.284 N 
ATOM      9  H2  UNL     1     -28.555   4.161  26.844  1.00  0.00     0.188 HD
HETATM   10  C6  UNL     1     -28.644   2.074  26.934  1.00  0.00     0.143 A 
ENDROOT
BRANCH  10  11
HETATM   11  N3  UNL     1     -29.793   1.677  26.559  1.00  0.00    -0.309 N 
HETATM   12  C7  UNL     1     -30.175   1.243  25.277  1.00  0.00     0.257 C 
HETATM   13  O1  UNL     1     -29.302   0.833  24.483  1.00  0.00    -0.271 OA
ATOM     14  H3  UNL     1     -30.523   1.673  27.271  1.00  0.00     0.170 HD
BRANCH  12  15
HETATM   15  C8  UNL     1     -31.586   1.261  24.848  1.00  0.00     0.314 C 
BRANCH  15  16
HETATM   16  C9  UNL     1     -32.528   1.285  26.025  1.00  0.00     0.041 C 
HETATM   17  C10 UNL     1     -32.772  -0.126  26.577  1.00  0.00     0.007 C 
ENDBRANCH  15  16
BRANCH  15  18
HETATM   18  N4  UNL     1     -31.849   2.291  23.865  1.00  0.00     0.105 N 
HETATM   19  C11 UNL     1     -32.960   3.110  24.144  1.00  0.00     0.292 C 
HETATM   20  C12 UNL     1     -32.534   4.332  24.929  1.00  0.00     0.144 C 
HETATM   21  N5  UNL     1     -32.674   5.555  24.193  1.00  0.00    -0.419 N 
HETATM   22  C13 UNL     1     -33.976   6.118  24.182  1.00  0.00     0.115 C 
ATOM     23  H5  UNL     1     -31.889   5.992  23.710  1.00  0.00     0.153 HD
HETATM   24  C14 UNL     1     -34.051   7.058  22.969  1.00  0.00     0.046 C 
HETATM   25  C15 UNL     1     -34.777   6.393  21.819  1.00  0.00     0.234 C 
HETATM   26  N6  UNL     1     -33.931   5.487  21.071  1.00  0.00    -0.073 N 
HETATM   27  C16 UNL     1     -34.738   4.411  20.516  1.00  0.00     0.259 C 
ATOM     28  H62 UNL     1     -33.389   5.970  20.355  1.00  0.00     0.277 HD
ATOM     29  H61 UNL     1     -33.155   5.136  21.631  1.00  0.00     0.277 HD
HETATM   30  C17 UNL     1     -33.932   3.258  20.030  1.00  0.00     0.259 C 
HETATM   31  N7  UNL     1     -32.683   3.051  20.717  1.00  0.00    -0.072 N 
HETATM   32  C18 UNL     1     -32.853   1.906  21.602  1.00  0.00     0.262 C 
ATOM     33  H72 UNL     1     -31.892   2.947  20.081  1.00  0.00     0.277 HD
ATOM     34  H71 UNL     1     -32.355   3.885  21.204  1.00  0.00     0.277 HD
HETATM   35  C19 UNL     1     -31.758   1.715  22.574  1.00  0.00     0.301 C 
ENDBRANCH  15  18
ENDBRANCH  12  15
ENDBRANCH  10  11
TORSDOF 4
ENDMDL
MODEL 2
REMARK VINA RESULT: -7.452667421      2.834      7.326
REMARK  4 active torsions:
REMARK  status: ('A' for Active; 'I' for Inactive)
REMARK    1  A    between atoms: C6_10  and  N3_11 
REMARK       I    between atoms: N3_11  and  C7_13 
REMARK    2  A    between atoms: C7_13  and  C8_15 
REMARK    3  A    between atoms: C8_15  and  C9_16 
REMARK    4  A    between atoms: C8_15  and  N4_18 
ROOT
HETATM    1  C1  UNL     1     -30.829  -1.858  28.154  1.00  0.00     0.018 C 
HETATM    2  C2  UNL     1     -31.905  -1.450  27.811  1.00  0.00    -0.072 C 
HETATM    3  C3  UNL     1     -33.193  -0.985  27.386  1.00  0.00     0.086 A 
HETATM    4  C4  UNL     1     -34.389  -1.495  27.835  1.00  0.00     0.044 A 
HETATM    5  C5  UNL     1     -34.574  -2.608  28.831  1.00  0.00     0.071 C 
HETATM    6  N1  UNL     1     -35.351  -0.799  27.206  1.00  0.00    -0.302 N 
ATOM      7  H1  UNL     1     -36.354  -0.939  27.325  1.00  0.00     0.186 HD
HETATM    8  N2  UNL     1     -34.786   0.107  26.399  1.00  0.00    -0.284 N 
ATOM      9  H2  UNL     1     -35.303   0.760  25.810  1.00  0.00     0.188 HD
HETATM   10  C6  UNL     1     -33.454   0.041  26.468  1.00  0.00     0.143 A 
ENDROOT
BRANCH  10  11
HETATM   11  N3  UNL     1     -32.516   0.683  25.898  1.00  0.00    -0.309 N 
HETATM   12  C7  UNL     1     -32.523   2.029  25.490  1.00  0.00     0.257 C 
HETATM   13  O1  UNL     1     -33.325   2.827  26.019  1.00  0.00    -0.271 OA
ATOM     14  H3  UNL     1     -31.659   0.162  25.715  1.00  0.00     0.170 HD
BRANCH  12  15
HETATM   15  C8  UNL     1     -31.600   2.522  24.451  1.00  0.00     0.314 C 
BRANCH  15  16
HETATM   16  C9  UNL     1     -31.958   3.917  24.003  1.00  0.00     0.041 C 
HETATM   17  C10 UNL     1     -31.267   4.275  22.679  1.00  0.00     0.007 C 
ENDBRANCH  15  16
BRANCH  15  18
HETATM   18  N4  UNL     1     -30.211   2.367  24.828  1.00  0.00     0.105 N 
HETATM   19  C11 UNL     1     -29.748   1.038  24.862  1.00  0.00     0.292 C 
HETATM   20  C12 UNL     1     -29.158   0.648  23.524  1.00  0.00     0.144 C 
HETATM   21  N5  UNL     1     -27.741   0.425  23.572  1.00  0.00    -0.419 N 
HETATM   22  C13 UNL     1     -27.337  -0.854  24.031  1.00  0.00     0.115 C 
ATOM     23  H5  UNL     1     -27.069   1.140  23.294  1.00  0.00     0.153 HD
HETATM   24  C14 UNL     1     -25.883  -0.724  24.510  1.00  0.00     0.046 C 
HETATM   25  C15 UNL     1     -25.824  -0.620  26.019  1.00  0.00     0.234 C 
HETATM   26  N6  UNL     1     -26.109   0.715  26.501  1.00  0.00    -0.073 N 
HETATM   27  C16 UNL     1     -26.726   0.639  27.816  1.00  0.00     0.259 C 
ATOM     28  H62 UNL     1     -25.280   1.310  26.499  1.00  0.00     0.277 HD
ATOM     29  H61 UNL     1     -26.673   1.250  25.841  1.00  0.00     0.277 HD
HETATM   30  C17 UNL     1     -27.364   1.913  28.245  1.00  0.00     0.259 C 
HETATM   31  N7  UNL     1     -27.857   2.741  27.174  1.00  0.00    -0.072 N 
HETATM   32  C18 UNL     1     -29.308   2.614  27.152  1.00  0.00     0.262 C 
ATOM     33  H72 UNL     1     -27.545   3.710  27.245  1.00  0.00     0.277 HD
ATOM     34  H71 UNL     1     -27.426   2.527  26.275  1.00  0.00     0.277 HD
HETATM   35  C19 UNL     1     -29.956   3.187  25.956  1.00  0.00     0.301 C 
ENDBRANCH  15  18
ENDBRANCH  12  15
ENDBRANCH  10  11
TORSDOF 4
ENDMDL
MODEL 3
REMARK VINA RESULT: -7.443620597      2.497      7.892
REMARK  4 active torsions:
REMARK  status: ('A' for Active; 'I' for Inactive)
REMARK    1  A    between atoms: C6_10  and  N3_11 
REMARK       I    between atoms: N3_11  and  C7_13 
REMARK    2  A    between atoms: C7_13  and  C8_15 
REMARK    3  A    between atoms: C8_15  and  C9_16 
REMARK    4  A    between atoms: C8_15  and  N4_18 
ROOT
HETATM    1  C1  UNL     1     -36.733   3.797  23.747  1.00  0.00     0.018 C 
HETATM    2  C2  UNL     1     -35.953   4.108  24.606  1.00  0.00    -0.072 C 
HETATM    3  C3  UNL     1     -35.025   4.505  25.624  1.00  0.00     0.086 A 
HETATM    4  C4  UNL     1     -35.379   5.139  26.792  1.00  0.00     0.044 A 
HETATM    5  C5  UNL     1     -36.769   5.528  27.218  1.00  0.00     0.071 C 
HETATM    6  N1  UNL     1     -34.235   5.338  27.469  1.00  0.00    -0.302 N 
ATOM      7  H1  UNL     1     -34.161   5.789  28.381  1.00  0.00     0.186 HD
HETATM    8  N2  UNL     1     -33.210   4.851  26.760  1.00  0.00    -0.284 N 
ATOM      9  H2  UNL     1     -32.235   4.880  27.058  1.00  0.00     0.188 HD
HETATM   10  C6  UNL     1     -33.635   4.324  25.610  1.00  0.00     0.143 A 
ENDROOT
BRANCH  10  11
HETATM   11  N3  UNL     1     -33.044   3.759  24.635  1.00  0.00    -0.309 N 
HETATM   12  C7  UNL     1     -32.527   2.452  24.587  1.00  0.00     0.257 C 
HETATM   13  O1  UNL     1     -32.962   1.590  25.380  1.00  0.00    -0.271 OA
ATOM     14  H3  UNL     1     -32.932   4.318  23.790  1.00  0.00     0.170 HD
BRANCH  12  15
HETATM   15  C8  UNL     1     -31.479   2.075  23.620  1.00  0.00     0.314 C 
BRANCH  15  16
HETATM   16  C9  UNL     1     -31.552   2.908  22.365  1.00  0.00     0.041 C 
HETATM   17  C10 UNL     1     -30.183   3.008  21.678  1.00  0.00     0.007 C 
ENDBRANCH  15  16
BRANCH  15  18
HETATM   18  N4  UNL     1     -30.163   2.035  24.220  1.00  0.00     0.105 N 
HETATM   19  C11 UNL     1     -29.681   0.746  24.516  1.00  0.00     0.292 C 
HETATM   20  C12 UNL     1     -28.882   0.200  23.352  1.00  0.00     0.144 C 
HETATM   21  N5  UNL     1     -27.485   0.049  23.645  1.00  0.00    -0.419 N 
HETATM   22  C13 UNL     1     -27.129  -1.134  24.340  1.00  0.00     0.115 C 
ATOM     23  H5  UNL     1     -26.794   0.747  23.371  1.00  0.00     0.153 HD
HETATM   24  C14 UNL     1     -25.770  -0.874  25.009  1.00  0.00     0.046 C 
HETATM   25  C15 UNL     1     -25.948  -0.558  26.478  1.00  0.00     0.234 C 
HETATM   26  N6  UNL     1     -26.335   0.817  26.713  1.00  0.00    -0.073 N 
HETATM   27  C16 UNL     1     -27.147   0.898  27.917  1.00  0.00     0.259 C 
ATOM     28  H62 UNL     1     -25.529   1.442  26.751  1.00  0.00     0.277 HD
ATOM     29  H61 UNL     1     -26.801   1.229  25.906  1.00  0.00     0.277 HD
HETATM   30  C17 UNL     1     -27.872   2.190  28.056  1.00  0.00     0.259 C 
HETATM   31  N7  UNL     1     -28.211   2.838  26.815  1.00  0.00    -0.072 N 
HETATM   32  C18 UNL     1     -29.638   2.644  26.594  1.00  0.00     0.262 C 
ATOM     33  H72 UNL     1     -27.936   3.820  26.792  1.00  0.00     0.277 HD
ATOM     34  H71 UNL     1     -27.641   2.520  26.032  1.00  0.00     0.277 HD
HETATM   35  C19 UNL     1     -30.105   3.015  25.243  1.00  0.00     0.301 C 
ENDBRANCH  15  18
ENDBRANCH  12  15
ENDBRANCH  10  11
TORSDOF 4
ENDMDL
MODEL 4
REMARK VINA RESULT: -7.433247252      1.922      8.133
REMARK  4 active torsions:
REMARK  status: ('A' for Active; 'I' for Inactive)
REMARK    1  A    between atoms: C6_10  and  N3_11 
REMARK       I    between atoms: N3_11  and  C7_13 
REMARK    2  A    between atoms: C7_13  and  C8_15 
REMARK    3  A    between atoms: C8_15  and  C9_16 
REMARK    4  A    between atoms: C8_15  and  N4_18 
ROOT
HETATM    1  C1  UNL     1     -34.231   6.265  24.544  1.00  0.00     0.018 C 
HETATM    2  C2  UNL     1     -33.841   5.788  23.513  1.00  0.00    -0.072 C 
HETATM    3  C3  UNL     1     -33.397   5.206  22.281  1.00  0.00     0.086 A 
HETATM    4  C4  UNL     1     -33.856   5.576  21.038  1.00  0.00     0.044 A 
HETATM    5  C5  UNL     1     -34.883   6.635  20.739  1.00  0.00     0.071 C 
HETATM    6  N1  UNL     1     -33.202   4.804  20.154  1.00  0.00    -0.302 N 
ATOM      7  H1  UNL     1     -33.321   4.836  19.142  1.00  0.00     0.186 HD
HETATM    8  N2  UNL     1     -32.371   3.986  20.810  1.00  0.00    -0.284 N 
ATOM      9  H2  UNL     1     -31.761   3.300  20.363  1.00  0.00     0.188 HD
HETATM   10  C6  UNL     1     -32.446   4.188  22.128  1.00  0.00     0.143 A 
ENDROOT
BRANCH  10  11
HETATM   11  N3  UNL     1     -31.862   3.662  23.128  1.00  0.00    -0.309 N 
HETATM   12  C7  UNL     1     -32.132   2.416  23.721  1.00  0.00     0.257 C 
HETATM   13  O1  UNL     1     -32.719   1.535  23.059  1.00  0.00    -0.271 OA
ATOM     14  H3  UNL     1     -31.110   4.207  23.548  1.00  0.00     0.170 HD
BRANCH  12  15
HETATM   15  C8  UNL     1     -31.736   2.125  25.112  1.00  0.00     0.314 C 
BRANCH  15  16
HETATM   16  C9  UNL     1     -32.464   0.923  25.660  1.00  0.00     0.041 C 
HETATM   17  C10 UNL     1     -33.842   1.308  26.217  1.00  0.00     0.007 C 
ENDBRANCH  15  16
BRANCH  15  18
HETATM   18  N4  UNL     1     -30.299   2.063  25.274  1.00  0.00     0.105 N 
HETATM   19  C11 UNL     1     -29.759   0.764  25.317  1.00  0.00     0.292 C 
HETATM   20  C12 UNL     1     -29.361   0.309  23.930  1.00  0.00     0.144 C 
HETATM   21  N5  UNL     1     -27.944   0.158  23.768  1.00  0.00    -0.419 N 
HETATM   22  C13 UNL     1     -27.400  -1.065  24.236  1.00  0.00     0.115 C 
ATOM     23  H5  UNL     1     -27.366   0.883  23.343  1.00  0.00     0.153 HD
HETATM   24  C14 UNL     1     -25.899  -0.831  24.471  1.00  0.00     0.046 C 
HETATM   25  C15 UNL     1     -25.614  -0.618  25.942  1.00  0.00     0.234 C 
HETATM   26  N6  UNL     1     -25.898   0.733  26.378  1.00  0.00    -0.073 N 
HETATM   27  C16 UNL     1     -26.300   0.720  27.776  1.00  0.00     0.259 C 
ATOM     28  H62 UNL     1     -25.116   1.365  26.209  1.00  0.00     0.277 HD
ATOM     29  H61 UNL     1     -26.588   1.192  25.784  1.00  0.00     0.277 HD
HETATM   30  C17 UNL     1     -26.937   1.990  28.220  1.00  0.00     0.259 C 
HETATM   31  N7  UNL     1     -27.637   2.715  27.191  1.00  0.00    -0.072 N 
HETATM   32  C18 UNL     1     -29.064   2.517  27.407  1.00  0.00     0.262 C 
ATOM     33  H72 UNL     1     -27.375   3.701  27.152  1.00  0.00     0.277 HD
ATOM     34  H71 UNL     1     -27.338   2.459  26.250  1.00  0.00     0.277 HD
HETATM   35  C19 UNL     1     -29.922   2.972  26.294  1.00  0.00     0.301 C 
ENDBRANCH  15  18
ENDBRANCH  12  15
ENDBRANCH  10  11
TORSDOF 4
ENDMDL
MODEL 5
REMARK VINA RESULT: -7.426502294      2.880      8.194
REMARK  4 active torsions:
REMARK  status: ('A' for Active; 'I' for Inactive)
REMARK    1  A    between atoms: C6_10  and  N3_11 
REMARK       I    between atoms: N3_11  and  C7_13 
REMARK    2  A    between atoms: C7_13  and  C8_15 
REMARK    3  A    between atoms: C8_15  and  C9_16 
REMARK    4  A    between atoms: C8_15  and  N4_18 
ROOT
HETATM    1  C1  UNL     1     -34.903   3.737  19.950  1.00  0.00     0.018 C 
HETATM    2  C2  UNL     1     -34.924   4.934  20.043  1.00  0.00    -0.072 C 
HETATM    3  C3  UNL     1     -34.924   6.364  20.148  1.00  0.00     0.086 A 
HETATM    4  C4  UNL     1     -34.916   7.221  19.072  1.00  0.00     0.044 A 
HETATM    5  C5  UNL     1     -34.908   6.836  17.617  1.00  0.00     0.071 C 
HETATM    6  N1  UNL     1     -34.918   8.463  19.585  1.00  0.00    -0.302 N 
ATOM      7  H1  UNL     1     -34.914   9.325  19.040  1.00  0.00     0.186 HD
HETATM    8  N2  UNL     1     -34.927   8.391  20.921  1.00  0.00    -0.284 N 
ATOM      9  H2  UNL     1     -34.930   9.199  21.544  1.00  0.00     0.188 HD
HETATM   10  C6  UNL     1     -34.931   7.119  21.329  1.00  0.00     0.143 A 
ENDROOT
BRANCH  10  11
HETATM   11  N3  UNL     1     -34.938   6.569  22.475  1.00  0.00    -0.309 N 
HETATM   12  C7  UNL     1     -33.930   6.613  23.454  1.00  0.00     0.257 C 
HETATM   13  O1  UNL     1     -33.093   7.540  23.432  1.00  0.00    -0.271 OA
ATOM     14  H3  UNL     1     -35.773   6.033  22.712  1.00  0.00     0.170 HD
BRANCH  12  15
HETATM   15  C8  UNL     1     -33.838   5.588  24.511  1.00  0.00     0.314 C 
BRANCH  15  16
HETATM   16  C9  UNL     1     -35.070   4.718  24.553  1.00  0.00     0.041 C 
HETATM   17  C10 UNL     1     -35.798   4.843  25.899  1.00  0.00     0.007 C 
ENDBRANCH  15  16
BRANCH  15  18
HETATM   18  N4  UNL     1     -32.598   4.844  24.450  1.00  0.00     0.105 N 
HETATM   19  C11 UNL     1     -32.531   3.878  23.427  1.00  0.00     0.292 C 
HETATM   20  C12 UNL     1     -31.932   4.475  22.173  1.00  0.00     0.144 C 
HETATM   21  N5  UNL     1     -30.648   3.928  21.841  1.00  0.00    -0.419 N 
HETATM   22  C13 UNL     1     -30.671   2.693  21.145  1.00  0.00     0.115 C 
ATOM     23  H5  UNL     1     -29.777   4.396  22.089  1.00  0.00     0.153 HD
HETATM   24  C14 UNL     1     -29.299   2.032  21.353  1.00  0.00     0.046 C 
HETATM   25  C15 UNL     1     -29.378   0.959  22.418  1.00  0.00     0.234 C 
HETATM   26  N6  UNL     1     -29.328   1.499  23.761  1.00  0.00    -0.073 N 
HETATM   27  C16 UNL     1     -30.082   0.639  24.661  1.00  0.00     0.259 C 
ATOM     28  H62 UNL     1     -28.371   1.646  24.082  1.00  0.00     0.277 HD
ATOM     29  H61 UNL     1     -29.646   2.467  23.798  1.00  0.00     0.277 HD
HETATM   30  C17 UNL     1     -30.380   1.274  25.973  1.00  0.00     0.259 C 
HETATM   31  N7  UNL     1     -30.503   2.709  25.946  1.00  0.00    -0.072 N 
HETATM   32  C18 UNL     1     -31.920   3.031  26.041  1.00  0.00     0.262 C 
ATOM     33  H72 UNL     1     -29.942   3.170  26.663  1.00  0.00     0.277 HD
ATOM     34  H71 UNL     1     -30.053   3.130  25.133  1.00  0.00     0.277 HD
HETATM   35  C19 UNL     1     -32.248   4.444  25.764  1.00  0.00     0.301 C 
ENDBRANCH  15  18
ENDBRANCH  12  15
ENDBRANCH  10  11
TORSDOF 4
ENDMDL
