MODEL 1
REMARK VINA RESULT: -5.915074708      0.000      0.000
REMARK  2 active torsions:
REMARK  status: ('A' for Active; 'I' for Inactive)
REMARK    1  A    between atoms: C2_2  and  C3_3 
REMARK    2  A    between atoms: C3_3  and  N1_4 
REMARK       I    between atoms: N3_12  and  C9_13 
REMARK       I    between atoms: C9_13  and  N4_15 
ROOT
HETATM    1  N1  UNL     1     -28.028   0.999  27.088  1.00  0.00    -0.387 N 
HETATM    2  C4  UNL     1     -29.388   1.244  27.012  1.00  0.00     0.141 C 
HETATM    3  C5  UNL     1     -29.738   2.575  26.318  1.00  0.00     0.133 C 
HETATM    4  N2  UNL     1     -29.531   2.369  24.920  1.00  0.00    -0.420 N 
ATOM      5  H2  UNL     1     -28.923   1.633  24.561  1.00  0.00     0.153 HD
HETATM    6  C6  UNL     1     -30.239   3.269  24.057  1.00  0.00     0.115 C 
HETATM    7  C7  UNL     1     -31.720   3.141  24.090  1.00  0.00     0.039 C 
HETATM    8  C8  UNL     1     -32.282   1.990  23.342  1.00  0.00     0.129 C 
HETATM    9  N3  UNL     1     -31.888   1.989  21.957  1.00  0.00    -0.334 N 
HETATM   10  C9  UNL     1     -32.381   2.856  20.962  1.00  0.00     0.317 C 
HETATM   11  O1  UNL     1     -31.916   2.767  19.797  1.00  0.00    -0.247 OA
HETATM   12  N4  UNL     1     -33.375   3.819  21.215  1.00  0.00    -0.347 N 
ATOM     13  H4  UNL     1     -33.766   3.901  22.153  1.00  0.00     0.163 HD
HETATM   14  C10 UNL     1     -33.861   4.714  20.144  1.00  0.00     0.151 C 
HETATM   15  C11 UNL     1     -30.903   0.958  21.572  1.00  0.00     0.129 C 
HETATM   16  C12 UNL     1     -31.620  -0.377  21.377  1.00  0.00     0.047 C 
HETATM   17  C13 UNL     1     -30.555  -1.425  21.149  1.00  0.00     0.234 C 
HETATM   18  N5  UNL     1     -30.975  -2.674  21.778  1.00  0.00    -0.073 N 
ATOM     19  H51 UNL     1     -31.795  -3.077  21.325  1.00  0.00     0.277 HD
ATOM     20  H52 UNL     1     -31.378  -2.524  22.703  1.00  0.00     0.277 HD
HETATM   21  C14 UNL     1     -29.862  -3.596  21.811  1.00  0.00     0.259 C 
HETATM   22  C15 UNL     1     -29.492  -3.829  23.258  1.00  0.00     0.259 C 
HETATM   23  N6  UNL     1     -28.074  -3.595  23.455  1.00  0.00    -0.072 N 
ATOM     24  H61 UNL     1     -27.834  -2.612  23.332  1.00  0.00     0.277 HD
ATOM     25  H62 UNL     1     -27.519  -3.986  22.694  1.00  0.00     0.277 HD
HETATM   26  C16 UNL     1     -27.642  -4.094  24.741  1.00  0.00     0.259 C 
HETATM   27  C17 UNL     1     -27.326  -2.933  25.664  1.00  0.00     0.259 C 
HETATM   28  N7  UNL     1     -28.593  -2.386  26.120  1.00  0.00    -0.072 N 
ATOM     29  H71 UNL     1     -29.240  -3.107  26.442  1.00  0.00     0.277 HD
ATOM     30  H72 UNL     1     -29.161  -2.021  25.356  1.00  0.00     0.277 HD
HETATM   31  C18 UNL     1     -28.317  -1.378  27.147  1.00  0.00     0.252 C 
HETATM   32  C19 UNL     1     -27.525  -0.224  26.565  1.00  0.00     0.149 C 
ENDROOT
BRANCH   1  33
HETATM   33  C3  UNL     1     -27.127   1.908  27.616  1.00  0.00     0.084 C 
BRANCH  33  34
HETATM   34  C2  UNL     1     -25.739   1.440  27.634  1.00  0.00     0.007 C 
HETATM   35  C1  UNL     1     -24.776   1.844  28.408  1.00  0.00     0.012 C 
ENDBRANCH  33  34
ENDBRANCH   1  33
TORSDOF 2
ENDMDL
MODEL 2
REMARK VINA RESULT: -5.829632377      4.191      8.269
REMARK  2 active torsions:
REMARK  status: ('A' for Active; 'I' for Inactive)
REMARK    1  A    between atoms: C2_2  and  C3_3 
REMARK    2  A    between atoms: C3_3  and  N1_4 
REMARK       I    between atoms: N3_12  and  C9_13 
REMARK       I    between atoms: C9_13  and  N4_15 
ROOT
HETATM    1  N1  UNL     1     -33.415   5.251  23.224  1.00  0.00    -0.387 N 
HETATM    2  C4  UNL     1     -32.704   4.209  22.654  1.00  0.00     0.141 C 
HETATM    3  C5  UNL     1     -31.278   4.054  23.217  1.00  0.00     0.133 C 
HETATM    4  N2  UNL     1     -31.415   3.470  24.513  1.00  0.00    -0.420 N 
ATOM      5  H2  UNL     1     -32.280   3.528  25.049  1.00  0.00     0.153 HD
HETATM    6  C6  UNL     1     -30.249   2.797  25.007  1.00  0.00     0.115 C 
HETATM    7  C7  UNL     1     -29.854   1.580  24.249  1.00  0.00     0.039 C 
HETATM    8  C8  UNL     1     -30.663   0.366  24.517  1.00  0.00     0.129 C 
HETATM    9  N3  UNL     1     -30.675   0.010  25.912  1.00  0.00    -0.334 N 
HETATM   10  C9  UNL     1     -29.603  -0.566  26.622  1.00  0.00     0.317 C 
HETATM   11  O1  UNL     1     -29.742  -0.790  27.852  1.00  0.00    -0.247 OA
HETATM   12  N4  UNL     1     -28.381  -0.906  26.013  1.00  0.00    -0.347 N 
ATOM     13  H4  UNL     1     -28.255  -0.737  25.015  1.00  0.00     0.163 HD
HETATM   14  C10 UNL     1     -27.279  -1.504  26.795  1.00  0.00     0.151 C 
HETATM   15  C11 UNL     1     -31.945   0.255  26.625  1.00  0.00     0.129 C 
HETATM   16  C12 UNL     1     -32.922  -0.880  26.319  1.00  0.00     0.047 C 
HETATM   17  C13 UNL     1     -34.250  -0.500  26.932  1.00  0.00     0.234 C 
HETATM   18  N5  UNL     1     -35.327  -0.967  26.062  1.00  0.00    -0.073 N 
ATOM     19  H51 UNL     1     -35.374  -1.985  26.020  1.00  0.00     0.277 HD
ATOM     20  H52 UNL     1     -35.130  -0.789  25.077  1.00  0.00     0.277 HD
HETATM   21  C14 UNL     1     -36.578  -0.379  26.484  1.00  0.00     0.259 C 
HETATM   22  C15 UNL     1     -37.056   0.539  25.382  1.00  0.00     0.259 C 
HETATM   23  N6  UNL     1     -37.351   1.854  25.920  1.00  0.00    -0.072 N 
ATOM     24  H61 UNL     1     -36.507   2.329  26.237  1.00  0.00     0.277 HD
ATOM     25  H62 UNL     1     -37.841   1.794  26.813  1.00  0.00     0.277 HD
HETATM   26  C16 UNL     1     -38.085   2.651  24.963  1.00  0.00     0.259 C 
HETATM   27  C17 UNL     1     -37.197   3.756  24.424  1.00  0.00     0.259 C 
HETATM   28  N7  UNL     1     -36.286   3.151  23.467  1.00  0.00    -0.072 N 
ATOM     29  H71 UNL     1     -36.762   2.537  22.805  1.00  0.00     0.277 HD
ATOM     30  H72 UNL     1     -35.678   2.451  23.891  1.00  0.00     0.277 HD
HETATM   31  C18 UNL     1     -35.537   4.221  22.805  1.00  0.00     0.252 C 
HETATM   32  C19 UNL     1     -34.683   4.976  23.805  1.00  0.00     0.149 C 
ENDROOT
BRANCH   1  33
HETATM   33  C3  UNL     1     -32.930   6.547  23.288  1.00  0.00     0.084 C 
BRANCH  33  34
HETATM   34  C2  UNL     1     -33.966   7.581  23.238  1.00  0.00     0.007 C 
HETATM   35  C1  UNL     1     -33.800   8.870  23.240  1.00  0.00     0.012 C 
ENDBRANCH  33  34
ENDBRANCH   1  33
TORSDOF 2
ENDMDL
MODEL 3
REMARK VINA RESULT: -5.816184767      4.400      7.582
REMARK  2 active torsions:
REMARK  status: ('A' for Active; 'I' for Inactive)
REMARK    1  A    between atoms: C2_2  and  C3_3 
REMARK    2  A    between atoms: C3_3  and  N1_4 
REMARK       I    between atoms: N3_12  and  C9_13 
REMARK       I    between atoms: C9_13  and  N4_15 
ROOT
HETATM    1  N1  UNL     1     -34.776   3.452  24.925  1.00  0.00    -0.387 N 
HETATM    2  C4  UNL     1     -33.734   2.982  24.145  1.00  0.00     0.141 C 
HETATM    3  C5  UNL     1     -32.354   3.524  24.567  1.00  0.00     0.133 C 
HETATM    4  N2  UNL     1     -31.993   2.827  25.760  1.00  0.00    -0.420 N 
ATOM      5  H2  UNL     1     -32.685   2.381  26.362  1.00  0.00     0.153 HD
HETATM    6  C6  UNL     1     -30.589   2.799  26.052  1.00  0.00     0.115 C 
HETATM    7  C7  UNL     1     -29.758   2.037  25.082  1.00  0.00     0.039 C 
HETATM    8  C8  UNL     1     -29.810   0.560  25.214  1.00  0.00     0.129 C 
HETATM    9  N3  UNL     1     -29.441   0.113  26.533  1.00  0.00    -0.334 N 
HETATM   10  C9  UNL     1     -28.134   0.099  27.059  1.00  0.00     0.317 C 
HETATM   11  O1  UNL     1     -27.963  -0.285  28.244  1.00  0.00    -0.247 OA
HETATM   12  N4  UNL     1     -27.008   0.493  26.313  1.00  0.00    -0.347 N 
ATOM     13  H4  UNL     1     -27.129   0.801  25.348  1.00  0.00     0.163 HD
HETATM   14  C10 UNL     1     -25.654   0.469  26.905  1.00  0.00     0.151 C 
HETATM   15  C11 UNL     1     -30.546  -0.397  27.369  1.00  0.00     0.129 C 
HETATM   16  C12 UNL     1     -30.864  -1.835  26.961  1.00  0.00     0.047 C 
HETATM   17  C13 UNL     1     -32.101  -2.250  27.725  1.00  0.00     0.234 C 
HETATM   18  N5  UNL     1     -32.917  -3.113  26.876  1.00  0.00    -0.073 N 
ATOM     19  H51 UNL     1     -32.460  -4.003  26.676  1.00  0.00     0.277 HD
ATOM     20  H52 UNL     1     -32.980  -2.764  25.919  1.00  0.00     0.277 HD
HETATM   21  C14 UNL     1     -34.219  -3.292  27.478  1.00  0.00     0.259 C 
HETATM   22  C15 UNL     1     -35.243  -2.644  26.576  1.00  0.00     0.259 C 
HETATM   23  N6  UNL     1     -36.070  -1.726  27.336  1.00  0.00    -0.072 N 
ATOM     24  H61 UNL     1     -35.536  -0.920  27.660  1.00  0.00     0.277 HD
ATOM     25  H62 UNL     1     -36.329  -2.115  28.243  1.00  0.00     0.277 HD
HETATM   26  C16 UNL     1     -37.232  -1.326  26.576  1.00  0.00     0.259 C 
HETATM   27  C17 UNL     1     -37.098   0.125  26.154  1.00  0.00     0.259 C 
HETATM   28  N7  UNL     1     -36.158   0.168  25.047  1.00  0.00    -0.072 N 
ATOM     29  H71 UNL     1     -36.358  -0.534  24.334  1.00  0.00     0.277 HD
ATOM     30  H72 UNL     1     -35.228  -0.160  25.308  1.00  0.00     0.277 HD
HETATM   31  C18 UNL     1     -36.143   1.530  24.508  1.00  0.00     0.252 C 
HETATM   32  C19 UNL     1     -35.641   2.512  25.548  1.00  0.00     0.149 C 
ENDROOT
BRANCH   1  33
HETATM   33  C3  UNL     1     -34.994   4.800  25.157  1.00  0.00     0.084 C 
BRANCH  33  34
HETATM   34  C2  UNL     1     -35.101   5.158  26.574  1.00  0.00     0.007 C 
HETATM   35  C1  UNL     1     -34.161   5.135  27.470  1.00  0.00     0.012 C 
ENDBRANCH  33  34
ENDBRANCH   1  33
TORSDOF 2
ENDMDL
MODEL 4
REMARK VINA RESULT: -5.739007949      1.960      2.053
REMARK  2 active torsions:
REMARK  status: ('A' for Active; 'I' for Inactive)
REMARK    1  A    between atoms: C2_2  and  C3_3 
REMARK    2  A    between atoms: C3_3  and  N1_4 
REMARK       I    between atoms: N3_12  and  C9_13 
REMARK       I    between atoms: C9_13  and  N4_15 
ROOT
HETATM    1  N1  UNL     1     -26.994   0.250  27.004  1.00  0.00    -0.387 N 
HETATM    2  C4  UNL     1     -28.175   0.686  27.581  1.00  0.00     0.141 C 
HETATM    3  C5  UNL     1     -28.629   2.072  27.084  1.00  0.00     0.133 C 
HETATM    4  N2  UNL     1     -29.150   1.880  25.769  1.00  0.00    -0.420 N 
ATOM      5  H2  UNL     1     -28.896   1.078  25.193  1.00  0.00     0.153 HD
HETATM    6  C6  UNL     1     -30.055   2.896  25.315  1.00  0.00     0.115 C 
HETATM    7  C7  UNL     1     -31.340   2.975  26.059  1.00  0.00     0.039 C 
HETATM    8  C8  UNL     1     -32.343   1.936  25.721  1.00  0.00     0.129 C 
HETATM    9  N3  UNL     1     -32.667   1.922  24.317  1.00  0.00    -0.334 N 
HETATM   10  C9  UNL     1     -33.454   2.879  23.647  1.00  0.00     0.317 C 
HETATM   11  O1  UNL     1     -33.624   2.760  22.406  1.00  0.00    -0.247 OA
HETATM   12  N4  UNL     1     -34.062   3.963  24.305  1.00  0.00    -0.347 N 
ATOM     13  H4  UNL     1     -33.939   4.070  25.312  1.00  0.00     0.163 HD
HETATM   14  C10 UNL     1     -34.876   4.949  23.563  1.00  0.00     0.151 C 
HETATM   15  C11 UNL     1     -32.140   0.776  23.550  1.00  0.00     0.129 C 
HETATM   16  C12 UNL     1     -33.038  -0.440  23.779  1.00  0.00     0.047 C 
HETATM   17  C13 UNL     1     -32.367  -1.619  23.111  1.00  0.00     0.234 C 
HETATM   18  N5  UNL     1     -32.600  -2.816  23.915  1.00  0.00    -0.073 N 
ATOM     19  H51 UNL     1     -33.583  -3.086  23.929  1.00  0.00     0.277 HD
ATOM     20  H52 UNL     1     -32.484  -2.638  24.914  1.00  0.00     0.277 HD
HETATM   21  C14 UNL     1     -31.746  -3.884  23.449  1.00  0.00     0.259 C 
HETATM   22  C15 UNL     1     -30.762  -4.209  24.549  1.00  0.00     0.259 C 
HETATM   23  N6  UNL     1     -29.407  -4.182  24.032  1.00  0.00    -0.072 N 
ATOM     24  H61 UNL     1     -29.123  -3.238  23.768  1.00  0.00     0.277 HD
ATOM     25  H62 UNL     1     -29.345  -4.624  23.114  1.00  0.00     0.277 HD
HETATM   26  C16 UNL     1     -28.483  -4.774  24.972  1.00  0.00     0.259 C 
HETATM   27  C17 UNL     1     -27.607  -3.697  25.582  1.00  0.00     0.259 C 
HETATM   28  N7  UNL     1     -28.410  -2.992  26.567  1.00  0.00    -0.072 N 
ATOM     29  H71 UNL     1     -28.914  -3.625  27.188  1.00  0.00     0.277 HD
ATOM     30  H72 UNL     1     -29.220  -2.529  26.155  1.00  0.00     0.277 HD
HETATM   31  C18 UNL     1     -27.540  -2.064  27.292  1.00  0.00     0.252 C 
HETATM   32  C19 UNL     1     -26.976  -1.014  26.355  1.00  0.00     0.149 C 
ENDROOT
BRANCH   1  33
HETATM   33  C3  UNL     1     -25.835   1.009  26.997  1.00  0.00     0.084 C 
BRANCH  33  34
HETATM   34  C2  UNL     1     -25.265   1.250  28.325  1.00  0.00     0.007 C 
HETATM   35  C1  UNL     1     -24.473   2.216  28.684  1.00  0.00     0.012 C 
ENDBRANCH  33  34
ENDBRANCH   1  33
TORSDOF 2
ENDMDL
MODEL 5
REMARK VINA RESULT: -5.680605819      3.530      7.560
REMARK  2 active torsions:
REMARK  status: ('A' for Active; 'I' for Inactive)
REMARK    1  A    between atoms: C2_2  and  C3_3 
REMARK    2  A    between atoms: C3_3  and  N1_4 
REMARK       I    between atoms: N3_12  and  C9_13 
REMARK       I    between atoms: C9_13  and  N4_15 
ROOT
HETATM    1  N1  UNL     1     -34.520   0.230  25.377  1.00  0.00    -0.387 N 
HETATM    2  C4  UNL     1     -33.483   0.849  26.055  1.00  0.00     0.141 C 
HETATM    3  C5  UNL     1     -32.550  -0.135  26.787  1.00  0.00     0.133 C 
HETATM    4  N2  UNL     1     -31.744  -0.752  25.783  1.00  0.00    -0.420 N 
ATOM      5  H2  UNL     1     -32.027  -0.791  24.804  1.00  0.00     0.153 HD
HETATM    6  C6  UNL     1     -30.508  -1.312  26.248  1.00  0.00     0.115 C 
HETATM    7  C7  UNL     1     -29.521  -0.325  26.760  1.00  0.00     0.039 C 
HETATM    8  C8  UNL     1     -28.780   0.437  25.725  1.00  0.00     0.129 C 
HETATM    9  N3  UNL     1     -28.081  -0.423  24.805  1.00  0.00    -0.334 N 
HETATM   10  C9  UNL     1     -26.909  -1.149  25.088  1.00  0.00     0.317 C 
HETATM   11  O1  UNL     1     -26.427  -1.894  24.195  1.00  0.00    -0.247 OA
HETATM   12  N4  UNL     1     -26.248  -1.077  26.328  1.00  0.00    -0.347 N 
ATOM     13  H4  UNL     1     -26.622  -0.474  27.060  1.00  0.00     0.163 HD
HETATM   14  C10 UNL     1     -25.022  -1.860  26.588  1.00  0.00     0.151 C 
HETATM   15  C11 UNL     1     -28.653  -0.504  23.445  1.00  0.00     0.129 C 
HETATM   16  C12 UNL     1     -28.220   0.722  22.642  1.00  0.00     0.047 C 
HETATM   17  C13 UNL     1     -28.960   0.674  21.325  1.00  0.00     0.234 C 
HETATM   18  N5  UNL     1     -29.300   2.036  20.921  1.00  0.00    -0.073 N 
ATOM     19  H51 UNL     1     -28.472   2.590  20.701  1.00  0.00     0.277 HD
ATOM     20  H52 UNL     1     -29.646   2.595  21.701  1.00  0.00     0.277 HD
HETATM   21  C14 UNL     1     -30.237   1.994  19.821  1.00  0.00     0.259 C 
HETATM   22  C15 UNL     1     -31.546   2.578  20.302  1.00  0.00     0.259 C 
HETATM   23  N6  UNL     1     -32.635   1.663  20.020  1.00  0.00    -0.072 N 
ATOM     24  H61 UNL     1     -32.566   0.812  20.579  1.00  0.00     0.277 HD
ATOM     25  H62 UNL     1     -32.547   1.246  19.093  1.00  0.00     0.277 HD
HETATM   26  C16 UNL     1     -33.914   2.313  20.192  1.00  0.00     0.259 C 
HETATM   27  C17 UNL     1     -34.606   1.771  21.428  1.00  0.00     0.259 C 
HETATM   28  N7  UNL     1     -33.962   2.373  22.583  1.00  0.00    -0.072 N 
ATOM     29  H71 UNL     1     -33.847   3.383  22.487  1.00  0.00     0.277 HD
ATOM     30  H72 UNL     1     -32.974   2.128  22.655  1.00  0.00     0.277 HD
HETATM   31  C18 UNL     1     -34.722   2.003  23.779  1.00  0.00     0.252 C 
HETATM   32  C19 UNL     1     -34.688   0.503  23.992  1.00  0.00     0.149 C 
ENDROOT
BRANCH   1  33
HETATM   33  C3  UNL     1     -35.379  -0.674  25.979  1.00  0.00     0.084 C 
BRANCH  33  34
HETATM   34  C2  UNL     1     -36.618  -0.080  26.488  1.00  0.00     0.007 C 
HETATM   35  C1  UNL     1     -37.360  -0.510  27.465  1.00  0.00     0.012 C 
ENDBRANCH  33  34
ENDBRANCH   1  33
TORSDOF 2
ENDMDL
