MODEL 1
REMARK VINA RESULT: -7.263254146      0.000      0.000
REMARK  8 active torsions:
REMARK  status: ('A' for Active; 'I' for Inactive)
REMARK    1  A    between atoms: C2_2  and  O1_4 
REMARK    2  A    between atoms: O1_4  and  C4_5 
REMARK       I    between atoms: C4_5  and  N1_7 
REMARK    3  A    between atoms: C7_10  and  C8_11 
REMARK    4  A    between atoms: C7_10  and  C9_14 
REMARK    5  A    between atoms: C8_11  and  O3_12 
REMARK    6  A    between atoms: C9_14  and  C10_15 
REMARK    7  A    between atoms: C10_15  and  N2_16 
REMARK       I    between atoms: N2_16  and  C11_18 
REMARK       I    between atoms: C11_18  and  N3_20 
REMARK    8  A    between atoms: N3_20  and  C12_22 
ROOT
HETATM    1  C4  UNL     1     -22.266 -34.591  -3.396  1.00  0.00     0.363 C 
HETATM    2  O2  UNL     1     -23.358 -35.128  -3.713  1.00  0.00    -0.238 OA
HETATM    3  N1  UNL     1     -22.074 -33.227  -3.725  1.00  0.00    -0.328 N 
HETATM    4  C5  UNL     1     -23.067 -32.425  -4.404  1.00  0.00     0.129 C 
HETATM    5  C6  UNL     1     -22.448 -31.673  -5.561  1.00  0.00     0.032 C 
HETATM    6  C7  UNL     1     -21.209 -30.916  -5.132  1.00  0.00    -0.015 C 
HETATM    7  C16 UNL     1     -20.233 -31.917  -4.575  1.00  0.00     0.032 C 
HETATM    8  C17 UNL     1     -20.821 -32.605  -3.362  1.00  0.00     0.129 C 
ENDROOT
BRANCH   6   9
HETATM    9  C8  UNL     1     -20.616 -30.295  -6.355  1.00  0.00     0.173 C 
BRANCH   9  10
HETATM   10  O3  UNL     1     -19.398 -30.854  -6.725  1.00  0.00    -0.400 OA
ATOM     11  H3  UNL     1     -19.445 -31.788  -6.891  1.00  0.00     0.209 HD
ENDBRANCH   9  10
ENDBRANCH   6   9
BRANCH   6  12
HETATM   12  C9  UNL     1     -21.583 -29.852  -4.154  1.00  0.00     0.031 C 
BRANCH  12  13
HETATM   13  C10 UNL     1     -22.239 -28.672  -4.833  1.00  0.00     0.125 C 
BRANCH  13  14
HETATM   14  N2  UNL     1     -22.195 -27.488  -3.973  1.00  0.00    -0.343 N 
HETATM   15  C11 UNL     1     -21.496 -26.324  -4.377  1.00  0.00     0.316 C 
HETATM   16  O4  UNL     1     -20.886 -26.281  -5.502  1.00  0.00    -0.247 OA
HETATM   17  N3  UNL     1     -21.483 -25.199  -3.506  1.00  0.00    -0.335 N 
ATOM     18  H3  UNL     1     -21.969 -25.232  -2.610  1.00  0.00     0.165 HD
ATOM     19  H2  UNL     1     -22.674 -27.501  -3.073  1.00  0.00     0.164 HD
BRANCH  17  20
HETATM   20  C12 UNL     1     -20.776 -24.017  -3.908  1.00  0.00     0.023 C 
HETATM   21  C13 UNL     1     -19.394 -24.324  -4.449  1.00  0.00     0.037 C 
HETATM   22  C14 UNL     1     -21.585 -23.282  -4.934  1.00  0.00     0.037 C 
HETATM   23  C15 UNL     1     -20.572 -23.138  -2.676  1.00  0.00     0.037 C 
ENDBRANCH  17  20
ENDBRANCH  13  14
ENDBRANCH  12  13
ENDBRANCH   6  12
BRANCH   1  24
HETATM   24  O1  UNL     1     -21.286 -35.320  -2.744  1.00  0.00    -0.299 OA
BRANCH  24  25
HETATM   25  C2  UNL     1     -21.491 -35.809  -1.435  1.00  0.00     0.125 C 
HETATM   26  C1  UNL     1     -22.555 -36.889  -1.463  1.00  0.00     0.040 C 
HETATM   27  C3  UNL     1     -21.958 -34.677  -0.516  1.00  0.00     0.040 C 
ENDBRANCH  24  25
ENDBRANCH   1  24
TORSDOF 8
ENDMDL
MODEL 2
REMARK VINA RESULT: -7.119562467      4.082      6.105
REMARK  8 active torsions:
REMARK  status: ('A' for Active; 'I' for Inactive)
REMARK    1  A    between atoms: C2_2  and  O1_4 
REMARK    2  A    between atoms: O1_4  and  C4_5 
REMARK       I    between atoms: C4_5  and  N1_7 
REMARK    3  A    between atoms: C7_10  and  C8_11 
REMARK    4  A    between atoms: C7_10  and  C9_14 
REMARK    5  A    between atoms: C8_11  and  O3_12 
REMARK    6  A    between atoms: C9_14  and  C10_15 
REMARK    7  A    between atoms: C10_15  and  N2_16 
REMARK       I    between atoms: N2_16  and  C11_18 
REMARK       I    between atoms: C11_18  and  N3_20 
REMARK    8  A    between atoms: N3_20  and  C12_22 
ROOT
HETATM    1  C4  UNL     1     -21.364 -32.288  -0.089  1.00  0.00     0.363 C 
HETATM    2  O2  UNL     1     -21.632 -31.327   0.677  1.00  0.00    -0.238 OA
HETATM    3  N1  UNL     1     -21.244 -32.022  -1.475  1.00  0.00    -0.328 N 
HETATM    4  C5  UNL     1     -21.414 -30.708  -2.050  1.00  0.00     0.129 C 
HETATM    5  C6  UNL     1     -22.345 -30.760  -3.241  1.00  0.00     0.032 C 
HETATM    6  C7  UNL     1     -21.926 -31.832  -4.225  1.00  0.00    -0.015 C 
HETATM    7  C16 UNL     1     -21.933 -33.148  -3.496  1.00  0.00     0.032 C 
HETATM    8  C17 UNL     1     -20.935 -33.123  -2.359  1.00  0.00     0.129 C 
ENDROOT
BRANCH   6   9
HETATM    9  C8  UNL     1     -22.957 -31.877  -5.306  1.00  0.00     0.173 C 
BRANCH   9  10
HETATM   10  O3  UNL     1     -22.999 -33.091  -5.982  1.00  0.00    -0.400 OA
ATOM     11  H3  UNL     1     -23.351 -33.023  -6.861  1.00  0.00     0.209 HD
ENDBRANCH   9  10
ENDBRANCH   6   9
BRANCH   6  12
HETATM   12  C9  UNL     1     -20.595 -31.489  -4.808  1.00  0.00     0.031 C 
BRANCH  12  13
HETATM   13  C10 UNL     1     -20.724 -30.551  -5.986  1.00  0.00     0.125 C 
BRANCH  13  14
HETATM   14  N2  UNL     1     -19.683 -30.821  -6.980  1.00  0.00    -0.343 N 
HETATM   15  C11 UNL     1     -19.935 -31.679  -8.079  1.00  0.00     0.316 C 
HETATM   16  O4  UNL     1     -21.077 -32.238  -8.228  1.00  0.00    -0.247 OA
HETATM   17  N3  UNL     1     -18.891 -31.908  -9.018  1.00  0.00    -0.335 N 
ATOM     18  H3  UNL     1     -17.981 -31.462  -8.900  1.00  0.00     0.165 HD
ATOM     19  H2  UNL     1     -18.767 -30.385  -6.880  1.00  0.00     0.164 HD
BRANCH  17  20
HETATM   20  C12 UNL     1     -19.138 -32.777 -10.133  1.00  0.00     0.023 C 
HETATM   21  C13 UNL     1     -19.539 -34.174  -9.702  1.00  0.00     0.037 C 
HETATM   22  C14 UNL     1     -20.202 -32.176 -11.002  1.00  0.00     0.037 C 
HETATM   23  C15 UNL     1     -17.840 -32.924 -10.923  1.00  0.00     0.037 C 
ENDBRANCH  17  20
ENDBRANCH  13  14
ENDBRANCH  12  13
ENDBRANCH   6  12
BRANCH   1  24
HETATM   24  O1  UNL     1     -21.192 -33.565   0.419  1.00  0.00    -0.299 OA
BRANCH  24  25
HETATM   25  C2  UNL     1     -22.301 -34.387   0.713  1.00  0.00     0.125 C 
HETATM   26  C1  UNL     1     -22.318 -34.694   2.198  1.00  0.00     0.040 C 
HETATM   27  C3  UNL     1     -22.205 -35.703  -0.063  1.00  0.00     0.040 C 
ENDBRANCH  24  25
ENDBRANCH   1  24
TORSDOF 8
ENDMDL
MODEL 3
REMARK VINA RESULT: -7.010231534      4.067      5.621
REMARK  8 active torsions:
REMARK  status: ('A' for Active; 'I' for Inactive)
REMARK    1  A    between atoms: C2_2  and  O1_4 
REMARK    2  A    between atoms: O1_4  and  C4_5 
REMARK       I    between atoms: C4_5  and  N1_7 
REMARK    3  A    between atoms: C7_10  and  C8_11 
REMARK    4  A    between atoms: C7_10  and  C9_14 
REMARK    5  A    between atoms: C8_11  and  O3_12 
REMARK    6  A    between atoms: C9_14  and  C10_15 
REMARK    7  A    between atoms: C10_15  and  N2_16 
REMARK       I    between atoms: N2_16  and  C11_18 
REMARK       I    between atoms: C11_18  and  N3_20 
REMARK    8  A    between atoms: N3_20  and  C12_22 
ROOT
HETATM    1  C4  UNL     1     -21.277 -32.500  -0.082  1.00  0.00     0.363 C 
HETATM    2  O2  UNL     1     -21.407 -31.660   0.845  1.00  0.00    -0.238 OA
HETATM    3  N1  UNL     1     -21.188 -32.018  -1.410  1.00  0.00    -0.328 N 
HETATM    4  C5  UNL     1     -21.240 -30.614  -1.751  1.00  0.00     0.129 C 
HETATM    5  C6  UNL     1     -22.220 -30.372  -2.877  1.00  0.00     0.032 C 
HETATM    6  C7  UNL     1     -21.962 -31.299  -4.047  1.00  0.00    -0.015 C 
HETATM    7  C16 UNL     1     -22.080 -32.712  -3.543  1.00  0.00     0.032 C 
HETATM    8  C17 UNL     1     -21.038 -32.978  -2.479  1.00  0.00     0.129 C 
ENDROOT
BRANCH   6   9
HETATM    9  C8  UNL     1     -23.036 -31.057  -5.057  1.00  0.00     0.173 C 
BRANCH   9  10
HETATM   10  O3  UNL     1     -23.475 -32.216  -5.687  1.00  0.00    -0.400 OA
ATOM     11  H3  UNL     1     -23.919 -32.820  -5.103  1.00  0.00     0.209 HD
ENDBRANCH   9  10
ENDBRANCH   6   9
BRANCH   6  12
HETATM   12  C9  UNL     1     -20.627 -30.996  -4.644  1.00  0.00     0.031 C 
BRANCH  12  13
HETATM   13  C10 UNL     1     -20.420 -31.722  -5.953  1.00  0.00     0.125 C 
BRANCH  13  14
HETATM   14  N2  UNL     1     -20.700 -30.840  -7.087  1.00  0.00    -0.343 N 
HETATM   15  C11 UNL     1     -21.449 -31.302  -8.197  1.00  0.00     0.316 C 
HETATM   16  O4  UNL     1     -21.898 -32.500  -8.235  1.00  0.00    -0.247 OA
HETATM   17  N3  UNL     1     -21.694 -30.405  -9.274  1.00  0.00    -0.335 N 
ATOM     18  H3  UNL     1     -21.338 -29.450  -9.244  1.00  0.00     0.165 HD
ATOM     19  H2  UNL     1     -20.352 -29.882  -7.077  1.00  0.00     0.164 HD
BRANCH  17  20
HETATM   20  C12 UNL     1     -22.451 -30.865 -10.403  1.00  0.00     0.023 C 
HETATM   21  C13 UNL     1     -21.635 -31.748 -11.327  1.00  0.00     0.037 C 
HETATM   22  C14 UNL     1     -23.664 -31.600  -9.918  1.00  0.00     0.037 C 
HETATM   23  C15 UNL     1     -22.872 -29.650 -11.226  1.00  0.00     0.037 C 
ENDBRANCH  17  20
ENDBRANCH  13  14
ENDBRANCH  12  13
ENDBRANCH   6  12
BRANCH   1  24
HETATM   24  O1  UNL     1     -21.223 -33.855   0.199  1.00  0.00    -0.299 OA
BRANCH  24  25
HETATM   25  C2  UNL     1     -22.389 -34.577   0.535  1.00  0.00     0.125 C 
HETATM   26  C1  UNL     1     -22.355 -34.931   2.009  1.00  0.00     0.040 C 
HETATM   27  C3  UNL     1     -22.465 -35.869  -0.283  1.00  0.00     0.040 C 
ENDBRANCH  24  25
ENDBRANCH   1  24
TORSDOF 8
ENDMDL
MODEL 4
REMARK VINA RESULT: -6.990992541      4.011      5.877
REMARK  8 active torsions:
REMARK  status: ('A' for Active; 'I' for Inactive)
REMARK    1  A    between atoms: C2_2  and  O1_4 
REMARK    2  A    between atoms: O1_4  and  C4_5 
REMARK       I    between atoms: C4_5  and  N1_7 
REMARK    3  A    between atoms: C7_10  and  C8_11 
REMARK    4  A    between atoms: C7_10  and  C9_14 
REMARK    5  A    between atoms: C8_11  and  O3_12 
REMARK    6  A    between atoms: C9_14  and  C10_15 
REMARK    7  A    between atoms: C10_15  and  N2_16 
REMARK       I    between atoms: N2_16  and  C11_18 
REMARK       I    between atoms: C11_18  and  N3_20 
REMARK    8  A    between atoms: N3_20  and  C12_22 
ROOT
HETATM    1  C4  UNL     1     -22.291 -35.430  -1.623  1.00  0.00     0.363 C 
HETATM    2  O2  UNL     1     -21.844 -35.460  -0.448  1.00  0.00    -0.238 OA
HETATM    3  N1  UNL     1     -21.803 -34.428  -2.496  1.00  0.00    -0.328 N 
HETATM    4  C5  UNL     1     -20.820 -33.443  -2.105  1.00  0.00     0.129 C 
HETATM    5  C6  UNL     1     -21.265 -32.054  -2.507  1.00  0.00     0.032 C 
HETATM    6  C7  UNL     1     -21.669 -32.001  -3.965  1.00  0.00    -0.015 C 
HETATM    7  C16 UNL     1     -22.787 -32.988  -4.165  1.00  0.00     0.032 C 
HETATM    8  C17 UNL     1     -22.312 -34.389  -3.848  1.00  0.00     0.129 C 
ENDROOT
BRANCH   6   9
HETATM    9  C8  UNL     1     -22.187 -30.627  -4.239  1.00  0.00     0.173 C 
BRANCH   9  10
HETATM   10  O3  UNL     1     -23.429 -30.379  -3.666  1.00  0.00    -0.400 OA
ATOM     11  H3  UNL     1     -23.380 -30.115  -2.755  1.00  0.00     0.209 HD
ENDBRANCH   9  10
ENDBRANCH   6   9
BRANCH   6  12
HETATM   12  C9  UNL     1     -20.481 -32.275  -4.827  1.00  0.00     0.031 C 
BRANCH  12  13
HETATM   13  C10 UNL     1     -20.282 -31.198  -5.869  1.00  0.00     0.125 C 
BRANCH  13  14
HETATM   14  N2  UNL     1     -20.367 -31.759  -7.218  1.00  0.00    -0.343 N 
HETATM   15  C11 UNL     1     -21.588 -31.737  -7.937  1.00  0.00     0.316 C 
HETATM   16  O4  UNL     1     -22.645 -31.228  -7.423  1.00  0.00    -0.247 OA
HETATM   17  N3  UNL     1     -21.619 -32.295  -9.245  1.00  0.00    -0.335 N 
ATOM     18  H3  UNL     1     -20.778 -32.700  -9.655  1.00  0.00     0.165 HD
ATOM     19  H2  UNL     1     -19.538 -32.170  -7.646  1.00  0.00     0.164 HD
BRANCH  17  20
HETATM   20  C12 UNL     1     -22.852 -32.277  -9.979  1.00  0.00     0.023 C 
HETATM   21  C13 UNL     1     -23.989 -32.928  -9.217  1.00  0.00     0.037 C 
HETATM   22  C14 UNL     1     -23.201 -30.861 -10.326  1.00  0.00     0.037 C 
HETATM   23  C15 UNL     1     -22.662 -33.096 -11.254  1.00  0.00     0.037 C 
ENDBRANCH  17  20
ENDBRANCH  13  14
ENDBRANCH  12  13
ENDBRANCH   6  12
BRANCH   1  24
HETATM   24  O1  UNL     1     -23.234 -36.355  -2.041  1.00  0.00    -0.299 OA
BRANCH  24  25
HETATM   25  C2  UNL     1     -22.865 -37.684  -2.343  1.00  0.00     0.125 C 
HETATM   26  C1  UNL     1     -23.519 -38.104  -3.645  1.00  0.00     0.040 C 
HETATM   27  C3  UNL     1     -23.331 -38.627  -1.230  1.00  0.00     0.040 C 
ENDBRANCH  24  25
ENDBRANCH   1  24
TORSDOF 8
ENDMDL
MODEL 5
REMARK VINA RESULT: -6.894583135      4.554      8.234
REMARK  8 active torsions:
REMARK  status: ('A' for Active; 'I' for Inactive)
REMARK    1  A    between atoms: C2_2  and  O1_4 
REMARK    2  A    between atoms: O1_4  and  C4_5 
REMARK       I    between atoms: C4_5  and  N1_7 
REMARK    3  A    between atoms: C7_10  and  C8_11 
REMARK    4  A    between atoms: C7_10  and  C9_14 
REMARK    5  A    between atoms: C8_11  and  O3_12 
REMARK    6  A    between atoms: C9_14  and  C10_15 
REMARK    7  A    between atoms: C10_15  and  N2_16 
REMARK       I    between atoms: N2_16  and  C11_18 
REMARK       I    between atoms: C11_18  and  N3_20 
REMARK    8  A    between atoms: N3_20  and  C12_22 
ROOT
HETATM    1  C4  UNL     1     -21.385 -33.378  -0.360  1.00  0.00     0.363 C 
HETATM    2  O2  UNL     1     -20.581 -32.653   0.282  1.00  0.00    -0.238 OA
HETATM    3  N1  UNL     1     -21.358 -33.310  -1.774  1.00  0.00    -0.328 N 
HETATM    4  C5  UNL     1     -20.457 -32.454  -2.512  1.00  0.00     0.129 C 
HETATM    5  C6  UNL     1     -21.207 -31.672  -3.568  1.00  0.00     0.032 C 
HETATM    6  C7  UNL     1     -22.065 -32.578  -4.426  1.00  0.00    -0.015 C 
HETATM    7  C16 UNL     1     -23.030 -33.288  -3.515  1.00  0.00     0.032 C 
HETATM    8  C17 UNL     1     -22.278 -34.141  -2.517  1.00  0.00     0.129 C 
ENDROOT
BRANCH   6   9
HETATM    9  C8  UNL     1     -22.839 -31.709  -5.363  1.00  0.00     0.173 C 
BRANCH   9  10
HETATM   10  O3  UNL     1     -23.081 -30.434  -4.864  1.00  0.00    -0.400 OA
ATOM     11  H3  UNL     1     -23.320 -29.805  -5.534  1.00  0.00     0.209 HD
ENDBRANCH   9  10
ENDBRANCH   6   9
BRANCH   6  12
HETATM   12  C9  UNL     1     -21.193 -33.510  -5.202  1.00  0.00     0.031 C 
BRANCH  12  13
HETATM   13  C10 UNL     1     -21.989 -34.328  -6.193  1.00  0.00     0.125 C 
BRANCH  13  14
HETATM   14  N2  UNL     1     -21.741 -35.758  -6.003  1.00  0.00    -0.343 N 
HETATM   15  C11 UNL     1     -22.697 -36.580  -5.356  1.00  0.00     0.316 C 
HETATM   16  O4  UNL     1     -23.799 -36.092  -4.923  1.00  0.00    -0.247 OA
HETATM   17  N3  UNL     1     -22.409 -37.964  -5.197  1.00  0.00    -0.335 N 
ATOM     18  H3  UNL     1     -21.532 -38.354  -5.542  1.00  0.00     0.165 HD
ATOM     19  H2  UNL     1     -20.870 -36.167  -6.340  1.00  0.00     0.164 HD
BRANCH  17  20
HETATM   20  C12 UNL     1     -23.371 -38.803  -4.542  1.00  0.00     0.023 C 
HETATM   21  C13 UNL     1     -24.799 -38.383  -4.832  1.00  0.00     0.037 C 
HETATM   22  C14 UNL     1     -23.152 -40.226  -4.960  1.00  0.00     0.037 C 
HETATM   23  C15 UNL     1     -23.179 -38.667  -3.033  1.00  0.00     0.037 C 
ENDBRANCH  17  20
ENDBRANCH  13  14
ENDBRANCH  12  13
ENDBRANCH   6  12
BRANCH   1  24
HETATM   24  O1  UNL     1     -22.265 -34.214   0.306  1.00  0.00    -0.299 OA
BRANCH  24  25
HETATM   25  C2  UNL     1     -21.808 -35.372   0.971  1.00  0.00     0.125 C 
HETATM   26  C1  UNL     1     -22.264 -36.602   0.210  1.00  0.00     0.040 C 
HETATM   27  C3  UNL     1     -22.380 -35.428   2.390  1.00  0.00     0.040 C 
ENDBRANCH  24  25
ENDBRANCH   1  24
TORSDOF 8
ENDMDL
