MODEL 1
REMARK VINA RESULT: -8.672899691      0.000      0.000
REMARK  8 active torsions:
REMARK  status: ('A' for Active; 'I' for Inactive)
REMARK    1  A    between atoms: C2_2  and  N1_3 
REMARK    2  A    between atoms: N1_3  and  C3_5 
REMARK    3  A    between atoms: C4_8  and  N3_9 
REMARK    4  A    between atoms: N3_9  and  C5_11 
REMARK    5  A    between atoms: C5_11  and  C6_12 
REMARK    6  A    between atoms: C9_17  and  N5_18 
REMARK    7  A    between atoms: N5_18  and  C10_20 
REMARK    8  A    between atoms: C12_22  and  C13_23 
ROOT
HETATM    1  C3  UNL     1     -23.355 -36.516  -4.567  1.00  0.00     0.707 A 
HETATM    2  N2  UNL     1     -23.364 -35.205  -4.891  1.00  0.00    -0.022 N 
ATOM      3  H2  UNL     1     -23.806 -34.914  -5.763  1.00  0.00     0.203 HD
HETATM    4  C4  UNL     1     -22.808 -34.272  -4.100  1.00  0.00     0.707 A 
HETATM    5  N4  UNL     1     -22.237 -34.694  -2.962  1.00  0.00    -0.021 N 
ATOM      6  H4  UNL     1     -21.809 -34.000  -2.350  1.00  0.00     0.203 HD
HETATM    7  C9  UNL     1     -22.197 -35.986  -2.586  1.00  0.00     0.711 A 
HETATM    8  N7  UNL     1     -22.769 -36.886  -3.414  1.00  0.00    -0.021 N 
ATOM      9  H7  UNL     1     -22.756 -37.873  -3.159  1.00  0.00     0.203 HD
ENDROOT
BRANCH   7  10
HETATM   10  N5  UNL     1     -21.629 -36.270  -1.488  1.00  0.00    -0.189 N 
ATOM     11  H5  UNL     1     -20.831 -36.902  -1.546  1.00  0.00     0.184 HD
BRANCH  10  12
HETATM   12  C10 UNL     1     -21.964 -35.821  -0.213  1.00  0.00     0.071 A 
HETATM   13  C11 UNL     1     -21.817 -34.502   0.143  1.00  0.00     0.041 A 
HETATM   14  C12 UNL     1     -22.144 -34.036   1.407  1.00  0.00    -0.037 A 
HETATM   15  C16 UNL     1     -22.631 -34.941   2.319  1.00  0.00     0.095 A 
HETATM   16  N6  UNL     1     -22.776 -36.233   1.969  1.00  0.00    -0.367 N 
HETATM   17  C17 UNL     1     -22.454 -36.695   0.726  1.00  0.00     0.032 A 
ATOM     18  H6  UNL     1     -23.140 -36.891   2.658  1.00  0.00     0.165 HD
HETATM   19  C18 UNL     1     -22.653 -38.151   0.440  1.00  0.00     0.070 C 
BRANCH  14  20
HETATM   20  C13 UNL     1     -21.978 -32.601   1.779  1.00  0.00     0.012 C 
HETATM   21  C14 UNL     1     -22.256 -32.440   3.261  1.00  0.00     0.015 C 
HETATM   22  C15 UNL     1     -20.503 -32.264   1.575  1.00  0.00     0.015 C 
ENDBRANCH  14  20
ENDBRANCH  10  12
ENDBRANCH   7  10
BRANCH   4  23
HETATM   23  N3  UNL     1     -22.821 -33.022  -4.416  1.00  0.00    -0.225 N 
ATOM     24  H3  UNL     1     -23.607 -32.622  -4.927  1.00  0.00     0.177 HD
BRANCH  23  25
HETATM   25  C5  UNL     1     -21.697 -32.202  -4.030  1.00  0.00     0.142 C 
BRANCH  25  26
HETATM   26  C6  UNL     1     -22.085 -31.053  -3.152  1.00  0.00    -0.004 C 
HETATM   27  C7  UNL     1     -21.756 -29.713  -3.758  1.00  0.00     0.011 C 
HETATM   28  C8  UNL     1     -21.271 -31.170  -1.868  1.00  0.00     0.011 C 
ENDBRANCH  25  26
ENDBRANCH  23  25
ENDBRANCH   4  23
BRANCH   1  29
HETATM   29  N1  UNL     1     -23.911 -37.345  -5.383  1.00  0.00    -0.225 N 
ATOM     30  H1  UNL     1     -23.805 -37.181  -6.385  1.00  0.00     0.177 HD
BRANCH  29  31
HETATM   31  C2  UNL     1     -24.672 -38.486  -4.956  1.00  0.00     0.133 C 
HETATM   32  C1  UNL     1     -24.733 -39.531  -6.060  1.00  0.00     0.027 C 
ENDBRANCH  29  31
ENDBRANCH   1  29
TORSDOF 8
ENDMDL
MODEL 2
REMARK VINA RESULT: -8.410589794      2.687      6.144
REMARK  8 active torsions:
REMARK  status: ('A' for Active; 'I' for Inactive)
REMARK    1  A    between atoms: C2_2  and  N1_3 
REMARK    2  A    between atoms: N1_3  and  C3_5 
REMARK    3  A    between atoms: C4_8  and  N3_9 
REMARK    4  A    between atoms: N3_9  and  C5_11 
REMARK    5  A    between atoms: C5_11  and  C6_12 
REMARK    6  A    between atoms: C9_17  and  N5_18 
REMARK    7  A    between atoms: N5_18  and  C10_20 
REMARK    8  A    between atoms: C12_22  and  C13_23 
ROOT
HETATM    1  C3  UNL     1     -22.003 -29.552  -3.720  1.00  0.00     0.707 A 
HETATM    2  N2  UNL     1     -22.696 -30.121  -4.730  1.00  0.00    -0.022 N 
ATOM      3  H2  UNL     1     -23.200 -29.521  -5.383  1.00  0.00     0.203 HD
HETATM    4  C4  UNL     1     -22.742 -31.453  -4.901  1.00  0.00     0.707 A 
HETATM    5  N4  UNL     1     -22.066 -32.207  -4.022  1.00  0.00    -0.021 N 
ATOM      6  H4  UNL     1     -22.091 -33.220  -4.136  1.00  0.00     0.203 HD
HETATM    7  C9  UNL     1     -21.358 -31.699  -2.996  1.00  0.00     0.711 A 
HETATM    8  N7  UNL     1     -21.343 -30.355  -2.866  1.00  0.00    -0.021 N 
ATOM      9  H7  UNL     1     -20.816 -29.936  -2.100  1.00  0.00     0.203 HD
ENDROOT
BRANCH   7  10
HETATM   10  N5  UNL     1     -20.758 -32.508  -2.226  1.00  0.00    -0.189 N 
ATOM     11  H5  UNL     1     -19.742 -32.545  -2.317  1.00  0.00     0.184 HD
BRANCH  10  12
HETATM   12  C10 UNL     1     -21.318 -33.353  -1.273  1.00  0.00     0.071 A 
HETATM   13  C11 UNL     1     -21.847 -34.574  -1.619  1.00  0.00     0.041 A 
HETATM   14  C12 UNL     1     -22.410 -35.428  -0.684  1.00  0.00    -0.037 A 
HETATM   15  C16 UNL     1     -22.429 -35.022   0.628  1.00  0.00     0.095 A 
HETATM   16  N6  UNL     1     -21.911 -33.826   0.967  1.00  0.00    -0.367 N 
HETATM   17  C17 UNL     1     -21.356 -32.982   0.049  1.00  0.00     0.032 A 
ATOM     18  H6  UNL     1     -21.933 -33.541   1.946  1.00  0.00     0.165 HD
HETATM   19  C18 UNL     1     -20.808 -31.675   0.532  1.00  0.00     0.070 C 
BRANCH  14  20
HETATM   20  C13 UNL     1     -22.980 -36.750  -1.076  1.00  0.00     0.012 C 
HETATM   21  C14 UNL     1     -22.497 -37.101  -2.471  1.00  0.00     0.015 C 
HETATM   22  C15 UNL     1     -22.371 -37.785  -0.134  1.00  0.00     0.015 C 
ENDBRANCH  14  20
ENDBRANCH  10  12
ENDBRANCH   7  10
BRANCH   4  23
HETATM   23  N3  UNL     1     -23.405 -31.988  -5.868  1.00  0.00    -0.225 N 
ATOM     24  H3  UNL     1     -24.389 -32.231  -5.753  1.00  0.00     0.177 HD
BRANCH  23  25
HETATM   25  C5  UNL     1     -22.725 -32.236  -7.117  1.00  0.00     0.142 C 
BRANCH  25  26
HETATM   26  C6  UNL     1     -23.349 -33.338  -7.916  1.00  0.00    -0.004 C 
HETATM   27  C7  UNL     1     -22.334 -34.198  -8.623  1.00  0.00     0.011 C 
HETATM   28  C8  UNL     1     -24.206 -32.685  -8.995  1.00  0.00     0.011 C 
ENDBRANCH  25  26
ENDBRANCH  23  25
ENDBRANCH   4  23
BRANCH   1  29
HETATM   29  N1  UNL     1     -22.012 -28.266  -3.629  1.00  0.00    -0.225 N 
ATOM     30  H1  UNL     1     -21.987 -27.847  -2.699  1.00  0.00     0.177 HD
BRANCH  29  31
HETATM   31  C2  UNL     1     -22.056 -27.393  -4.769  1.00  0.00     0.133 C 
HETATM   32  C1  UNL     1     -21.652 -25.980  -4.376  1.00  0.00     0.027 C 
ENDBRANCH  29  31
ENDBRANCH   1  29
TORSDOF 8
ENDMDL
MODEL 3
REMARK VINA RESULT: -8.291775805      1.672      5.482
REMARK  8 active torsions:
REMARK  status: ('A' for Active; 'I' for Inactive)
REMARK    1  A    between atoms: C2_2  and  N1_3 
REMARK    2  A    between atoms: N1_3  and  C3_5 
REMARK    3  A    between atoms: C4_8  and  N3_9 
REMARK    4  A    between atoms: N3_9  and  C5_11 
REMARK    5  A    between atoms: C5_11  and  C6_12 
REMARK    6  A    between atoms: C9_17  and  N5_18 
REMARK    7  A    between atoms: N5_18  and  C10_20 
REMARK    8  A    between atoms: C12_22  and  C13_23 
ROOT
HETATM    1  C3  UNL     1     -22.595 -31.250  -4.058  1.00  0.00     0.707 A 
HETATM    2  N2  UNL     1     -22.965 -32.256  -4.879  1.00  0.00    -0.022 N 
ATOM      3  H2  UNL     1     -23.460 -32.033  -5.743  1.00  0.00     0.203 HD
HETATM    4  C4  UNL     1     -22.702 -33.542  -4.592  1.00  0.00     0.707 A 
HETATM    5  N4  UNL     1     -22.050 -33.794  -3.448  1.00  0.00    -0.021 N 
ATOM      6  H4  UNL     1     -21.843 -34.765  -3.214  1.00  0.00     0.203 HD
HETATM    7  C9  UNL     1     -21.655 -32.834  -2.590  1.00  0.00     0.711 A 
HETATM    8  N7  UNL     1     -21.943 -31.557  -2.922  1.00  0.00    -0.021 N 
ATOM      9  H7  UNL     1     -21.659 -30.806  -2.295  1.00  0.00     0.203 HD
ENDROOT
BRANCH   7  10
HETATM   10  N5  UNL     1     -21.045 -33.190  -1.537  1.00  0.00    -0.189 N 
ATOM     11  H5  UNL     1     -20.110 -32.804  -1.408  1.00  0.00     0.184 HD
BRANCH  10  12
HETATM   12  C10 UNL     1     -21.500 -34.043  -0.535  1.00  0.00     0.071 A 
HETATM   13  C11 UNL     1     -21.703 -35.381  -0.771  1.00  0.00     0.041 A 
HETATM   14  C12 UNL     1     -22.155 -36.246   0.213  1.00  0.00    -0.037 A 
HETATM   15  C16 UNL     1     -22.402 -35.727   1.461  1.00  0.00     0.095 A 
HETATM   16  N6  UNL     1     -22.202 -34.416   1.692  1.00  0.00    -0.367 N 
HETATM   17  C17 UNL     1     -21.757 -33.561   0.725  1.00  0.00     0.032 A 
ATOM     18  H6  UNL     1     -22.389 -34.047   2.624  1.00  0.00     0.165 HD
HETATM   19  C18 UNL     1     -21.568 -32.121   1.087  1.00  0.00     0.070 C 
BRANCH  14  20
HETATM   20  C13 UNL     1     -22.371 -37.697  -0.060  1.00  0.00     0.012 C 
HETATM   21  C14 UNL     1     -23.353 -38.249   0.955  1.00  0.00     0.015 C 
HETATM   22  C15 UNL     1     -23.057 -37.789  -1.420  1.00  0.00     0.015 C 
ENDBRANCH  14  20
ENDBRANCH  10  12
ENDBRANCH   7  10
BRANCH   4  23
HETATM   23  N3  UNL     1     -23.059 -34.497  -5.381  1.00  0.00    -0.225 N 
ATOM     24  H3  UNL     1     -23.234 -34.319  -6.370  1.00  0.00     0.177 HD
BRANCH  23  25
HETATM   25  C5  UNL     1     -23.205 -35.826  -4.834  1.00  0.00     0.142 C 
BRANCH  25  26
HETATM   26  C6  UNL     1     -22.454 -36.864  -5.608  1.00  0.00    -0.004 C 
HETATM   27  C7  UNL     1     -22.780 -36.850  -7.079  1.00  0.00     0.011 C 
HETATM   28  C8  UNL     1     -22.883 -38.225  -5.072  1.00  0.00     0.011 C 
ENDBRANCH  25  26
ENDBRANCH  23  25
ENDBRANCH   4  23
BRANCH   1  29
HETATM   29  N1  UNL     1     -22.887 -30.044  -4.409  1.00  0.00    -0.225 N 
ATOM     30  H1  UNL     1     -23.819 -29.689  -4.192  1.00  0.00     0.177 HD
BRANCH  29  31
HETATM   31  C2  UNL     1     -21.969 -29.174  -5.090  1.00  0.00     0.133 C 
HETATM   32  C1  UNL     1     -21.940 -27.805  -4.429  1.00  0.00     0.027 C 
ENDBRANCH  29  31
ENDBRANCH   1  29
TORSDOF 8
ENDMDL
MODEL 4
REMARK VINA RESULT: -8.286522605      2.652      4.983
REMARK  8 active torsions:
REMARK  status: ('A' for Active; 'I' for Inactive)
REMARK    1  A    between atoms: C2_2  and  N1_3 
REMARK    2  A    between atoms: N1_3  and  C3_5 
REMARK    3  A    between atoms: C4_8  and  N3_9 
REMARK    4  A    between atoms: N3_9  and  C5_11 
REMARK    5  A    between atoms: C5_11  and  C6_12 
REMARK    6  A    between atoms: C9_17  and  N5_18 
REMARK    7  A    between atoms: N5_18  and  C10_20 
REMARK    8  A    between atoms: C12_22  and  C13_23 
ROOT
HETATM    1  C3  UNL     1     -22.766 -31.490  -4.939  1.00  0.00     0.707 A 
HETATM    2  N2  UNL     1     -22.712 -30.151  -4.773  1.00  0.00    -0.022 N 
ATOM      3  H2  UNL     1     -23.195 -29.550  -5.441  1.00  0.00     0.203 HD
HETATM    4  C4  UNL     1     -22.041 -29.587  -3.754  1.00  0.00     0.707 A 
HETATM    5  N4  UNL     1     -21.420 -30.411  -2.898  1.00  0.00    -0.021 N 
ATOM      6  H4  UNL     1     -20.905 -30.000  -2.120  1.00  0.00     0.203 HD
HETATM    7  C9  UNL     1     -21.439 -31.753  -3.011  1.00  0.00     0.711 A 
HETATM    8  N7  UNL     1     -22.126 -32.272  -4.051  1.00  0.00    -0.021 N 
ATOM      9  H7  UNL     1     -22.160 -33.284  -4.167  1.00  0.00     0.203 HD
ENDROOT
BRANCH   7  10
HETATM   10  N5  UNL     1     -20.815 -32.433  -2.142  1.00  0.00    -0.189 N 
ATOM     11  H5  UNL     1     -19.801 -32.320  -2.127  1.00  0.00     0.184 HD
BRANCH  10  12
HETATM   12  C10 UNL     1     -21.347 -33.315  -1.206  1.00  0.00     0.071 A 
HETATM   13  C11 UNL     1     -21.862 -34.532  -1.581  1.00  0.00     0.041 A 
HETATM   14  C12 UNL     1     -22.397 -35.424  -0.664  1.00  0.00    -0.037 A 
HETATM   15  C16 UNL     1     -22.401 -35.058   0.660  1.00  0.00     0.095 A 
HETATM   16  N6  UNL     1     -21.895 -33.865   1.027  1.00  0.00    -0.367 N 
HETATM   17  C17 UNL     1     -21.368 -32.985   0.127  1.00  0.00     0.032 A 
ATOM     18  H6  UNL     1     -21.905 -33.610   2.015  1.00  0.00     0.165 HD
HETATM   19  C18 UNL     1     -20.832 -31.685   0.641  1.00  0.00     0.070 C 
BRANCH  14  20
HETATM   20  C13 UNL     1     -22.953 -36.742  -1.087  1.00  0.00     0.012 C 
HETATM   21  C14 UNL     1     -22.467 -37.055  -2.490  1.00  0.00     0.015 C 
HETATM   22  C15 UNL     1     -22.334 -37.792  -0.170  1.00  0.00     0.015 C 
ENDBRANCH  14  20
ENDBRANCH  10  12
ENDBRANCH   7  10
BRANCH   4  23
HETATM   23  N3  UNL     1     -21.994 -28.308  -3.602  1.00  0.00    -0.225 N 
ATOM     24  H3  UNL     1     -21.877 -27.897  -2.676  1.00  0.00     0.177 HD
BRANCH  23  25
HETATM   25  C5  UNL     1     -22.110 -27.469  -4.772  1.00  0.00     0.142 C 
BRANCH  25  26
HETATM   26  C6  UNL     1     -21.147 -26.323  -4.770  1.00  0.00    -0.004 C 
HETATM   27  C7  UNL     1     -21.677 -25.111  -4.049  1.00  0.00     0.011 C 
HETATM   28  C8  UNL     1     -20.927 -25.915  -6.222  1.00  0.00     0.011 C 
ENDBRANCH  25  26
ENDBRANCH  23  25
ENDBRANCH   4  23
BRANCH   1  29
HETATM   29  N1  UNL     1     -23.433 -31.948  -5.943  1.00  0.00    -0.225 N 
ATOM     30  H1  UNL     1     -24.440 -31.787  -5.970  1.00  0.00     0.177 HD
BRANCH  29  31
HETATM   31  C2  UNL     1     -22.831 -32.674  -7.028  1.00  0.00     0.133 C 
HETATM   32  C1  UNL     1     -23.706 -32.602  -8.270  1.00  0.00     0.027 C 
ENDBRANCH  29  31
ENDBRANCH   1  29
TORSDOF 8
ENDMDL
MODEL 5
REMARK VINA RESULT: -8.251461042      2.135      7.070
REMARK  8 active torsions:
REMARK  status: ('A' for Active; 'I' for Inactive)
REMARK    1  A    between atoms: C2_2  and  N1_3 
REMARK    2  A    between atoms: N1_3  and  C3_5 
REMARK    3  A    between atoms: C4_8  and  N3_9 
REMARK    4  A    between atoms: N3_9  and  C5_11 
REMARK    5  A    between atoms: C5_11  and  C6_12 
REMARK    6  A    between atoms: C9_17  and  N5_18 
REMARK    7  A    between atoms: N5_18  and  C10_20 
REMARK    8  A    between atoms: C12_22  and  C13_23 
ROOT
HETATM    1  C3  UNL     1     -21.634 -30.424  -2.782  1.00  0.00     0.707 A 
HETATM    2  N2  UNL     1     -21.712 -30.713  -1.465  1.00  0.00    -0.022 N 
ATOM      3  H2  UNL     1     -22.038 -29.994  -0.820  1.00  0.00     0.203 HD
HETATM    4  C4  UNL     1     -21.375 -31.920  -0.981  1.00  0.00     0.707 A 
HETATM    5  N4  UNL     1     -20.952 -32.839  -1.861  1.00  0.00    -0.021 N 
ATOM      6  H4  UNL     1     -20.691 -33.760  -1.510  1.00  0.00     0.203 HD
HETATM    7  C9  UNL     1     -20.853 -32.610  -3.184  1.00  0.00     0.711 A 
HETATM    8  N7  UNL     1     -21.204 -31.382  -3.623  1.00  0.00    -0.021 N 
ATOM      9  H7  UNL     1     -21.140 -31.175  -4.619  1.00  0.00     0.203 HD
ENDROOT
BRANCH   7  10
HETATM   10  N5  UNL     1     -20.440 -33.554  -3.923  1.00  0.00    -0.189 N 
ATOM     11  H5  UNL     1     -19.428 -33.668  -3.981  1.00  0.00     0.184 HD
BRANCH  10  12
HETATM   12  C10 UNL     1     -21.202 -34.453  -4.663  1.00  0.00     0.071 A 
HETATM   13  C11 UNL     1     -21.645 -35.635  -4.119  1.00  0.00     0.041 A 
HETATM   14  C12 UNL     1     -22.404 -36.544  -4.840  1.00  0.00    -0.037 A 
HETATM   15  C16 UNL     1     -22.713 -36.232  -6.142  1.00  0.00     0.095 A 
HETATM   16  N6  UNL     1     -22.279 -35.074  -6.675  1.00  0.00    -0.367 N 
HETATM   17  C17 UNL     1     -21.531 -34.177  -5.968  1.00  0.00     0.032 A 
ATOM     18  H6  UNL     1     -22.519 -34.858  -7.642  1.00  0.00     0.165 HD
HETATM   19  C18 UNL     1     -21.100 -32.919  -6.655  1.00  0.00     0.070 C 
BRANCH  14  20
HETATM   20  C13 UNL     1     -22.877 -37.822  -4.234  1.00  0.00     0.012 C 
HETATM   21  C14 UNL     1     -23.009 -37.639  -2.734  1.00  0.00     0.015 C 
HETATM   22  C15 UNL     1     -24.287 -38.063  -4.767  1.00  0.00     0.015 C 
ENDBRANCH  14  20
ENDBRANCH  10  12
ENDBRANCH   7  10
BRANCH   4  23
HETATM   23  N3  UNL     1     -21.453 -32.189   0.278  1.00  0.00    -0.225 N 
ATOM     24  H3  UNL     1     -21.717 -31.468   0.950  1.00  0.00     0.177 HD
BRANCH  23  25
HETATM   25  C5  UNL     1     -21.158 -33.533   0.716  1.00  0.00     0.142 C 
BRANCH  25  26
HETATM   26  C6  UNL     1     -22.385 -34.331   1.028  1.00  0.00    -0.004 C 
HETATM   27  C7  UNL     1     -22.361 -34.932   2.409  1.00  0.00     0.011 C 
HETATM   28  C8  UNL     1     -22.433 -35.491   0.040  1.00  0.00     0.011 C 
ENDBRANCH  25  26
ENDBRANCH  23  25
ENDBRANCH   4  23
BRANCH   1  29
HETATM   29  N1  UNL     1     -21.977 -29.241  -3.163  1.00  0.00    -0.225 N 
ATOM     30  H1  UNL     1     -22.292 -28.577  -2.455  1.00  0.00     0.177 HD
BRANCH  29  31
HETATM   31  C2  UNL     1     -21.941 -28.809  -4.533  1.00  0.00     0.133 C 
HETATM   32  C1  UNL     1     -21.912 -27.290  -4.613  1.00  0.00     0.027 C 
ENDBRANCH  29  31
ENDBRANCH   1  29
TORSDOF 8
ENDMDL
