MODEL 1
REMARK VINA RESULT: -7.872251631      0.000      0.000
REMARK  7 active torsions:
REMARK  status: ('A' for Active; 'I' for Inactive)
REMARK    1  A    between atoms: C2_2  and  C3_3 
REMARK    2  A    between atoms: C3_3  and  C5_5 
REMARK    3  A    between atoms: C5_5  and  N1_6 
REMARK    4  A    between atoms: C5_5  and  C6_10 
REMARK       I    between atoms: C6_10  and  N2_12 
REMARK    5  A    between atoms: N2_12  and  C7_14 
REMARK    6  A    between atoms: C11_24  and  C12_25 
REMARK    7  A    between atoms: C11_24  and  C14_27 
ROOT
HETATM    1  C7  UNL     1     -22.900 -33.187  -5.149  1.00  0.00     0.153 A 
HETATM    2  N3  UNL     1     -22.899 -34.210  -4.305  1.00  0.00    -0.337 N 
ATOM      3  H3  UNL     1     -23.074 -34.063  -3.312  1.00  0.00     0.168 HD
HETATM    4  C8  UNL     1     -22.671 -35.409  -4.769  1.00  0.00     0.046 A 
HETATM    5  C9  UNL     1     -22.442 -35.556  -6.103  1.00  0.00     0.102 A 
HETATM    6  S1  UNL     1     -22.567 -33.920  -6.653  1.00  0.00    -0.034 SA
HETATM    7  N4  UNL     1     -22.210 -36.809  -6.757  1.00  0.00    -0.319 N 
ATOM      8  H4  UNL     1     -22.042 -36.837  -7.763  1.00  0.00     0.169 HD
HETATM    9  C10 UNL     1     -22.213 -38.033  -5.988  1.00  0.00     0.231 C 
HETATM   10  O2  UNL     1     -21.622 -39.040  -6.339  1.00  0.00    -0.272 OA
HETATM   11  C11 UNL     1     -23.035 -37.878  -4.726  1.00  0.00     0.046 C 
HETATM   12  C16 UNL     1     -22.610 -36.685  -3.951  1.00  0.00     0.079 C 
ENDROOT
BRANCH   1  13
HETATM   13  N2  UNL     1     -23.112 -31.915  -4.873  1.00  0.00    -0.305 N 
HETATM   14  C6  UNL     1     -22.077 -31.161  -4.244  1.00  0.00     0.254 C 
HETATM   15  O1  UNL     1     -21.110 -30.851  -4.979  1.00  0.00    -0.271 OA
ATOM     16  H2  UNL     1     -24.003 -31.476  -5.104  1.00  0.00     0.171 HD
BRANCH  14  17
HETATM   17  C5  UNL     1     -22.097 -30.755  -2.840  1.00  0.00     0.278 C 
BRANCH  17  18
HETATM   18  C3  UNL     1     -21.091 -31.363  -1.934  1.00  0.00     0.021 C 
HETATM   19  C4  UNL     1     -21.188 -32.877  -1.845  1.00  0.00     0.012 C 
BRANCH  18  20
HETATM   20  C2  UNL     1     -20.855 -30.737  -0.610  1.00  0.00     0.002 C 
HETATM   21  C1  UNL     1     -21.167 -31.555   0.591  1.00  0.00     0.005 C 
ENDBRANCH  18  20
ENDBRANCH  17  18
BRANCH  17  22
HETATM   22  N1  UNL     1     -21.761 -29.299  -2.861  1.00  0.00    -0.066 N 
ATOM     23  H13 UNL     1     -21.632 -28.890  -1.935  1.00  0.00     0.275 HD
ATOM     24  H12 UNL     1     -20.824 -29.095  -3.209  1.00  0.00     0.275 HD
ATOM     25  H11 UNL     1     -22.508 -28.867  -3.404  1.00  0.00     0.275 HD
ENDBRANCH  17  22
ENDBRANCH  14  17
ENDBRANCH   1  13
BRANCH  11  26
HETATM   26  C12 UNL     1     -24.496 -37.766  -5.055  1.00  0.00     0.015 C 
HETATM   27  C13 UNL     1     -25.036 -39.022  -5.706  1.00  0.00     0.006 C 
ENDBRANCH  11  26
BRANCH  11  28
HETATM   28  C14 UNL     1     -22.771 -39.107  -3.913  1.00  0.00     0.015 C 
HETATM   29  C15 UNL     1     -23.097 -38.938  -2.456  1.00  0.00     0.006 C 
ENDBRANCH  11  28
TORSDOF 7
ENDMDL
MODEL 2
REMARK VINA RESULT: -7.442890862      3.407      6.079
REMARK  7 active torsions:
REMARK  status: ('A' for Active; 'I' for Inactive)
REMARK    1  A    between atoms: C2_2  and  C3_3 
REMARK    2  A    between atoms: C3_3  and  C5_5 
REMARK    3  A    between atoms: C5_5  and  N1_6 
REMARK    4  A    between atoms: C5_5  and  C6_10 
REMARK       I    between atoms: C6_10  and  N2_12 
REMARK    5  A    between atoms: N2_12  and  C7_14 
REMARK    6  A    between atoms: C11_24  and  C12_25 
REMARK    7  A    between atoms: C11_24  and  C14_27 
ROOT
HETATM    1  C7  UNL     1     -21.554 -35.242  -1.965  1.00  0.00     0.153 A 
HETATM    2  N3  UNL     1     -21.553 -33.919  -2.051  1.00  0.00    -0.337 N 
ATOM      3  H3  UNL     1     -21.261 -33.348  -1.259  1.00  0.00     0.168 HD
HETATM    4  C8  UNL     1     -21.934 -33.361  -3.169  1.00  0.00     0.046 A 
HETATM    5  C9  UNL     1     -22.317 -34.165  -4.198  1.00  0.00     0.102 A 
HETATM    6  S1  UNL     1     -22.109 -35.735  -3.501  1.00  0.00    -0.034 SA
HETATM    7  N4  UNL     1     -22.726 -33.697  -5.488  1.00  0.00    -0.319 N 
ATOM      8  H4  UNL     1     -23.003 -34.363  -6.210  1.00  0.00     0.169 HD
HETATM    9  C10 UNL     1     -22.748 -32.278  -5.766  1.00  0.00     0.231 C 
HETATM   10  O2  UNL     1     -23.459 -31.779  -6.621  1.00  0.00    -0.272 OA
HETATM   11  C11 UNL     1     -21.785 -31.536  -4.864  1.00  0.00     0.046 C 
HETATM   12  C16 UNL     1     -22.018 -31.870  -3.437  1.00  0.00     0.079 C 
ENDROOT
BRANCH   1  13
HETATM   13  N2  UNL     1     -21.203 -35.982  -0.931  1.00  0.00    -0.305 N 
HETATM   14  C6  UNL     1     -22.000 -35.942   0.252  1.00  0.00     0.254 C 
HETATM   15  O1  UNL     1     -23.099 -36.539   0.184  1.00  0.00    -0.271 OA
ATOM     16  H2  UNL     1     -20.374 -36.574  -0.976  1.00  0.00     0.171 HD
BRANCH  14  17
HETATM   17  C5  UNL     1     -21.602 -35.261   1.483  1.00  0.00     0.278 C 
BRANCH  17  18
HETATM   18  C3  UNL     1     -21.938 -33.821   1.611  1.00  0.00     0.021 C 
HETATM   19  C4  UNL     1     -20.823 -32.893   1.157  1.00  0.00     0.012 C 
BRANCH  18  20
HETATM   20  C2  UNL     1     -22.587 -33.350   2.858  1.00  0.00     0.002 C 
HETATM   21  C1  UNL     1     -22.204 -32.002   3.354  1.00  0.00     0.005 C 
ENDBRANCH  18  20
ENDBRANCH  17  18
BRANCH  17  22
HETATM   22  N1  UNL     1     -22.391 -35.933   2.560  1.00  0.00    -0.066 N 
ATOM     23  H13 UNL     1     -21.950 -35.899   3.479  1.00  0.00     0.275 HD
ATOM     24  H12 UNL     1     -23.242 -35.437   2.821  1.00  0.00     0.275 HD
ATOM     25  H11 UNL     1     -22.552 -36.879   2.212  1.00  0.00     0.275 HD
ENDBRANCH  17  22
ENDBRANCH  14  17
ENDBRANCH   1  13
BRANCH  11  26
HETATM   26  C12 UNL     1     -20.363 -31.856  -5.227  1.00  0.00     0.015 C 
HETATM   27  C13 UNL     1     -19.974 -31.293  -6.577  1.00  0.00     0.006 C 
ENDBRANCH  11  26
BRANCH  11  28
HETATM   28  C14 UNL     1     -22.067 -30.080  -5.077  1.00  0.00     0.015 C 
HETATM   29  C15 UNL     1     -21.724 -29.229  -3.887  1.00  0.00     0.006 C 
ENDBRANCH  11  28
TORSDOF 7
ENDMDL
MODEL 3
REMARK VINA RESULT: -7.401794847      0.500      1.023
REMARK  7 active torsions:
REMARK  status: ('A' for Active; 'I' for Inactive)
REMARK    1  A    between atoms: C2_2  and  C3_3 
REMARK    2  A    between atoms: C3_3  and  C5_5 
REMARK    3  A    between atoms: C5_5  and  N1_6 
REMARK    4  A    between atoms: C5_5  and  C6_10 
REMARK       I    between atoms: C6_10  and  N2_12 
REMARK    5  A    between atoms: N2_12  and  C7_14 
REMARK    6  A    between atoms: C11_24  and  C12_25 
REMARK    7  A    between atoms: C11_24  and  C14_27 
ROOT
HETATM    1  C7  UNL     1     -22.920 -33.111  -5.429  1.00  0.00     0.153 A 
HETATM    2  N3  UNL     1     -22.916 -34.088  -4.533  1.00  0.00    -0.337 N 
ATOM      3  H3  UNL     1     -23.092 -33.889  -3.548  1.00  0.00     0.168 HD
HETATM    4  C8  UNL     1     -22.682 -35.309  -4.933  1.00  0.00     0.046 A 
HETATM    5  C9  UNL     1     -22.451 -35.524  -6.257  1.00  0.00     0.102 A 
HETATM    6  S1  UNL     1     -22.582 -33.920  -6.893  1.00  0.00    -0.034 SA
HETATM    7  N4  UNL     1     -22.213 -36.809  -6.845  1.00  0.00    -0.319 N 
ATOM      8  H4  UNL     1     -22.045 -36.889  -7.847  1.00  0.00     0.169 HD
HETATM    9  C10 UNL     1     -22.212 -37.991  -6.012  1.00  0.00     0.231 C 
HETATM   10  O2  UNL     1     -21.616 -39.013  -6.309  1.00  0.00    -0.272 OA
HETATM   11  C11 UNL     1     -23.035 -37.773  -4.761  1.00  0.00     0.046 C 
HETATM   12  C16 UNL     1     -22.617 -36.540  -4.049  1.00  0.00     0.079 C 
ENDROOT
BRANCH   1  13
HETATM   13  N2  UNL     1     -23.138 -31.826  -5.220  1.00  0.00    -0.305 N 
HETATM   14  C6  UNL     1     -22.177 -31.073  -4.482  1.00  0.00     0.254 C 
HETATM   15  O1  UNL     1     -21.116 -30.804  -5.091  1.00  0.00    -0.271 OA
ATOM     16  H2  UNL     1     -23.980 -31.379  -5.580  1.00  0.00     0.171 HD
BRANCH  14  17
HETATM   17  C5  UNL     1     -22.373 -30.622  -3.105  1.00  0.00     0.278 C 
BRANCH  17  18
HETATM   18  C3  UNL     1     -21.709 -31.397  -2.027  1.00  0.00     0.021 C 
HETATM   19  C4  UNL     1     -20.881 -30.541  -1.083  1.00  0.00     0.012 C 
BRANCH  18  20
HETATM   20  C2  UNL     1     -21.025 -32.665  -2.380  1.00  0.00     0.002 C 
HETATM   21  C1  UNL     1     -21.324 -33.853  -1.540  1.00  0.00     0.005 C 
ENDBRANCH  18  20
ENDBRANCH  17  18
BRANCH  17  22
HETATM   22  N1  UNL     1     -21.735 -29.272  -3.053  1.00  0.00    -0.066 N 
ATOM     23  H13 UNL     1     -20.866 -29.204  -3.581  1.00  0.00     0.275 HD
ATOM     24  H12 UNL     1     -22.242 -28.554  -3.570  1.00  0.00     0.275 HD
ATOM     25  H11 UNL     1     -21.632 -29.072  -2.058  1.00  0.00     0.275 HD
ENDBRANCH  17  22
ENDBRANCH  14  17
ENDBRANCH   1  13
BRANCH  11  26
HETATM   26  C12 UNL     1     -24.497 -37.685  -5.095  1.00  0.00     0.015 C 
HETATM   27  C13 UNL     1     -25.044 -38.992  -5.628  1.00  0.00     0.006 C 
ENDBRANCH  11  26
BRANCH  11  28
HETATM   28  C14 UNL     1     -22.767 -38.958  -3.884  1.00  0.00     0.015 C 
HETATM   29  C15 UNL     1     -23.115 -38.720  -2.442  1.00  0.00     0.006 C 
ENDBRANCH  11  28
TORSDOF 7
ENDMDL
MODEL 4
REMARK VINA RESULT: -7.198973074      4.203      5.960
REMARK  7 active torsions:
REMARK  status: ('A' for Active; 'I' for Inactive)
REMARK    1  A    between atoms: C2_2  and  C3_3 
REMARK    2  A    between atoms: C3_3  and  C5_5 
REMARK    3  A    between atoms: C5_5  and  N1_6 
REMARK    4  A    between atoms: C5_5  and  C6_10 
REMARK       I    between atoms: C6_10  and  N2_12 
REMARK    5  A    between atoms: N2_12  and  C7_14 
REMARK    6  A    between atoms: C11_24  and  C12_25 
REMARK    7  A    between atoms: C11_24  and  C14_27 
ROOT
HETATM    1  C7  UNL     1     -21.928 -28.892  -4.702  1.00  0.00     0.153 A 
HETATM    2  N3  UNL     1     -21.988 -29.623  -3.597  1.00  0.00    -0.337 N 
ATOM      3  H3  UNL     1     -22.402 -29.243  -2.746  1.00  0.00     0.168 HD
HETATM    4  C8  UNL     1     -21.508 -30.838  -3.619  1.00  0.00     0.046 A 
HETATM    5  C9  UNL     1     -20.965 -31.300  -4.779  1.00  0.00     0.102 A 
HETATM    6  S1  UNL     1     -21.170 -29.935  -5.821  1.00  0.00    -0.034 SA
HETATM    7  N4  UNL     1     -20.432 -32.617  -4.960  1.00  0.00    -0.319 N 
ATOM      8  H4  UNL     1     -20.038 -32.890  -5.860  1.00  0.00     0.169 HD
HETATM    9  C10 UNL     1     -20.453 -33.559  -3.863  1.00  0.00     0.231 C 
HETATM   10  O2  UNL     1     -19.673 -34.492  -3.773  1.00  0.00    -0.272 OA
HETATM   11  C11 UNL     1     -21.553 -33.221  -2.879  1.00  0.00     0.046 C 
HETATM   12  C16 UNL     1     -21.472 -31.803  -2.449  1.00  0.00     0.079 C 
ENDROOT
BRANCH   1  13
HETATM   13  N2  UNL     1     -22.359 -27.657  -4.876  1.00  0.00    -0.305 N 
HETATM   14  C6  UNL     1     -21.407 -26.617  -5.094  1.00  0.00     0.254 C 
HETATM   15  O1  UNL     1     -20.873 -26.601  -6.227  1.00  0.00    -0.271 OA
ATOM     16  H2  UNL     1     -23.357 -27.450  -4.854  1.00  0.00     0.171 HD
BRANCH  14  17
HETATM   17  C5  UNL     1     -21.048 -25.614  -4.093  1.00  0.00     0.278 C 
BRANCH  17  18
HETATM   18  C3  UNL     1     -20.544 -24.306  -4.581  1.00  0.00     0.021 C 
HETATM   19  C4  UNL     1     -19.332 -23.797  -3.819  1.00  0.00     0.012 C 
BRANCH  18  20
HETATM   20  C2  UNL     1     -21.521 -23.227  -4.865  1.00  0.00     0.002 C 
HETATM   21  C1  UNL     1     -21.303 -22.421  -6.094  1.00  0.00     0.005 C 
ENDBRANCH  18  20
ENDBRANCH  17  18
BRANCH  17  22
HETATM   22  N1  UNL     1     -22.331 -25.293  -3.399  1.00  0.00    -0.066 N 
ATOM     23  H13 UNL     1     -22.345 -24.374  -2.956  1.00  0.00     0.275 HD
ATOM     24  H12 UNL     1     -23.114 -25.127  -4.032  1.00  0.00     0.275 HD
ATOM     25  H11 UNL     1     -22.478 -26.067  -2.751  1.00  0.00     0.275 HD
ENDBRANCH  17  22
ENDBRANCH  14  17
ENDBRANCH   1  13
BRANCH  11  26
HETATM   26  C12 UNL     1     -22.903 -33.484  -3.482  1.00  0.00     0.015 C 
HETATM   27  C13 UNL     1     -23.073 -34.929  -3.901  1.00  0.00     0.006 C 
ENDBRANCH  11  26
BRANCH  11  28
HETATM   28  C14 UNL     1     -21.325 -34.105  -1.692  1.00  0.00     0.015 C 
HETATM   29  C15 UNL     1     -21.366 -33.366  -0.385  1.00  0.00     0.006 C 
ENDBRANCH  11  28
TORSDOF 7
ENDMDL
MODEL 5
REMARK VINA RESULT: -6.854428008      2.954      3.731
REMARK  7 active torsions:
REMARK  status: ('A' for Active; 'I' for Inactive)
REMARK    1  A    between atoms: C2_2  and  C3_3 
REMARK    2  A    between atoms: C3_3  and  C5_5 
REMARK    3  A    between atoms: C5_5  and  N1_6 
REMARK    4  A    between atoms: C5_5  and  C6_10 
REMARK       I    between atoms: C6_10  and  N2_12 
REMARK    5  A    between atoms: N2_12  and  C7_14 
REMARK    6  A    between atoms: C11_24  and  C12_25 
REMARK    7  A    between atoms: C11_24  and  C14_27 
ROOT
HETATM    1  C7  UNL     1     -22.733 -36.190  -2.984  1.00  0.00     0.153 A 
HETATM    2  N3  UNL     1     -23.066 -37.468  -3.090  1.00  0.00    -0.337 N 
ATOM      3  H3  UNL     1     -23.504 -37.958  -2.310  1.00  0.00     0.168 HD
HETATM    4  C8  UNL     1     -22.824 -38.091  -4.213  1.00  0.00     0.046 A 
HETATM    5  C9  UNL     1     -22.238 -37.395  -5.226  1.00  0.00     0.102 A 
HETATM    6  S1  UNL     1     -22.052 -35.833  -4.507  1.00  0.00    -0.034 SA
HETATM    7  N4  UNL     1     -21.943 -37.935  -6.520  1.00  0.00    -0.319 N 
ATOM      8  H4  UNL     1     -21.498 -37.351  -7.228  1.00  0.00     0.169 HD
HETATM    9  C10 UNL     1     -22.276 -39.310  -6.820  1.00  0.00     0.231 C 
HETATM   10  O2  UNL     1     -21.703 -39.961  -7.676  1.00  0.00    -0.272 OA
HETATM   11  C11 UNL     1     -23.406 -39.797  -5.939  1.00  0.00     0.046 C 
HETATM   12  C16 UNL     1     -23.116 -39.551  -4.504  1.00  0.00     0.079 C 
ENDROOT
BRANCH   1  13
HETATM   13  N2  UNL     1     -22.900 -35.398  -1.941  1.00  0.00    -0.305 N 
HETATM   14  C6  UNL     1     -21.756 -34.991  -1.192  1.00  0.00     0.254 C 
HETATM   15  O1  UNL     1     -21.028 -34.132  -1.741  1.00  0.00    -0.271 OA
ATOM     16  H2  UNL     1     -23.832 -35.083  -1.675  1.00  0.00     0.171 HD
BRANCH  14  17
HETATM   17  C5  UNL     1     -21.416 -35.512   0.131  1.00  0.00     0.278 C 
BRANCH  17  18
HETATM   18  C3  UNL     1     -21.612 -34.612   1.295  1.00  0.00     0.021 C 
HETATM   19  C4  UNL     1     -22.528 -35.187   2.362  1.00  0.00     0.012 C 
BRANCH  18  20
HETATM   20  C2  UNL     1     -21.875 -33.174   1.046  1.00  0.00     0.002 C 
HETATM   21  C1  UNL     1     -20.730 -32.239   1.201  1.00  0.00     0.005 C 
ENDBRANCH  18  20
ENDBRANCH  17  18
BRANCH  17  22
HETATM   22  N1  UNL     1     -22.375 -36.636   0.353  1.00  0.00    -0.066 N 
ATOM     23  H13 UNL     1     -22.148 -37.221   1.158  1.00  0.00     0.275 HD
ATOM     24  H12 UNL     1     -23.294 -36.339   0.681  1.00  0.00     0.275 HD
ATOM     25  H11 UNL     1     -22.394 -37.141  -0.533  1.00  0.00     0.275 HD
ENDBRANCH  17  22
ENDBRANCH  14  17
ENDBRANCH   1  13
BRANCH  11  26
HETATM   26  C12 UNL     1     -24.697 -39.123  -6.309  1.00  0.00     0.015 C 
HETATM   27  C13 UNL     1     -25.120 -39.436  -7.729  1.00  0.00     0.006 C 
ENDBRANCH  11  26
BRANCH  11  28
HETATM   28  C14 UNL     1     -23.498 -41.274  -6.171  1.00  0.00     0.015 C 
HETATM   29  C15 UNL     1     -23.152 -42.089  -4.958  1.00  0.00     0.006 C 
ENDBRANCH  11  28
TORSDOF 7
ENDMDL
