MODEL 1
REMARK VINA RESULT: -8.127016533      0.000      0.000
REMARK  7 active torsions:
REMARK  status: ('A' for Active; 'I' for Inactive)
REMARK    1  A    between atoms: N1_2  and  C2_4 
REMARK    2  A    between atoms: C2_4  and  C4_6 
REMARK    3  A    between atoms: C4_6  and  C5_7 
REMARK    4  A    between atoms: C5_7  and  O1_8 
REMARK    5  A    between atoms: C5_7  and  C6_10 
REMARK    6  A    between atoms: C6_10  and  C7_11 
REMARK    7  A    between atoms: C7_11  and  C8_15 
REMARK       I    between atoms: N3_23  and  C16_25 
REMARK       I    between atoms: C16_25  and  N4_27 
REMARK       I    between atoms: N4_27  and  C17_29 
ROOT
HETATM    1  C8  UNL     1     -22.690 -31.751  -5.860  1.00  0.00     0.076 C 
HETATM    2  C9  UNL     1     -21.655 -31.259  -6.824  1.00  0.00     0.017 C 
HETATM    3  C10 UNL     1     -21.639 -31.949  -8.135  1.00  0.00     0.010 C 
HETATM    4  C11 UNL     1     -22.629 -33.060  -8.277  1.00  0.00    -0.043 C 
HETATM    5  C12 UNL     1     -24.002 -32.563  -8.737  1.00  0.00     0.015 C 
HETATM    6  C13 UNL     1     -22.119 -33.945  -9.427  1.00  0.00     0.015 C 
HETATM    7  C14 UNL     1     -22.736 -33.947  -7.086  1.00  0.00     0.062 C 
HETATM    8  C15 UNL     1     -22.666 -33.207  -5.803  1.00  0.00     0.001 C 
HETATM    9  N3  UNL     1     -22.592 -33.905  -4.724  1.00  0.00    -0.315 N 
ATOM     10  H3  UNL     1     -22.545 -33.424  -3.825  1.00  0.00     0.170 HD
HETATM   11  C16 UNL     1     -22.573 -35.350  -4.747  1.00  0.00     0.326 C 
HETATM   12  O2  UNL     1     -21.508 -35.981  -4.716  1.00  0.00    -0.247 OA
HETATM   13  N4  UNL     1     -23.833 -35.985  -4.805  1.00  0.00    -0.279 N 
ATOM     14  H4  UNL     1     -24.680 -35.417  -4.828  1.00  0.00     0.173 HD
HETATM   15  C17 UNL     1     -23.940 -37.375  -4.830  1.00  0.00     0.221 C 
HETATM   16  C18 UNL     1     -22.752 -38.250  -4.798  1.00  0.00     0.117 C 
HETATM   17  O3  UNL     1     -25.088 -37.903  -4.883  1.00  0.00    -0.274 OA
ENDROOT
BRANCH   1  18
HETATM   18  C7  UNL     1     -22.577 -31.055  -4.556  1.00  0.00    -0.008 C 
HETATM   19  N2  UNL     1     -23.360 -30.083  -4.333  1.00  0.00    -0.405 N 
ATOM     20  H22 UNL     1     -23.282 -29.604  -3.436  1.00  0.00     0.155 HD
ATOM     21  H21 UNL     1     -24.068 -29.840  -5.026  1.00  0.00     0.155 HD
BRANCH  18  22
HETATM   22  C6  UNL     1     -21.552 -31.405  -3.554  1.00  0.00     0.084 C 
BRANCH  22  23
HETATM   23  C5  UNL     1     -21.595 -30.659  -2.272  1.00  0.00     0.125 C 
BRANCH  23  24
HETATM   24  C4  UNL     1     -20.671 -31.111  -1.197  1.00  0.00     0.056 C 
BRANCH  24  25
HETATM   25  C2  UNL     1     -21.512 -31.958  -0.229  1.00  0.00     0.078 C 
HETATM   26  C3  UNL     1     -21.154 -31.617   1.182  1.00  0.00     0.032 C 
BRANCH  25  27
HETATM   27  N1  UNL     1     -21.327 -33.353  -0.507  1.00  0.00    -0.404 N 
HETATM   28  C1  UNL     1     -21.773 -34.237   0.299  1.00  0.00     0.112 C 
ATOM     29  H1  UNL     1     -20.837 -33.640  -1.354  1.00  0.00     0.158 HD
ENDBRANCH  25  27
ENDBRANCH  24  25
ENDBRANCH  23  24
BRANCH  23  30
HETATM   30  O1  UNL     1     -21.333 -29.297  -2.505  1.00  0.00    -0.395 OA
ATOM     31  H1  UNL     1     -21.644 -29.095  -3.380  1.00  0.00     0.210 HD
ENDBRANCH  23  30
ENDBRANCH  22  23
ENDBRANCH  18  22
ENDBRANCH   1  18
TORSDOF 7
ENDMDL
MODEL 2
REMARK VINA RESULT: -7.682448939      1.171      1.346
REMARK  7 active torsions:
REMARK  status: ('A' for Active; 'I' for Inactive)
REMARK    1  A    between atoms: N1_2  and  C2_4 
REMARK    2  A    between atoms: C2_4  and  C4_6 
REMARK    3  A    between atoms: C4_6  and  C5_7 
REMARK    4  A    between atoms: C5_7  and  O1_8 
REMARK    5  A    between atoms: C5_7  and  C6_10 
REMARK    6  A    between atoms: C6_10  and  C7_11 
REMARK    7  A    between atoms: C7_11  and  C8_15 
REMARK       I    between atoms: N3_23  and  C16_25 
REMARK       I    between atoms: C16_25  and  N4_27 
REMARK       I    between atoms: N4_27  and  C17_29 
ROOT
HETATM    1  C8  UNL     1     -22.076 -31.524  -4.941  1.00  0.00     0.076 C 
HETATM    2  C9  UNL     1     -20.800 -31.022  -5.541  1.00  0.00     0.017 C 
HETATM    3  C10 UNL     1     -20.446 -31.613  -6.853  1.00  0.00     0.010 C 
HETATM    4  C11 UNL     1     -21.396 -32.652  -7.355  1.00  0.00    -0.043 C 
HETATM    5  C12 UNL     1     -22.571 -32.045  -8.126  1.00  0.00     0.015 C 
HETATM    6  C13 UNL     1     -20.619 -33.477  -8.394  1.00  0.00     0.015 C 
HETATM    7  C14 UNL     1     -21.858 -33.618  -6.319  1.00  0.00     0.062 C 
HETATM    8  C15 UNL     1     -22.119 -32.979  -5.007  1.00  0.00     0.001 C 
HETATM    9  N3  UNL     1     -22.369 -33.759  -4.012  1.00  0.00    -0.315 N 
ATOM     10  H3  UNL     1     -22.555 -33.349  -3.097  1.00  0.00     0.170 HD
HETATM   11  C16 UNL     1     -22.394 -35.197  -4.154  1.00  0.00     0.326 C 
HETATM   12  O2  UNL     1     -21.400 -35.888  -3.890  1.00  0.00    -0.247 OA
HETATM   13  N4  UNL     1     -23.610 -35.754  -4.608  1.00  0.00    -0.279 N 
ATOM     14  H4  UNL     1     -24.398 -35.139  -4.811  1.00  0.00     0.173 HD
HETATM   15  C17 UNL     1     -23.753 -37.130  -4.782  1.00  0.00     0.221 C 
HETATM   16  C18 UNL     1     -22.651 -38.071  -4.504  1.00  0.00     0.117 C 
HETATM   17  O3  UNL     1     -24.859 -37.586  -5.191  1.00  0.00    -0.274 OA
ENDROOT
BRANCH   1  18
HETATM   18  C7  UNL     1     -22.303 -30.934  -3.600  1.00  0.00    -0.008 C 
HETATM   19  N2  UNL     1     -23.487 -30.599  -3.292  1.00  0.00    -0.405 N 
ATOM     20  H22 UNL     1     -23.643 -30.193  -2.370  1.00  0.00     0.155 HD
ATOM     21  H21 UNL     1     -24.247 -30.785  -3.947  1.00  0.00     0.155 HD
BRANCH  18  22
HETATM   22  C6  UNL     1     -21.204 -30.665  -2.654  1.00  0.00     0.084 C 
BRANCH  22  23
HETATM   23  C5  UNL     1     -21.301 -31.314  -1.322  1.00  0.00     0.125 C 
BRANCH  23  24
HETATM   24  C4  UNL     1     -20.760 -32.695  -1.203  1.00  0.00     0.056 C 
BRANCH  24  25
HETATM   25  C2  UNL     1     -21.701 -33.449  -0.249  1.00  0.00     0.078 C 
HETATM   26  C3  UNL     1     -21.120 -33.459   1.129  1.00  0.00     0.032 C 
BRANCH  25  27
HETATM   27  N1  UNL     1     -21.940 -34.775  -0.740  1.00  0.00    -0.404 N 
HETATM   28  C1  UNL     1     -21.937 -35.770   0.060  1.00  0.00     0.112 C 
ATOM     29  H1  UNL     1     -22.114 -34.923  -1.734  1.00  0.00     0.158 HD
ENDBRANCH  25  27
ENDBRANCH  24  25
ENDBRANCH  23  24
BRANCH  23  30
HETATM   30  O1  UNL     1     -20.649 -30.523  -0.359  1.00  0.00    -0.395 OA
ATOM     31  H1  UNL     1     -21.260 -29.849  -0.085  1.00  0.00     0.210 HD
ENDBRANCH  23  30
ENDBRANCH  22  23
ENDBRANCH  18  22
ENDBRANCH   1  18
TORSDOF 7
ENDMDL
MODEL 3
REMARK VINA RESULT: -7.450426739      2.553      4.820
REMARK  7 active torsions:
REMARK  status: ('A' for Active; 'I' for Inactive)
REMARK    1  A    between atoms: N1_2  and  C2_4 
REMARK    2  A    between atoms: C2_4  and  C4_6 
REMARK    3  A    between atoms: C4_6  and  C5_7 
REMARK    4  A    between atoms: C5_7  and  O1_8 
REMARK    5  A    between atoms: C5_7  and  C6_10 
REMARK    6  A    between atoms: C6_10  and  C7_11 
REMARK    7  A    between atoms: C7_11  and  C8_15 
REMARK       I    between atoms: N3_23  and  C16_25 
REMARK       I    between atoms: C16_25  and  N4_27 
REMARK       I    between atoms: N4_27  and  C17_29 
ROOT
HETATM    1  C8  UNL     1     -22.189 -33.764  -3.320  1.00  0.00     0.076 C 
HETATM    2  C9  UNL     1     -21.065 -33.058  -2.626  1.00  0.00     0.017 C 
HETATM    3  C10 UNL     1     -20.950 -31.612  -2.926  1.00  0.00     0.010 C 
HETATM    4  C11 UNL     1     -21.948 -31.088  -3.908  1.00  0.00    -0.043 C 
HETATM    5  C12 UNL     1     -23.265 -30.682  -3.242  1.00  0.00     0.015 C 
HETATM    6  C13 UNL     1     -21.359 -29.779  -4.461  1.00  0.00     0.015 C 
HETATM    7  C14 UNL     1     -22.176 -31.972  -5.085  1.00  0.00     0.062 C 
HETATM    8  C15 UNL     1     -22.202 -33.411  -4.734  1.00  0.00     0.001 C 
HETATM    9  N3  UNL     1     -22.236 -34.255  -5.707  1.00  0.00    -0.315 N 
ATOM     10  H3  UNL     1     -22.256 -35.252  -5.497  1.00  0.00     0.170 HD
HETATM   11  C16 UNL     1     -22.246 -33.829  -7.088  1.00  0.00     0.326 C 
HETATM   12  O2  UNL     1     -21.200 -33.764  -7.750  1.00  0.00    -0.247 OA
HETATM   13  N4  UNL     1     -23.509 -33.498  -7.626  1.00  0.00    -0.279 N 
ATOM     14  H4  UNL     1     -24.338 -33.570  -7.036  1.00  0.00     0.173 HD
HETATM   15  C17 UNL     1     -23.643 -33.076  -8.948  1.00  0.00     0.221 C 
HETATM   16  C18 UNL     1     -22.481 -32.953  -9.849  1.00  0.00     0.117 C 
HETATM   17  O3  UNL     1     -24.793 -32.789  -9.388  1.00  0.00    -0.274 OA
ENDROOT
BRANCH   1  18
HETATM   18  C7  UNL     1     -22.175 -35.215  -3.019  1.00  0.00    -0.008 C 
HETATM   19  N2  UNL     1     -23.030 -35.950  -3.598  1.00  0.00    -0.405 N 
ATOM     20  H22 UNL     1     -23.020 -36.948  -3.391  1.00  0.00     0.155 HD
ATOM     21  H21 UNL     1     -23.666 -35.536  -4.281  1.00  0.00     0.155 HD
BRANCH  18  22
HETATM   22  C6  UNL     1     -21.257 -35.812  -2.030  1.00  0.00     0.084 C 
BRANCH  22  23
HETATM   23  C5  UNL     1     -21.861 -36.267  -0.753  1.00  0.00     0.125 C 
BRANCH  23  24
HETATM   24  C4  UNL     1     -22.706 -35.286  -0.019  1.00  0.00     0.056 C 
BRANCH  24  25
HETATM   25  C2  UNL     1     -21.859 -34.783   1.162  1.00  0.00     0.078 C 
HETATM   26  C3  UNL     1     -22.372 -35.373   2.437  1.00  0.00     0.032 C 
BRANCH  25  27
HETATM   27  N1  UNL     1     -21.863 -33.350   1.194  1.00  0.00    -0.404 N 
HETATM   28  C1  UNL     1     -20.765 -32.699   1.135  1.00  0.00     0.112 C 
ATOM     29  H1  UNL     1     -22.747 -32.846   1.265  1.00  0.00     0.158 HD
ENDBRANCH  25  27
ENDBRANCH  24  25
ENDBRANCH  23  24
BRANCH  23  30
HETATM   30  O1  UNL     1     -22.647 -37.411  -0.980  1.00  0.00    -0.395 OA
ATOM     31  H1  UNL     1     -22.118 -38.167  -0.758  1.00  0.00     0.210 HD
ENDBRANCH  23  30
ENDBRANCH  22  23
ENDBRANCH  18  22
ENDBRANCH   1  18
TORSDOF 7
ENDMDL
MODEL 4
REMARK VINA RESULT: -7.409225190      2.962      4.192
REMARK  7 active torsions:
REMARK  status: ('A' for Active; 'I' for Inactive)
REMARK    1  A    between atoms: N1_2  and  C2_4 
REMARK    2  A    between atoms: C2_4  and  C4_6 
REMARK    3  A    between atoms: C4_6  and  C5_7 
REMARK    4  A    between atoms: C5_7  and  O1_8 
REMARK    5  A    between atoms: C5_7  and  C6_10 
REMARK    6  A    between atoms: C6_10  and  C7_11 
REMARK    7  A    between atoms: C7_11  and  C8_15 
REMARK       I    between atoms: N3_23  and  C16_25 
REMARK       I    between atoms: C16_25  and  N4_27 
REMARK       I    between atoms: N4_27  and  C17_29 
ROOT
HETATM    1  C8  UNL     1     -22.045 -30.890  -5.705  1.00  0.00     0.076 C 
HETATM    2  C9  UNL     1     -20.790 -30.409  -6.366  1.00  0.00     0.017 C 
HETATM    3  C10 UNL     1     -20.398 -31.151  -7.587  1.00  0.00     0.010 C 
HETATM    4  C11 UNL     1     -21.292 -32.293  -7.947  1.00  0.00    -0.043 C 
HETATM    5  C12 UNL     1     -22.490 -31.853  -8.793  1.00  0.00     0.015 C 
HETATM    6  C13 UNL     1     -20.468 -33.210  -8.867  1.00  0.00     0.015 C 
HETATM    7  C14 UNL     1     -21.714 -33.134  -6.792  1.00  0.00     0.062 C 
HETATM    8  C15 UNL     1     -22.015 -32.341  -5.577  1.00  0.00     0.001 C 
HETATM    9  N3  UNL     1     -22.235 -32.994  -4.488  1.00  0.00    -0.315 N 
ATOM     10  H3  UNL     1     -22.447 -32.476  -3.635  1.00  0.00     0.170 HD
HETATM   11  C16 UNL     1     -22.188 -34.437  -4.438  1.00  0.00     0.326 C 
HETATM   12  O2  UNL     1     -21.163 -35.037  -4.083  1.00  0.00    -0.247 OA
HETATM   13  N4  UNL     1     -23.371 -35.109  -4.814  1.00  0.00    -0.279 N 
ATOM     14  H4  UNL     1     -24.187 -34.566  -5.098  1.00  0.00     0.173 HD
HETATM   15  C17 UNL     1     -23.446 -36.501  -4.804  1.00  0.00     0.221 C 
HETATM   16  C18 UNL     1     -22.301 -37.341  -4.403  1.00  0.00     0.117 C 
HETATM   17  O3  UNL     1     -24.525 -37.062  -5.150  1.00  0.00    -0.274 OA
ENDROOT
BRANCH   1  18
HETATM   18  C7  UNL     1     -22.310 -30.139  -4.455  1.00  0.00    -0.008 C 
HETATM   19  N2  UNL     1     -23.344 -30.445  -3.787  1.00  0.00    -0.405 N 
ATOM     20  H22 UNL     1     -23.527 -29.929  -2.927  1.00  0.00     0.155 HD
ATOM     21  H21 UNL     1     -23.931 -31.220  -4.099  1.00  0.00     0.155 HD
BRANCH  18  22
HETATM   22  C6  UNL     1     -21.463 -29.019  -4.005  1.00  0.00     0.084 C 
BRANCH  22  23
HETATM   23  C5  UNL     1     -21.910 -27.655  -4.383  1.00  0.00     0.125 C 
BRANCH  23  24
HETATM   24  C4  UNL     1     -21.124 -26.955  -5.435  1.00  0.00     0.056 C 
BRANCH  24  25
HETATM   25  C2  UNL     1     -21.201 -25.455  -5.108  1.00  0.00     0.078 C 
HETATM   26  C3  UNL     1     -19.991 -24.759  -5.645  1.00  0.00     0.032 C 
BRANCH  25  27
HETATM   27  N1  UNL     1     -21.344 -25.267  -3.693  1.00  0.00    -0.404 N 
HETATM   28  C1  UNL     1     -20.647 -24.386  -3.085  1.00  0.00     0.112 C 
ATOM     29  H1  UNL     1     -22.006 -25.840  -3.170  1.00  0.00     0.158 HD
ENDBRANCH  25  27
ENDBRANCH  24  25
ENDBRANCH  23  24
BRANCH  23  30
HETATM   30  O1  UNL     1     -23.247 -27.696  -4.816  1.00  0.00    -0.395 OA
ATOM     31  H1  UNL     1     -23.724 -27.038  -4.324  1.00  0.00     0.210 HD
ENDBRANCH  23  30
ENDBRANCH  22  23
ENDBRANCH  18  22
ENDBRANCH   1  18
TORSDOF 7
ENDMDL
MODEL 5
REMARK VINA RESULT: -7.405301829      2.301      2.613
REMARK  7 active torsions:
REMARK  status: ('A' for Active; 'I' for Inactive)
REMARK    1  A    between atoms: N1_2  and  C2_4 
REMARK    2  A    between atoms: C2_4  and  C4_6 
REMARK    3  A    between atoms: C4_6  and  C5_7 
REMARK    4  A    between atoms: C5_7  and  O1_8 
REMARK    5  A    between atoms: C5_7  and  C6_10 
REMARK    6  A    between atoms: C6_10  and  C7_11 
REMARK    7  A    between atoms: C7_11  and  C8_15 
REMARK       I    between atoms: N3_23  and  C16_25 
REMARK       I    between atoms: C16_25  and  N4_27 
REMARK       I    between atoms: N4_27  and  C17_29 
ROOT
HETATM    1  C8  UNL     1     -22.317 -33.391  -5.964  1.00  0.00     0.076 C 
HETATM    2  C9  UNL     1     -21.078 -32.807  -6.570  1.00  0.00     0.017 C 
HETATM    3  C10 UNL     1     -20.905 -33.065  -8.019  1.00  0.00     0.010 C 
HETATM    4  C11 UNL     1     -21.973 -33.904  -8.644  1.00  0.00    -0.043 C 
HETATM    5  C12 UNL     1     -23.177 -33.075  -9.098  1.00  0.00     0.015 C 
HETATM    6  C13 UNL     1     -21.369 -34.473  -9.938  1.00  0.00     0.015 C 
HETATM    7  C14 UNL     1     -22.390 -35.078  -7.828  1.00  0.00     0.062 C 
HETATM    8  C15 UNL     1     -22.467 -34.780  -6.378  1.00  0.00     0.001 C 
HETATM    9  N3  UNL     1     -22.666 -35.773  -5.583  1.00  0.00    -0.315 N 
ATOM     10  H3  UNL     1     -22.727 -35.599  -4.579  1.00  0.00     0.170 HD
HETATM   11  C16 UNL     1     -22.806 -37.127  -6.069  1.00  0.00     0.326 C 
HETATM   12  O2  UNL     1     -21.841 -37.903  -6.101  1.00  0.00    -0.247 OA
HETATM   13  N4  UNL     1     -24.098 -37.501  -6.497  1.00  0.00    -0.279 N 
ATOM     14  H4  UNL     1     -24.858 -36.823  -6.449  1.00  0.00     0.173 HD
HETATM   15  C17 UNL     1     -24.355 -38.782  -6.985  1.00  0.00     0.221 C 
HETATM   16  C18 UNL     1     -23.298 -39.808  -7.078  1.00  0.00     0.117 C 
HETATM   17  O3  UNL     1     -25.526 -39.075  -7.359  1.00  0.00    -0.274 OA
ENDROOT
BRANCH   1  18
HETATM   18  C7  UNL     1     -22.361 -33.148  -4.503  1.00  0.00    -0.008 C 
HETATM   19  N2  UNL     1     -23.380 -32.561  -4.029  1.00  0.00    -0.405 N 
ATOM     20  H22 UNL     1     -23.411 -32.393  -3.024  1.00  0.00     0.155 HD
ATOM     21  H21 UNL     1     -24.153 -32.318  -4.651  1.00  0.00     0.155 HD
BRANCH  18  22
HETATM   22  C6  UNL     1     -21.244 -33.498  -3.605  1.00  0.00     0.084 C 
BRANCH  22  23
HETATM   23  C5  UNL     1     -21.538 -34.484  -2.534  1.00  0.00     0.125 C 
BRANCH  23  24
HETATM   24  C4  UNL     1     -21.429 -34.006  -1.129  1.00  0.00     0.056 C 
BRANCH  24  25
HETATM   25  C2  UNL     1     -22.215 -35.008  -0.268  1.00  0.00     0.078 C 
HETATM   26  C3  UNL     1     -22.175 -34.581   1.165  1.00  0.00     0.032 C 
BRANCH  25  27
HETATM   27  N1  UNL     1     -21.689 -36.330  -0.448  1.00  0.00    -0.404 N 
HETATM   28  C1  UNL     1     -22.379 -37.350  -0.113  1.00  0.00     0.112 C 
ATOM     29  H1  UNL     1     -20.759 -36.455  -0.847  1.00  0.00     0.158 HD
ENDBRANCH  25  27
ENDBRANCH  24  25
ENDBRANCH  23  24
BRANCH  23  30
HETATM   30  O1  UNL     1     -22.835 -34.998  -2.703  1.00  0.00    -0.395 OA
ATOM     31  H1  UNL     1     -22.867 -35.411  -3.558  1.00  0.00     0.210 HD
ENDBRANCH  23  30
ENDBRANCH  22  23
ENDBRANCH  18  22
ENDBRANCH   1  18
TORSDOF 7
ENDMDL
