MODEL 1
REMARK VINA RESULT: -7.050376367      0.000      0.000
REMARK  4 active torsions:
REMARK  status: ('A' for Active; 'I' for Inactive)
REMARK    1  A    between atoms: N1_1  and  N2_4 
REMARK    2  A    between atoms: C1_5  and  C2_6 
REMARK    3  A    between atoms: N3_7  and  C3_9 
REMARK    4  A    between atoms: N8_22  and  O2_23 
ROOT
HETATM    1  C2  UNL     1       0.762 -28.741  36.367  1.00  0.00     0.122 C 
HETATM    2  N3  UNL     1       0.133 -28.277  37.371  1.00  0.00    -0.369 N 
ATOM      3  H3  UNL     1      -0.582 -28.849  37.821  1.00  0.00     0.164 HD
ENDROOT
BRANCH   1   4
HETATM    4  C1  UNL     1       0.481 -30.081  35.842  1.00  0.00     0.110 A 
HETATM    5  N2  UNL     1       0.859 -30.609  34.660  1.00  0.00    -0.159 N 
HETATM    6  N8  UNL     1       0.386 -31.866  34.587  1.00  0.00    -0.073 N 
HETATM    7  N7  UNL     1      -0.283 -32.150  35.690  1.00  0.00    -0.266 N 
HETATM    8  C6  UNL     1      -0.245 -31.071  36.490  1.00  0.00     0.146 A 
ATOM      9  H7  UNL     1      -0.747 -33.035  35.899  1.00  0.00     0.190 HD
BRANCH   5  10
HETATM   10  N1  UNL     1       1.613 -29.953  33.686  1.00  0.00    -0.320 N 
ATOM     11  H12 UNL     1       2.113 -29.072  33.803  1.00  0.00     0.179 HD
ATOM     12  H11 UNL     1       1.756 -30.280  32.731  1.00  0.00     0.179 HD
ENDBRANCH   5  10
BRANCH   6  13
HETATM   13  O2  UNL     1       0.608 -32.677  33.487  1.00  0.00    -0.252 OA
ATOM     14  H2  UNL     1      -0.018 -32.751  32.776  1.00  0.00     0.248 HD
ENDBRANCH   6  13
ENDBRANCH   1   4
BRANCH   2  15
HETATM   15  C3  UNL     1       0.407 -26.991  37.871  1.00  0.00     0.138 C 
HETATM   16  C4  UNL     1       0.995 -26.802  39.065  1.00  0.00     0.139 A 
HETATM   17  N4  UNL     1       1.419 -27.801  39.977  1.00  0.00    -0.280 N 
HETATM   18  N6  UNL     1       1.314 -25.550  39.659  1.00  0.00    -0.291 N 
HETATM   19  N5  UNL     1       1.972 -27.165  41.081  1.00  0.00    -0.250 N 
ATOM     20  H4  UNL     1       1.332 -28.809  39.846  1.00  0.00     0.188 HD
HETATM   21  C5  UNL     1       1.929 -25.752  40.926  1.00  0.00     0.340 A 
ATOM     22  H5  UNL     1       2.358 -27.647  41.893  1.00  0.00     0.192 HD
HETATM   23  O1  UNL     1       2.335 -24.852  41.716  1.00  0.00    -0.245 OA
ATOM     24  H6  UNL     1       1.128 -24.639  39.238  1.00  0.00     0.172 HD
ENDBRANCH   2  15
TORSDOF 4
ENDMDL
MODEL 2
REMARK VINA RESULT: -6.671126204      1.385      7.225
REMARK  4 active torsions:
REMARK  status: ('A' for Active; 'I' for Inactive)
REMARK    1  A    between atoms: N1_1  and  N2_4 
REMARK    2  A    between atoms: C1_5  and  C2_6 
REMARK    3  A    between atoms: N3_7  and  C3_9 
REMARK    4  A    between atoms: N8_22  and  O2_23 
ROOT
HETATM    1  C2  UNL     1      -0.082 -28.043  37.099  1.00  0.00     0.122 C 
HETATM    2  N3  UNL     1       0.710 -29.033  36.992  1.00  0.00    -0.369 N 
ATOM      3  H3  UNL     1       1.663 -28.953  37.347  1.00  0.00     0.164 HD
ENDROOT
BRANCH   1   4
HETATM    4  C1  UNL     1       0.347 -26.787  37.723  1.00  0.00     0.110 A 
HETATM    5  N2  UNL     1       0.875 -26.604  38.950  1.00  0.00    -0.159 N 
HETATM    6  N8  UNL     1       1.124 -25.293  39.114  1.00  0.00    -0.073 N 
HETATM    7  N7  UNL     1       0.767 -24.637  38.023  1.00  0.00    -0.266 N 
HETATM    8  C6  UNL     1       0.283 -25.528  37.142  1.00  0.00     0.146 A 
ATOM      9  H7  UNL     1       0.846 -23.631  37.876  1.00  0.00     0.190 HD
BRANCH   5  10
HETATM   10  N1  UNL     1       1.119 -27.613  39.884  1.00  0.00    -0.320 N 
ATOM     11  H12 UNL     1       1.233 -27.488  40.890  1.00  0.00     0.179 HD
ATOM     12  H11 UNL     1       1.214 -28.605  39.670  1.00  0.00     0.179 HD
ENDBRANCH   5  10
BRANCH   6  13
HETATM   13  O2  UNL     1       1.671 -24.783  40.279  1.00  0.00    -0.252 OA
ATOM     14  H2  UNL     1       1.973 -23.885  40.348  1.00  0.00     0.248 HD
ENDBRANCH   6  13
ENDBRANCH   1   4
BRANCH   2  15
HETATM   15  C3  UNL     1       0.294 -30.236  36.394  1.00  0.00     0.138 C 
HETATM   16  C4  UNL     1       0.685 -30.588  35.156  1.00  0.00     0.139 A 
HETATM   17  N4  UNL     1       1.531 -29.855  34.286  1.00  0.00    -0.280 N 
HETATM   18  N6  UNL     1       0.323 -31.776  34.463  1.00  0.00    -0.291 N 
HETATM   19  N5  UNL     1       1.669 -30.583  33.112  1.00  0.00    -0.250 N 
ATOM     20  H4  UNL     1       1.962 -28.954  34.488  1.00  0.00     0.188 HD
HETATM   21  C5  UNL     1       0.930 -31.796  33.177  1.00  0.00     0.340 A 
ATOM     22  H5  UNL     1       2.227 -30.288  32.311  1.00  0.00     0.192 HD
HETATM   23  O1  UNL     1       0.816 -32.706  32.306  1.00  0.00    -0.245 OA
ATOM     24  H6  UNL     1      -0.284 -32.507  34.835  1.00  0.00     0.172 HD
ENDBRANCH   2  15
TORSDOF 4
ENDMDL
MODEL 3
REMARK VINA RESULT: -6.581277670      1.295      6.948
REMARK  4 active torsions:
REMARK  status: ('A' for Active; 'I' for Inactive)
REMARK    1  A    between atoms: N1_1  and  N2_4 
REMARK    2  A    between atoms: C1_5  and  C2_6 
REMARK    3  A    between atoms: N3_7  and  C3_9 
REMARK    4  A    between atoms: N8_22  and  O2_23 
ROOT
HETATM    1  C2  UNL     1       0.600 -27.024  37.405  1.00  0.00     0.122 C 
HETATM    2  N3  UNL     1      -0.342 -27.843  37.158  1.00  0.00    -0.369 N 
ATOM      3  H3  UNL     1      -1.103 -27.948  37.828  1.00  0.00     0.164 HD
ENDROOT
BRANCH   1   4
HETATM    4  C1  UNL     1       0.613 -26.225  38.634  1.00  0.00     0.110 A 
HETATM    5  N2  UNL     1       1.015 -26.599  39.866  1.00  0.00    -0.159 N 
HETATM    6  N8  UNL     1       0.859 -25.555  40.698  1.00  0.00    -0.073 N 
HETATM    7  N7  UNL     1       0.366 -24.527  40.029  1.00  0.00    -0.266 N 
HETATM    8  C6  UNL     1       0.202 -24.905  38.749  1.00  0.00     0.146 A 
ATOM      9  H7  UNL     1       0.148 -23.609  40.415  1.00  0.00     0.190 HD
BRANCH   5  10
HETATM   10  N1  UNL     1       1.511 -27.859  40.207  1.00  0.00    -0.320 N 
ATOM     11  H12 UNL     1       1.929 -28.535  39.568  1.00  0.00     0.179 HD
ATOM     12  H11 UNL     1       1.513 -28.258  41.145  1.00  0.00     0.179 HD
ENDBRANCH   5  10
BRANCH   6  13
HETATM   13  O2  UNL     1       1.185 -25.624  42.042  1.00  0.00    -0.252 OA
ATOM     14  H2  UNL     1       1.733 -26.313  42.397  1.00  0.00     0.248 HD
ENDBRANCH   6  13
ENDBRANCH   1   4
BRANCH   2  15
HETATM   15  C3  UNL     1      -0.351 -28.608  35.976  1.00  0.00     0.138 C 
HETATM   16  C4  UNL     1       0.133 -29.862  35.937  1.00  0.00     0.139 A 
HETATM   17  N4  UNL     1       0.703 -30.593  37.009  1.00  0.00    -0.280 N 
HETATM   18  N6  UNL     1       0.171 -30.715  34.799  1.00  0.00    -0.291 N 
HETATM   19  N5  UNL     1       1.070 -31.842  36.527  1.00  0.00    -0.250 N 
ATOM     20  H4  UNL     1       0.823 -30.260  37.965  1.00  0.00     0.188 HD
HETATM   21  C5  UNL     1       0.755 -31.965  35.145  1.00  0.00     0.340 A 
ATOM     22  H5  UNL     1       1.507 -32.573  37.088  1.00  0.00     0.192 HD
HETATM   23  O1  UNL     1       0.940 -32.948  34.371  1.00  0.00    -0.245 OA
ATOM     24  H6  UNL     1      -0.171 -30.466  33.871  1.00  0.00     0.172 HD
ENDBRANCH   2  15
TORSDOF 4
ENDMDL
MODEL 4
REMARK VINA RESULT: -6.544659318      1.111      1.657
REMARK  4 active torsions:
REMARK  status: ('A' for Active; 'I' for Inactive)
REMARK    1  A    between atoms: N1_1  and  N2_4 
REMARK    2  A    between atoms: C1_5  and  C2_6 
REMARK    3  A    between atoms: N3_7  and  C3_9 
REMARK    4  A    between atoms: N8_22  and  O2_23 
ROOT
HETATM    1  C2  UNL     1      -0.113 -28.499  36.120  1.00  0.00     0.122 C 
HETATM    2  N3  UNL     1       0.751 -27.581  36.295  1.00  0.00    -0.369 N 
ATOM      3  H3  UNL     1       1.644 -27.635  35.806  1.00  0.00     0.164 HD
ENDROOT
BRANCH   1   4
HETATM    4  C1  UNL     1       0.148 -29.632  35.227  1.00  0.00     0.110 A 
HETATM    5  N2  UNL     1       0.224 -30.941  35.543  1.00  0.00    -0.159 N 
HETATM    6  N8  UNL     1       0.480 -31.635  34.421  1.00  0.00    -0.073 N 
HETATM    7  N7  UNL     1       0.570 -30.801  33.399  1.00  0.00    -0.266 N 
HETATM    8  C6  UNL     1       0.370 -29.555  33.860  1.00  0.00     0.146 A 
ATOM      9  H7  UNL     1       0.758 -31.059  32.430  1.00  0.00     0.190 HD
BRANCH   5  10
HETATM   10  N1  UNL     1       0.061 -31.475  36.823  1.00  0.00    -0.320 N 
ATOM     11  H12 UNL     1       0.334 -32.410  37.126  1.00  0.00     0.179 HD
ATOM     12  H11 UNL     1      -0.355 -30.988  37.617  1.00  0.00     0.179 HD
ENDBRANCH   5  10
BRANCH   6  13
HETATM   13  O2  UNL     1       0.616 -33.012  34.416  1.00  0.00    -0.252 OA
ATOM     14  H2  UNL     1       1.063 -33.476  33.718  1.00  0.00     0.248 HD
ENDBRANCH   6  13
ENDBRANCH   1   4
BRANCH   2  15
HETATM   15  C3  UNL     1       0.496 -26.495  37.153  1.00  0.00     0.138 C 
HETATM   16  C4  UNL     1       0.793 -26.538  38.463  1.00  0.00     0.139 A 
HETATM   17  N4  UNL     1       1.379 -27.617  39.172  1.00  0.00    -0.280 N 
HETATM   18  N6  UNL     1       0.577 -25.500  39.411  1.00  0.00    -0.291 N 
HETATM   19  N5  UNL     1       1.507 -27.235  40.501  1.00  0.00    -0.250 N 
ATOM     20  H4  UNL     1       1.656 -28.515  38.776  1.00  0.00     0.188 HD
HETATM   21  C5  UNL     1       1.018 -25.914  40.699  1.00  0.00     0.340 A 
ATOM     22  H5  UNL     1       1.900 -27.823  41.236  1.00  0.00     0.192 HD
HETATM   23  O1  UNL     1       0.970 -25.234  41.764  1.00  0.00    -0.245 OA
ATOM     24  H6  UNL     1       0.165 -24.592  39.199  1.00  0.00     0.172 HD
ENDBRANCH   2  15
TORSDOF 4
ENDMDL
MODEL 5
REMARK VINA RESULT: -6.335891450      1.965      7.378
REMARK  4 active torsions:
REMARK  status: ('A' for Active; 'I' for Inactive)
REMARK    1  A    between atoms: N1_1  and  N2_4 
REMARK    2  A    between atoms: C1_5  and  C2_6 
REMARK    3  A    between atoms: N3_7  and  C3_9 
REMARK    4  A    between atoms: N8_22  and  O2_23 
ROOT
HETATM    1  C2  UNL     1       1.094 -27.643  36.707  1.00  0.00     0.122 C 
HETATM    2  N3  UNL     1       1.531 -28.131  35.616  1.00  0.00    -0.369 N 
ATOM      3  H3  UNL     1       2.517 -28.022  35.379  1.00  0.00     0.164 HD
ENDROOT
BRANCH   1   4
HETATM    4  C1  UNL     1       1.978 -26.927  37.632  1.00  0.00     0.110 A 
HETATM    5  N2  UNL     1       1.952 -26.930  38.980  1.00  0.00    -0.159 N 
HETATM    6  N8  UNL     1       2.941 -26.137  39.426  1.00  0.00    -0.073 N 
HETATM    7  N7  UNL     1       3.596 -25.629  38.396  1.00  0.00    -0.266 N 
HETATM    8  C6  UNL     1       3.029 -26.096  37.271  1.00  0.00     0.146 A 
ATOM      9  H7  UNL     1       4.393 -24.994  38.447  1.00  0.00     0.190 HD
BRANCH   5  10
HETATM   10  N1  UNL     1       1.046 -27.641  39.770  1.00  0.00    -0.320 N 
ATOM     11  H12 UNL     1       0.252 -28.187  39.433  1.00  0.00     0.179 HD
ATOM     12  H11 UNL     1       1.069 -27.700  40.787  1.00  0.00     0.179 HD
ENDBRANCH   5  10
BRANCH   6  13
HETATM   13  O2  UNL     1       3.176 -25.932  40.775  1.00  0.00    -0.252 OA
ATOM     14  H2  UNL     1       2.538 -26.159  41.441  1.00  0.00     0.248 HD
ENDBRANCH   6  13
ENDBRANCH   1   4
BRANCH   2  15
HETATM   15  C3  UNL     1       0.679 -28.818  34.732  1.00  0.00     0.138 C 
HETATM   16  C4  UNL     1       1.061 -29.947  34.109  1.00  0.00     0.139 A 
HETATM   17  N4  UNL     1       2.311 -30.606  34.223  1.00  0.00    -0.280 N 
HETATM   18  N6  UNL     1       0.279 -30.714  33.201  1.00  0.00    -0.291 N 
HETATM   19  N5  UNL     1       2.276 -31.730  33.408  1.00  0.00    -0.250 N 
ATOM     20  H4  UNL     1       3.096 -30.307  34.801  1.00  0.00     0.188 HD
HETATM   21  C5  UNL     1       1.021 -31.840  32.748  1.00  0.00     0.340 A 
ATOM     22  H5  UNL     1       3.047 -32.388  33.299  1.00  0.00     0.192 HD
HETATM   23  O1  UNL     1       0.625 -32.724  31.935  1.00  0.00    -0.245 OA
ATOM     24  H6  UNL     1      -0.674 -30.489  32.917  1.00  0.00     0.172 HD
ENDBRANCH   2  15
TORSDOF 4
ENDMDL
