MODEL 1
REMARK VINA RESULT: -7.804200111      0.000      0.000
REMARK  3 active torsions:
REMARK  status: ('A' for Active; 'I' for Inactive)
REMARK    1  A    between atoms: C4_7  and  C5_8 
REMARK    2  A    between atoms: C5_8  and  C6_9 
REMARK    3  A    between atoms: C7_10  and  O2_11 
ROOT
HETATM    1  C6  UNL     1      -0.413 -29.492  35.437  1.00  0.00     0.085 A 
HETATM    2  C7  UNL     1      -0.578 -30.745  35.932  1.00  0.00     0.160 A 
HETATM    3  N2  UNL     1      -0.077 -31.814  35.297  1.00  0.00    -0.288 N 
ATOM      4  H2  UNL     1      -0.209 -32.749  35.682  1.00  0.00     0.172 HD
HETATM    5  C8  UNL     1       0.604 -31.640  34.144  1.00  0.00     0.329 A 
HETATM    6  O3  UNL     1       1.060 -32.649  33.573  1.00  0.00    -0.247 OA
HETATM    7  N3  UNL     1       0.778 -30.397  33.635  1.00  0.00    -0.275 N 
ATOM      8  H3  UNL     1       1.294 -30.283  32.763  1.00  0.00     0.173 HD
HETATM    9  C9  UNL     1       0.288 -29.315  34.250  1.00  0.00     0.264 A 
HETATM   10  O4  UNL     1       0.440 -28.142  33.789  1.00  0.00    -0.267 OA
ENDROOT
BRANCH   1  11
HETATM   11  C5  UNL     1      -0.944 -28.296  36.096  1.00  0.00     0.056 C 
BRANCH  11  12
HETATM   12  C4  UNL     1      -0.188 -27.625  36.939  1.00  0.00     0.103 A 
HETATM   13  C3  UNL     1       0.246 -26.319  36.866  1.00  0.00     0.273 A 
HETATM   14  N1  UNL     1       0.992 -26.070  37.949  1.00  0.00    -0.308 N 
HETATM   15  O1  UNL     1      -0.036 -25.517  35.913  1.00  0.00    -0.266 OA
HETATM   16  C2  UNL     1       1.052 -27.168  38.717  1.00  0.00     0.098 A 
ATOM     17  H1  UNL     1       1.446 -25.181  38.159  1.00  0.00     0.170 HD
HETATM   18  C1  UNL     1       1.707 -27.298  39.880  1.00  0.00     0.063 C 
HETATM   19  N4  UNL     1       0.334 -28.106  38.097  1.00  0.00    -0.339 N 
ATOM     20  H4  UNL     1       0.197 -29.055  38.445  1.00  0.00     0.167 HD
ENDBRANCH  11  12
ENDBRANCH   1  11
BRANCH   2  21
HETATM   21  O2  UNL     1      -1.290 -30.878  37.129  1.00  0.00    -0.345 OA
ATOM     22  H2  UNL     1      -2.237 -30.932  37.073  1.00  0.00     0.219 HD
ENDBRANCH   2  21
TORSDOF 3
ENDMDL
MODEL 2
REMARK VINA RESULT: -7.628262310      2.230      5.674
REMARK  3 active torsions:
REMARK  status: ('A' for Active; 'I' for Inactive)
REMARK    1  A    between atoms: C4_7  and  C5_8 
REMARK    2  A    between atoms: C5_8  and  C6_9 
REMARK    3  A    between atoms: C7_10  and  O2_11 
ROOT
HETATM    1  C6  UNL     1      -0.138 -30.526  35.588  1.00  0.00     0.085 A 
HETATM    2  C7  UNL     1       0.476 -30.021  36.688  1.00  0.00     0.160 A 
HETATM    3  N2  UNL     1       0.202 -28.786  37.130  1.00  0.00    -0.288 N 
ATOM      4  H2  UNL     1       0.671 -28.421  37.959  1.00  0.00     0.172 HD
HETATM    5  C8  UNL     1      -0.699 -28.030  36.468  1.00  0.00     0.329 A 
HETATM    6  O3  UNL     1      -0.935 -26.885  36.898  1.00  0.00    -0.247 OA
HETATM    7  N3  UNL     1      -1.320 -28.517  35.367  1.00  0.00    -0.275 N 
ATOM      8  H3  UNL     1      -1.998 -27.933  34.878  1.00  0.00     0.173 HD
HETATM    9  C9  UNL     1      -1.065 -29.746  34.906  1.00  0.00     0.264 A 
HETATM   10  O4  UNL     1      -1.636 -30.221  33.877  1.00  0.00    -0.267 OA
ENDROOT
BRANCH   1  11
HETATM   11  C5  UNL     1       0.130 -31.870  35.069  1.00  0.00     0.056 C 
BRANCH  11  12
HETATM   12  C4  UNL     1       0.958 -32.027  34.058  1.00  0.00     0.103 A 
HETATM   13  C3  UNL     1       2.322 -31.839  34.014  1.00  0.00     0.273 A 
HETATM   14  N1  UNL     1       2.739 -32.119  32.773  1.00  0.00    -0.308 N 
HETATM   15  O1  UNL     1       3.031 -31.462  35.007  1.00  0.00    -0.266 OA
HETATM   16  C2  UNL     1       1.691 -32.482  32.018  1.00  0.00     0.098 A 
ATOM     17  H1  UNL     1       3.705 -32.066  32.451  1.00  0.00     0.170 HD
HETATM   18  C1  UNL     1       1.721 -32.834  30.724  1.00  0.00     0.063 C 
HETATM   19  N4  UNL     1       0.615 -32.423  32.804  1.00  0.00    -0.339 N 
ATOM     20  H4  UNL     1      -0.334 -32.644  32.505  1.00  0.00     0.167 HD
ENDBRANCH  11  12
ENDBRANCH   1  11
BRANCH   2  21
HETATM   21  O2  UNL     1       1.402 -30.840  37.344  1.00  0.00    -0.345 OA
ATOM     22  H2  UNL     1       1.220 -31.772  37.373  1.00  0.00     0.219 HD
ENDBRANCH   2  21
TORSDOF 3
ENDMDL
MODEL 3
REMARK VINA RESULT: -7.601554432      1.943      5.379
REMARK  3 active torsions:
REMARK  status: ('A' for Active; 'I' for Inactive)
REMARK    1  A    between atoms: C4_7  and  C5_8 
REMARK    2  A    between atoms: C5_8  and  C6_9 
REMARK    3  A    between atoms: C7_10  and  O2_11 
ROOT
HETATM    1  C6  UNL     1       0.577 -28.194  35.346  1.00  0.00     0.085 A 
HETATM    2  C7  UNL     1       1.077 -28.167  36.608  1.00  0.00     0.160 A 
HETATM    3  N2  UNL     1       1.929 -27.208  36.995  1.00  0.00    -0.288 N 
ATOM      4  H2  UNL     1       2.296 -27.200  37.947  1.00  0.00     0.172 HD
HETATM    5  C8  UNL     1       2.297 -26.252  36.115  1.00  0.00     0.329 A 
HETATM    6  O3  UNL     1       3.090 -25.372  36.500  1.00  0.00    -0.247 OA
HETATM    7  N3  UNL     1       1.808 -26.264  34.852  1.00  0.00    -0.275 N 
ATOM      8  H3  UNL     1       2.096 -25.536  34.199  1.00  0.00     0.173 HD
HETATM    9  C9  UNL     1       0.957 -27.210  34.441  1.00  0.00     0.264 A 
HETATM   10  O4  UNL     1       0.488 -27.240  33.262  1.00  0.00    -0.267 OA
ENDROOT
BRANCH   1  11
HETATM   11  C5  UNL     1      -0.356 -29.223  34.879  1.00  0.00     0.056 C 
BRANCH  11  12
HETATM   12  C4  UNL     1       0.109 -30.359  34.404  1.00  0.00     0.103 A 
HETATM   13  C3  UNL     1       0.205 -31.585  35.025  1.00  0.00     0.273 A 
HETATM   14  N1  UNL     1       0.741 -32.450  34.154  1.00  0.00    -0.308 N 
HETATM   15  O1  UNL     1      -0.162 -31.817  36.226  1.00  0.00    -0.266 OA
HETATM   16  C2  UNL     1       0.990 -31.823  32.994  1.00  0.00     0.098 A 
ATOM     17  H1  UNL     1       0.930 -33.433  34.343  1.00  0.00     0.170 HD
HETATM   18  C1  UNL     1       1.525 -32.364  31.890  1.00  0.00     0.063 C 
HETATM   19  N4  UNL     1       0.605 -30.556  33.155  1.00  0.00    -0.339 N 
ATOM     20  H4  UNL     1       0.673 -29.834  32.438  1.00  0.00     0.167 HD
ENDBRANCH  11  12
ENDBRANCH   1  11
BRANCH   2  21
HETATM   21  O2  UNL     1       0.669 -29.175  37.487  1.00  0.00    -0.345 OA
ATOM     22  H2  UNL     1       1.186 -29.972  37.510  1.00  0.00     0.219 HD
ENDBRANCH   2  21
TORSDOF 3
ENDMDL
MODEL 4
REMARK VINA RESULT: -7.574046234      0.350      1.966
REMARK  3 active torsions:
REMARK  status: ('A' for Active; 'I' for Inactive)
REMARK    1  A    between atoms: C4_7  and  C5_8 
REMARK    2  A    between atoms: C5_8  and  C6_9 
REMARK    3  A    between atoms: C7_10  and  O2_11 
ROOT
HETATM    1  C6  UNL     1      -0.185 -29.402  35.341  1.00  0.00     0.085 A 
HETATM    2  C7  UNL     1       0.729 -29.192  34.360  1.00  0.00     0.160 A 
HETATM    3  N2  UNL     1       1.287 -30.216  33.700  1.00  0.00    -0.288 N 
ATOM      4  H2  UNL     1       1.972 -30.042  32.965  1.00  0.00     0.172 HD
HETATM    5  C8  UNL     1       0.935 -31.480  34.019  1.00  0.00     0.329 A 
HETATM    6  O3  UNL     1       1.468 -32.415  33.391  1.00  0.00    -0.247 OA
HETATM    7  N3  UNL     1       0.025 -31.709  34.996  1.00  0.00    -0.275 N 
ATOM      8  H3  UNL     1      -0.231 -32.669  35.224  1.00  0.00     0.173 HD
HETATM    9  C9  UNL     1      -0.547 -30.703  35.668  1.00  0.00     0.264 A 
HETATM   10  O4  UNL     1      -1.401 -30.897  36.587  1.00  0.00    -0.267 OA
ENDROOT
BRANCH   1  11
HETATM   11  C5  UNL     1      -0.819 -28.313  36.089  1.00  0.00     0.056 C 
BRANCH  11  12
HETATM   12  C4  UNL     1      -0.116 -27.622  36.960  1.00  0.00     0.103 A 
HETATM   13  C3  UNL     1       0.267 -26.299  36.913  1.00  0.00     0.273 A 
HETATM   14  N1  UNL     1       0.971 -26.032  38.020  1.00  0.00    -0.308 N 
HETATM   15  O1  UNL     1      -0.018 -25.498  35.960  1.00  0.00    -0.266 OA
HETATM   16  C2  UNL     1       1.052 -27.136  38.778  1.00  0.00     0.098 A 
ATOM     17  H1  UNL     1       1.382 -25.129  38.252  1.00  0.00     0.170 HD
HETATM   18  C1  UNL     1       1.678 -27.253  39.958  1.00  0.00     0.063 C 
HETATM   19  N4  UNL     1       0.391 -28.095  38.128  1.00  0.00    -0.339 N 
ATOM     20  H4  UNL     1       0.282 -29.052  38.462  1.00  0.00     0.167 HD
ENDBRANCH  11  12
ENDBRANCH   1  11
BRANCH   2  21
HETATM   21  O2  UNL     1       1.065 -27.866  34.063  1.00  0.00    -0.345 OA
ATOM     22  H2  UNL     1       1.823 -27.497  34.500  1.00  0.00     0.219 HD
ENDBRANCH   2  21
TORSDOF 3
ENDMDL
MODEL 5
REMARK VINA RESULT: -7.158658348      2.263      2.835
REMARK  3 active torsions:
REMARK  status: ('A' for Active; 'I' for Inactive)
REMARK    1  A    between atoms: C4_7  and  C5_8 
REMARK    2  A    between atoms: C5_8  and  C6_9 
REMARK    3  A    between atoms: C7_10  and  O2_11 
ROOT
HETATM    1  C6  UNL     1       0.367 -29.771  35.107  1.00  0.00     0.085 A 
HETATM    2  C7  UNL     1      -0.063 -30.182  36.327  1.00  0.00     0.160 A 
HETATM    3  N2  UNL     1       0.393 -31.315  36.878  1.00  0.00    -0.288 N 
ATOM      4  H2  UNL     1       0.062 -31.611  37.796  1.00  0.00     0.172 HD
HETATM    5  C8  UNL     1       1.296 -32.062  36.206  1.00  0.00     0.329 A 
HETATM    6  O3  UNL     1       1.704 -33.112  36.739  1.00  0.00    -0.247 OA
HETATM    7  N3  UNL     1       1.735 -31.668  34.987  1.00  0.00    -0.275 N 
ATOM      8  H3  UNL     1       2.416 -32.243  34.492  1.00  0.00     0.173 HD
HETATM    9  C9  UNL     1       1.295 -30.541  34.416  1.00  0.00     0.264 A 
HETATM   10  O4  UNL     1       1.694 -30.154  33.275  1.00  0.00    -0.267 OA
ENDROOT
BRANCH   1  11
HETATM   11  C5  UNL     1      -0.104 -28.540  34.467  1.00  0.00     0.056 C 
BRANCH  11  12
HETATM   12  C4  UNL     1       0.515 -27.403  34.701  1.00  0.00     0.103 A 
HETATM   13  C3  UNL     1       0.315 -26.499  35.722  1.00  0.00     0.273 A 
HETATM   14  N1  UNL     1       1.177 -25.488  35.555  1.00  0.00    -0.308 N 
HETATM   15  O1  UNL     1      -0.552 -26.638  36.649  1.00  0.00    -0.266 OA
HETATM   16  C2  UNL     1       1.924 -25.711  34.463  1.00  0.00     0.098 A 
ATOM     17  H1  UNL     1       1.253 -24.674  36.163  1.00  0.00     0.170 HD
HETATM   18  C1  UNL     1       2.891 -24.917  33.980  1.00  0.00     0.063 C 
HETATM   19  N4  UNL     1       1.516 -26.872  33.951  1.00  0.00    -0.339 N 
ATOM     20  H4  UNL     1       1.902 -27.304  33.112  1.00  0.00     0.167 HD
ENDBRANCH  11  12
ENDBRANCH   1  11
BRANCH   2  21
HETATM   21  O2  UNL     1      -0.997 -29.377  36.988  1.00  0.00    -0.345 OA
ATOM     22  H2  UNL     1      -1.879 -29.349  36.636  1.00  0.00     0.219 HD
ENDBRANCH   2  21
TORSDOF 3
ENDMDL
