MODEL 1
REMARK VINA RESULT: -6.801807059      0.000      0.000
REMARK  3 active torsions:
REMARK  status: ('A' for Active; 'I' for Inactive)
REMARK    1  A    between atoms: C2_2  and  C3_3 
REMARK    2  A    between atoms: C3_3  and  O1_4 
REMARK    3  A    between atoms: C15_19  and  C17_21 
ROOT
HETATM    1  C3  UNL     1      14.166  -2.298   9.673  1.00  0.00     0.079 C 
HETATM    2  C4  UNL     1      15.416  -1.932   8.964  1.00  0.00     0.052 C 
HETATM    3  C5  UNL     1      15.633  -2.436   7.600  1.00  0.00    -0.029 A 
HETATM    4  C6  UNL     1      16.649  -1.558   6.830  1.00  0.00     0.016 C 
HETATM    5  C7  UNL     1      14.582  -2.986   6.728  1.00  0.00     0.023 A 
HETATM    6  C8  UNL     1      15.706  -3.843   7.327  1.00  0.00     0.004 A 
HETATM    7  C9  UNL     1      15.256  -4.852   8.277  1.00  0.00     0.170 C 
HETATM    8  C10 UNL     1      15.260  -4.494   9.730  1.00  0.00     0.043 C 
HETATM    9  C11 UNL     1      13.990  -3.728  10.003  1.00  0.00     0.022 C 
HETATM   10  C12 UNL     1      13.498  -3.968  11.426  1.00  0.00     0.013 C 
HETATM   11  O2  UNL     1      15.969  -6.072   8.176  1.00  0.00    -0.234 OA
HETATM   12  O3  UNL     1      17.246  -5.700   8.329  1.00  0.00    -0.235 OA
HETATM   13  C13 UNL     1      17.651  -5.345   7.030  1.00  0.00     0.166 C 
HETATM   14  C14 UNL     1      17.137  -6.402   6.072  1.00  0.00     0.045 C 
HETATM   15  C15 UNL     1      16.446  -5.280   5.313  1.00  0.00    -0.035 C 
HETATM   16  C16 UNL     1      17.247  -5.036   4.022  1.00  0.00     0.016 C 
HETATM   17  C19 UNL     1      16.760  -4.346   6.381  1.00  0.00     0.038 C 
ENDROOT
BRANCH   1  18
HETATM   18  C2  UNL     1      14.208  -1.563  10.997  1.00  0.00     0.001 C 
HETATM   19  C1  UNL     1      15.218  -0.811  11.347  1.00  0.00     0.010 C 
ENDBRANCH   1  18
BRANCH   1  20
HETATM   20  O1  UNL     1      13.088  -1.744   8.986  1.00  0.00    -0.385 OA
ATOM     21  H1  UNL     1      13.428  -0.950   8.591  1.00  0.00     0.211 HD
ENDBRANCH   1  20
BRANCH  15  22
HETATM   22  C17 UNL     1      15.061  -5.652   4.966  1.00  0.00     0.005 C 
HETATM   23  C18 UNL     1      14.705  -5.122   3.568  1.00  0.00     0.006 C 
ENDBRANCH  15  22
TORSDOF 3
ENDMDL
MODEL 2
REMARK VINA RESULT: -6.076634654      2.246      3.815
REMARK  3 active torsions:
REMARK  status: ('A' for Active; 'I' for Inactive)
REMARK    1  A    between atoms: C2_2  and  C3_3 
REMARK    2  A    between atoms: C3_3  and  O1_4 
REMARK    3  A    between atoms: C15_19  and  C17_21 
ROOT
HETATM    1  C3  UNL     1      15.293  -4.600   6.944  1.00  0.00     0.079 C 
HETATM    2  C4  UNL     1      15.817  -3.607   5.975  1.00  0.00     0.052 C 
HETATM    3  C5  UNL     1      16.284  -4.073   4.662  1.00  0.00    -0.029 A 
HETATM    4  C6  UNL     1      16.267  -2.928   3.619  1.00  0.00     0.016 C 
HETATM    5  C7  UNL     1      15.965  -5.383   4.071  1.00  0.00     0.023 A 
HETATM    6  C8  UNL     1      17.375  -4.998   4.541  1.00  0.00     0.004 A 
HETATM    7  C9  UNL     1      17.871  -5.778   5.668  1.00  0.00     0.170 C 
HETATM    8  C10 UNL     1      17.664  -5.227   7.043  1.00  0.00     0.043 C 
HETATM    9  C11 UNL     1      16.261  -5.591   7.461  1.00  0.00     0.022 C 
HETATM   10  C12 UNL     1      16.172  -5.798   8.969  1.00  0.00     0.013 C 
HETATM   11  O2  UNL     1      19.252  -6.078   5.573  1.00  0.00    -0.234 OA
HETATM   12  O3  UNL     1      19.824  -4.876   5.441  1.00  0.00    -0.235 OA
HETATM   13  C13 UNL     1      19.775  -4.630   4.057  1.00  0.00     0.166 C 
HETATM   14  C14 UNL     1      20.188  -5.900   3.338  1.00  0.00     0.045 C 
HETATM   15  C15 UNL     1      18.860  -5.833   2.601  1.00  0.00    -0.035 C 
HETATM   16  C16 UNL     1      19.155  -5.370   1.163  1.00  0.00     0.016 C 
HETATM   17  C19 UNL     1      18.411  -4.764   3.477  1.00  0.00     0.038 C 
ENDROOT
BRANCH   1  18
HETATM   18  C2  UNL     1      14.824  -3.804   8.144  1.00  0.00     0.001 C 
HETATM   19  C1  UNL     1      14.769  -2.499   8.139  1.00  0.00     0.010 C 
ENDBRANCH   1  18
BRANCH   1  20
HETATM   20  O1  UNL     1      14.138  -5.170   6.413  1.00  0.00    -0.385 OA
ATOM     21  H1  UNL     1      14.408  -5.551   5.585  1.00  0.00     0.211 HD
ENDBRANCH   1  20
BRANCH  15  22
HETATM   22  C17 UNL     1      18.209  -7.156   2.564  1.00  0.00     0.005 C 
HETATM   23  C18 UNL     1      17.550  -7.385   1.195  1.00  0.00     0.006 C 
ENDBRANCH  15  22
TORSDOF 3
ENDMDL
MODEL 3
REMARK VINA RESULT: -6.017766797      2.390      4.164
REMARK  3 active torsions:
REMARK  status: ('A' for Active; 'I' for Inactive)
REMARK    1  A    between atoms: C2_2  and  C3_3 
REMARK    2  A    between atoms: C3_3  and  O1_4 
REMARK    3  A    between atoms: C15_19  and  C17_21 
ROOT
HETATM    1  C3  UNL     1      15.824  -5.129   7.394  1.00  0.00     0.079 C 
HETATM    2  C4  UNL     1      15.760  -4.220   6.224  1.00  0.00     0.052 C 
HETATM    3  C5  UNL     1      15.402  -4.776   4.911  1.00  0.00    -0.029 A 
HETATM    4  C6  UNL     1      14.854  -3.680   3.966  1.00  0.00     0.016 C 
HETATM    5  C7  UNL     1      14.760  -6.083   4.697  1.00  0.00     0.023 A 
HETATM    6  C8  UNL     1      16.207  -5.783   4.281  1.00  0.00     0.004 A 
HETATM    7  C9  UNL     1      17.215  -6.549   5.005  1.00  0.00     0.170 C 
HETATM    8  C10 UNL     1      17.826  -5.925   6.219  1.00  0.00     0.043 C 
HETATM    9  C11 UNL     1      16.878  -6.165   7.368  1.00  0.00     0.022 C 
HETATM   10  C12 UNL     1      17.632  -6.299   8.686  1.00  0.00     0.013 C 
HETATM   11  O2  UNL     1      18.300  -6.954   4.189  1.00  0.00    -0.234 OA
HETATM   12  O3  UNL     1      18.747  -5.804   3.671  1.00  0.00    -0.235 OA
HETATM   13  C13 UNL     1      17.948  -5.615   2.529  1.00  0.00     0.166 C 
HETATM   14  C14 UNL     1      17.846  -6.943   1.802  1.00  0.00     0.045 C 
HETATM   15  C15 UNL     1      16.335  -6.810   1.916  1.00  0.00    -0.035 C 
HETATM   16  C16 UNL     1      15.801  -6.433   0.522  1.00  0.00     0.016 C 
HETATM   17  C19 UNL     1      16.488  -5.674   2.809  1.00  0.00     0.038 C 
ENDROOT
BRANCH   1  18
HETATM   18  C2  UNL     1      16.129  -4.249   8.589  1.00  0.00     0.001 C 
HETATM   19  C1  UNL     1      15.331  -3.287   8.971  1.00  0.00     0.010 C 
ENDBRANCH   1  18
BRANCH   1  20
HETATM   20  O1  UNL     1      14.548  -5.634   7.633  1.00  0.00    -0.385 OA
ATOM     21  H1  UNL     1      14.194  -5.093   8.330  1.00  0.00     0.211 HD
ENDBRANCH   1  20
BRANCH  15  22
HETATM   22  C17 UNL     1      15.724  -8.081   2.346  1.00  0.00     0.005 C 
HETATM   23  C18 UNL     1      14.602  -8.485   1.376  1.00  0.00     0.006 C 
ENDBRANCH  15  22
TORSDOF 3
ENDMDL
MODEL 4
REMARK VINA RESULT: -5.946084272      1.582      5.785
REMARK  3 active torsions:
REMARK  status: ('A' for Active; 'I' for Inactive)
REMARK    1  A    between atoms: C2_2  and  C3_3 
REMARK    2  A    between atoms: C3_3  and  O1_4 
REMARK    3  A    between atoms: C15_19  and  C17_21 
ROOT
HETATM    1  C3  UNL     1      15.471  -5.668   5.566  1.00  0.00     0.079 C 
HETATM    2  C4  UNL     1      16.418  -5.428   6.681  1.00  0.00     0.052 C 
HETATM    3  C5  UNL     1      15.892  -4.963   7.973  1.00  0.00    -0.029 A 
HETATM    4  C6  UNL     1      16.870  -5.287   9.129  1.00  0.00     0.016 C 
HETATM    5  C7  UNL     1      14.481  -5.043   8.385  1.00  0.00     0.023 A 
HETATM    6  C8  UNL     1      15.193  -3.715   8.091  1.00  0.00     0.004 A 
HETATM    7  C9  UNL     1      14.675  -2.994   6.935  1.00  0.00     0.170 C 
HETATM    8  C10 UNL     1      15.343  -3.218   5.616  1.00  0.00     0.043 C 
HETATM    9  C11 UNL     1      14.764  -4.484   5.034  1.00  0.00     0.022 C 
HETATM   10  C12 UNL     1      14.736  -4.426   3.511  1.00  0.00     0.013 C 
HETATM   11  O2  UNL     1      14.644  -1.590   7.122  1.00  0.00    -0.234 OA
HETATM   12  O3  UNL     1      15.910  -1.290   7.437  1.00  0.00    -0.235 OA
HETATM   13  C13 UNL     1      15.964  -1.482   8.830  1.00  0.00     0.166 C 
HETATM   14  C14 UNL     1      14.720  -0.864   9.439  1.00  0.00     0.045 C 
HETATM   15  C15 UNL     1      14.430  -2.224  10.055  1.00  0.00    -0.035 C 
HETATM   16  C16 UNL     1      14.757  -2.127  11.556  1.00  0.00     0.016 C 
HETATM   17  C19 UNL     1      15.491  -2.824   9.264  1.00  0.00     0.038 C 
ENDROOT
BRANCH   1  18
HETATM   18  C2  UNL     1      16.304  -6.210   4.423  1.00  0.00     0.001 C 
HETATM   19  C1  UNL     1      16.851  -7.396   4.457  1.00  0.00     0.010 C 
ENDBRANCH   1  18
BRANCH   1  20
HETATM   20  O1  UNL     1      14.622  -6.713   5.923  1.00  0.00    -0.385 OA
ATOM     21  H1  UNL     1      15.029  -7.495   5.567  1.00  0.00     0.211 HD
ENDBRANCH   1  20
BRANCH  15  22
HETATM   22  C17 UNL     1      13.010  -2.587   9.886  1.00  0.00     0.005 C 
HETATM   23  C18 UNL     1      12.375  -2.888  11.253  1.00  0.00     0.006 C 
ENDBRANCH  15  22
TORSDOF 3
ENDMDL
MODEL 5
REMARK VINA RESULT: -5.923337056      2.953      4.592
REMARK  3 active torsions:
REMARK  status: ('A' for Active; 'I' for Inactive)
REMARK    1  A    between atoms: C2_2  and  C3_3 
REMARK    2  A    between atoms: C3_3  and  O1_4 
REMARK    3  A    between atoms: C15_19  and  C17_21 
ROOT
HETATM    1  C3  UNL     1      14.408   0.027   5.129  1.00  0.00     0.079 C 
HETATM    2  C4  UNL     1      14.206  -0.733   6.386  1.00  0.00     0.052 C 
HETATM    3  C5  UNL     1      15.213  -1.727   6.786  1.00  0.00    -0.029 A 
HETATM    4  C6  UNL     1      15.154  -2.008   8.307  1.00  0.00     0.016 C 
HETATM    5  C7  UNL     1      16.580  -1.804   6.247  1.00  0.00     0.023 A 
HETATM    6  C8  UNL     1      15.508  -2.865   5.962  1.00  0.00     0.004 A 
HETATM    7  C9  UNL     1      15.098  -2.951   4.566  1.00  0.00     0.170 C 
HETATM    8  C10 UNL     1      13.901  -2.161   4.140  1.00  0.00     0.043 C 
HETATM    9  C11 UNL     1      14.370  -0.752   3.873  1.00  0.00     0.022 C 
HETATM   10  C12 UNL     1      13.541  -0.095   2.775  1.00  0.00     0.013 C 
HETATM   11  O2  UNL     1      14.860  -4.279   4.135  1.00  0.00    -0.234 OA
HETATM   12  O3  UNL     1      13.950  -4.731   5.006  1.00  0.00    -0.235 OA
HETATM   13  C13 UNL     1      14.721  -5.209   6.082  1.00  0.00     0.166 C 
HETATM   14  C14 UNL     1      15.883  -6.000   5.512  1.00  0.00     0.045 C 
HETATM   15  C15 UNL     1      16.805  -5.073   6.289  1.00  0.00    -0.035 C 
HETATM   16  C16 UNL     1      17.345  -5.865   7.494  1.00  0.00     0.016 C 
HETATM   17  C19 UNL     1      15.684  -4.207   6.614  1.00  0.00     0.038 C 
ENDROOT
BRANCH   1  18
HETATM   18  C2  UNL     1      13.260   1.011   5.048  1.00  0.00     0.001 C 
HETATM   19  C1  UNL     1      13.364   2.244   5.471  1.00  0.00     0.010 C 
ENDBRANCH   1  18
BRANCH   1  20
HETATM   20  O1  UNL     1      15.550   0.813   5.266  1.00  0.00    -0.385 OA
ATOM     21  H1  UNL     1      15.850   0.969   4.377  1.00  0.00     0.211 HD
ENDBRANCH   1  20
BRANCH  15  22
HETATM   22  C17 UNL     1      17.935  -4.628   5.451  1.00  0.00     0.005 C 
HETATM   23  C18 UNL     1      19.182  -5.475   5.750  1.00  0.00     0.006 C 
ENDBRANCH  15  22
TORSDOF 3
ENDMDL
