MODEL 1
REMARK VINA RESULT: -5.909805639      0.000      0.000
REMARK  3 active torsions:
REMARK  status: ('A' for Active; 'I' for Inactive)
REMARK    1  A    between atoms: C2_2  and  C4_4 
REMARK    2  A    between atoms: C14_14  and  C15_15 
REMARK    3  A    between atoms: C16_18  and  C17_19 
ROOT
HETATM    1  C4  UNL     1      16.668  -4.741   3.701  1.00  0.00    -0.065 C 
HETATM    2  C5  UNL     1      16.566  -3.257   3.463  1.00  0.00     0.036 C 
HETATM    3  C6  UNL     1      15.833  -2.425   4.410  1.00  0.00     0.009 C 
HETATM    4  C7  UNL     1      16.225  -2.668   5.866  1.00  0.00    -0.006 C 
HETATM    5  C8  UNL     1      17.688  -2.934   5.901  1.00  0.00     0.006 C 
HETATM    6  C9  UNL     1      18.126  -4.282   5.485  1.00  0.00     0.015 C 
HETATM    7  C10 UNL     1      16.934  -5.205   5.056  1.00  0.00    -0.006 C 
HETATM    8  C11 UNL     1      17.630  -6.568   4.976  1.00  0.00     0.021 C 
HETATM    9  C12 UNL     1      15.940  -5.171   6.132  1.00  0.00     0.026 C 
HETATM   10  C13 UNL     1      14.692  -6.010   5.936  1.00  0.00     0.024 C 
HETATM   11  C14 UNL     1      16.368  -5.379   7.529  1.00  0.00     0.095 C 
HETATM   12  O2  UNL     1      16.494  -4.097   8.145  1.00  0.00    -0.335 OA
HETATM   13  C16 UNL     1      15.187  -3.667   7.807  1.00  0.00     0.234 C 
HETATM   14  C18 UNL     1      15.345  -3.760   6.292  1.00  0.00     0.045 C 
ENDROOT
BRANCH   1  15
HETATM   15  C2  UNL     1      15.989  -5.544   2.671  1.00  0.00    -0.068 C 
HETATM   16  C1  UNL     1      14.739  -5.879   2.516  1.00  0.00     0.018 C 
HETATM   17  C3  UNL     1      16.853  -6.113   1.540  1.00  0.00     0.047 C 
ENDBRANCH   1  15
BRANCH  11  18
HETATM   18  C15 UNL     1      17.398  -6.287   7.920  1.00  0.00     0.291 C 
HETATM   19  O1  UNL     1      17.692  -6.393   9.125  1.00  0.00    -0.300 OA
ENDBRANCH  11  18
BRANCH  13  20
HETATM   20  C17 UNL     1      14.916  -2.310   8.259  1.00  0.00     0.204 C 
HETATM   21  O3  UNL     1      15.615  -1.735   9.121  1.00  0.00    -0.646 OA
HETATM   22  O4  UNL     1      13.843  -1.623   7.718  1.00  0.00    -0.646 OA
ENDBRANCH  13  20
TORSDOF 3
ENDMDL
MODEL 2
REMARK VINA RESULT: -5.879020026      2.972      4.954
REMARK  3 active torsions:
REMARK  status: ('A' for Active; 'I' for Inactive)
REMARK    1  A    between atoms: C2_2  and  C4_4 
REMARK    2  A    between atoms: C14_14  and  C15_15 
REMARK    3  A    between atoms: C16_18  and  C17_19 
ROOT
HETATM    1  C4  UNL     1      15.471  -5.610   6.589  1.00  0.00    -0.065 C 
HETATM    2  C5  UNL     1      14.341  -5.827   5.616  1.00  0.00     0.036 C 
HETATM    3  C6  UNL     1      14.407  -5.224   4.291  1.00  0.00     0.009 C 
HETATM    4  C7  UNL     1      15.733  -5.470   3.574  1.00  0.00    -0.006 C 
HETATM    5  C8  UNL     1      16.186  -6.844   3.922  1.00  0.00     0.006 C 
HETATM    6  C9  UNL     1      16.794  -7.023   5.256  1.00  0.00     0.015 C 
HETATM    7  C10 UNL     1      16.837  -5.695   6.089  1.00  0.00    -0.006 C 
HETATM    8  C11 UNL     1      17.754  -6.102   7.247  1.00  0.00     0.021 C 
HETATM    9  C12 UNL     1      17.456  -4.667   5.249  1.00  0.00     0.026 C 
HETATM   10  C13 UNL     1      17.613  -3.289   5.861  1.00  0.00     0.024 C 
HETATM   11  C14 UNL     1      18.721  -4.960   4.548  1.00  0.00     0.095 C 
HETATM   12  O2  UNL     1      18.406  -5.307   3.199  1.00  0.00    -0.335 OA
HETATM   13  C16 UNL     1      17.648  -4.137   2.943  1.00  0.00     0.234 C 
HETATM   14  C18 UNL     1      16.586  -4.363   4.015  1.00  0.00     0.045 C 
ENDROOT
BRANCH   1  15
HETATM   15  C2  UNL     1      15.074  -4.844   7.781  1.00  0.00    -0.068 C 
HETATM   16  C1  UNL     1      14.889  -3.569   7.972  1.00  0.00     0.018 C 
HETATM   17  C3  UNL     1      14.807  -5.635   9.068  1.00  0.00     0.047 C 
ENDBRANCH   1  15
BRANCH  11  18
HETATM   18  C15 UNL     1      19.769  -5.758   5.097  1.00  0.00     0.291 C 
HETATM   19  O1  UNL     1      20.219  -6.713   4.436  1.00  0.00    -0.300 OA
ENDBRANCH  11  18
BRANCH  13  20
HETATM   20  C17 UNL     1      17.092  -4.122   1.598  1.00  0.00     0.204 C 
HETATM   21  O3  UNL     1      17.372  -4.989   0.742  1.00  0.00    -0.646 OA
HETATM   22  O4  UNL     1      16.217  -3.109   1.244  1.00  0.00    -0.646 OA
ENDBRANCH  13  20
TORSDOF 3
ENDMDL
MODEL 3
REMARK VINA RESULT: -5.872448614      1.899      3.814
REMARK  3 active torsions:
REMARK  status: ('A' for Active; 'I' for Inactive)
REMARK    1  A    between atoms: C2_2  and  C4_4 
REMARK    2  A    between atoms: C14_14  and  C15_15 
REMARK    3  A    between atoms: C16_18  and  C17_19 
ROOT
HETATM    1  C4  UNL     1      17.311  -6.450   4.897  1.00  0.00    -0.065 C 
HETATM    2  C5  UNL     1      17.496  -6.303   6.385  1.00  0.00     0.036 C 
HETATM    3  C6  UNL     1      17.320  -4.997   7.007  1.00  0.00     0.009 C 
HETATM    4  C7  UNL     1      16.026  -4.296   6.596  1.00  0.00    -0.006 C 
HETATM    5  C8  UNL     1      14.973  -5.337   6.459  1.00  0.00     0.006 C 
HETATM    6  C9  UNL     1      15.003  -6.153   5.228  1.00  0.00     0.015 C 
HETATM    7  C10 UNL     1      16.185  -5.768   4.272  1.00  0.00    -0.006 C 
HETATM    8  C11 UNL     1      15.798  -6.532   3.001  1.00  0.00     0.021 C 
HETATM    9  C12 UNL     1      16.132  -4.318   4.066  1.00  0.00     0.026 C 
HETATM   10  C13 UNL     1      17.185  -3.719   3.155  1.00  0.00     0.024 C 
HETATM   11  C14 UNL     1      14.852  -3.679   3.702  1.00  0.00     0.095 C 
HETATM   12  O2  UNL     1      14.283  -3.129   4.890  1.00  0.00    -0.335 OA
HETATM   13  C16 UNL     1      15.433  -2.381   5.246  1.00  0.00     0.234 C 
HETATM   14  C18 UNL     1      16.390  -3.562   5.381  1.00  0.00     0.045 C 
ENDROOT
BRANCH   1  15
HETATM   15  C2  UNL     1      18.546  -6.823   4.190  1.00  0.00    -0.068 C 
HETATM   16  C1  UNL     1      18.794  -7.739   3.297  1.00  0.00     0.018 C 
HETATM   17  C3  UNL     1      19.811  -6.018   4.514  1.00  0.00     0.047 C 
ENDBRANCH   1  15
BRANCH  11  18
HETATM   18  C15 UNL     1      13.880  -4.274   2.843  1.00  0.00     0.291 C 
HETATM   19  O1  UNL     1      12.703  -4.382   3.237  1.00  0.00    -0.300 OA
ENDBRANCH  11  18
BRANCH  13  20
HETATM   20  C17 UNL     1      15.257  -1.657   6.496  1.00  0.00     0.204 C 
HETATM   21  O3  UNL     1      14.145  -1.531   7.052  1.00  0.00    -0.646 OA
HETATM   22  O4  UNL     1      16.361  -1.079   7.099  1.00  0.00    -0.646 OA
ENDBRANCH  13  20
TORSDOF 3
ENDMDL
MODEL 4
REMARK VINA RESULT: -5.864134478      1.392      3.684
REMARK  3 active torsions:
REMARK  status: ('A' for Active; 'I' for Inactive)
REMARK    1  A    between atoms: C2_2  and  C4_4 
REMARK    2  A    between atoms: C14_14  and  C15_15 
REMARK    3  A    between atoms: C16_18  and  C17_19 
ROOT
HETATM    1  C4  UNL     1      16.877  -5.410   3.361  1.00  0.00    -0.065 C 
HETATM    2  C5  UNL     1      16.525  -6.824   3.745  1.00  0.00     0.036 C 
HETATM    3  C6  UNL     1      16.661  -7.248   5.133  1.00  0.00     0.009 C 
HETATM    4  C7  UNL     1      16.016  -6.287   6.130  1.00  0.00    -0.006 C 
HETATM    5  C8  UNL     1      14.774  -5.757   5.506  1.00  0.00     0.006 C 
HETATM    6  C9  UNL     1      14.943  -4.699   4.490  1.00  0.00     0.015 C 
HETATM    7  C10 UNL     1      16.447  -4.330   4.239  1.00  0.00    -0.006 C 
HETATM    8  C11 UNL     1      16.302  -3.053   3.403  1.00  0.00     0.021 C 
HETATM    9  C12 UNL     1      17.057  -4.054   5.542  1.00  0.00     0.026 C 
HETATM   10  C13 UNL     1      18.521  -3.661   5.540  1.00  0.00     0.024 C 
HETATM   11  C14 UNL     1      16.381  -3.145   6.487  1.00  0.00     0.095 C 
HETATM   12  O2  UNL     1      15.673  -3.944   7.435  1.00  0.00    -0.335 OA
HETATM   13  C16 UNL     1      16.795  -4.727   7.803  1.00  0.00     0.234 C 
HETATM   14  C18 UNL     1      17.074  -5.316   6.423  1.00  0.00     0.045 C 
ENDROOT
BRANCH   1  15
HETATM   15  C2  UNL     1      18.029  -5.324   2.450  1.00  0.00    -0.068 C 
HETATM   16  C1  UNL     1      18.170  -4.775   1.276  1.00  0.00     0.018 C 
HETATM   17  C3  UNL     1      19.340  -5.975   2.910  1.00  0.00     0.047 C 
ENDBRANCH   1  15
BRANCH  11  18
HETATM   18  C15 UNL     1      15.659  -1.979   6.093  1.00  0.00     0.291 C 
HETATM   19  O1  UNL     1      14.494  -1.815   6.503  1.00  0.00    -0.300 OA
ENDBRANCH  11  18
BRANCH  13  20
HETATM   20  C17 UNL     1      16.462  -5.743   8.790  1.00  0.00     0.204 C 
HETATM   21  O3  UNL     1      15.312  -5.875   9.260  1.00  0.00    -0.646 OA
HETATM   22  O4  UNL     1      17.454  -6.602   9.231  1.00  0.00    -0.646 OA
ENDBRANCH  13  20
TORSDOF 3
ENDMDL
MODEL 5
REMARK VINA RESULT: -5.766143360      2.464      4.484
REMARK  3 active torsions:
REMARK  status: ('A' for Active; 'I' for Inactive)
REMARK    1  A    between atoms: C2_2  and  C4_4 
REMARK    2  A    between atoms: C14_14  and  C15_15 
REMARK    3  A    between atoms: C16_18  and  C17_19 
ROOT
HETATM    1  C4  UNL     1      15.023  -5.441   3.446  1.00  0.00    -0.065 C 
HETATM    2  C5  UNL     1      15.643  -6.132   2.259  1.00  0.00     0.036 C 
HETATM    3  C6  UNL     1      17.086  -6.069   2.063  1.00  0.00     0.009 C 
HETATM    4  C7  UNL     1      17.887  -6.420   3.315  1.00  0.00    -0.006 C 
HETATM    5  C8  UNL     1      17.158  -7.502   4.029  1.00  0.00     0.006 C 
HETATM    6  C9  UNL     1      15.975  -7.096   4.815  1.00  0.00     0.015 C 
HETATM    7  C10 UNL     1      15.690  -5.556   4.736  1.00  0.00    -0.006 C 
HETATM    8  C11 UNL     1      14.641  -5.393   5.841  1.00  0.00     0.021 C 
HETATM    9  C12 UNL     1      16.935  -4.859   5.069  1.00  0.00     0.026 C 
HETATM   10  C13 UNL     1      16.890  -3.344   5.066  1.00  0.00     0.024 C 
HETATM   11  C14 UNL     1      17.694  -5.254   6.271  1.00  0.00     0.095 C 
HETATM   12  O2  UNL     1      18.754  -6.116   5.858  1.00  0.00    -0.335 OA
HETATM   13  C16 UNL     1      19.274  -5.221   4.890  1.00  0.00     0.234 C 
HETATM   14  C18 UNL     1      18.025  -5.141   4.018  1.00  0.00     0.045 C 
ENDROOT
BRANCH   1  15
HETATM   15  C2  UNL     1      14.132  -4.331   3.073  1.00  0.00    -0.068 C 
HETATM   16  C1  UNL     1      14.368  -3.073   2.826  1.00  0.00     0.018 C 
HETATM   17  C3  UNL     1      12.639  -4.647   2.924  1.00  0.00     0.047 C 
ENDBRANCH   1  15
BRANCH  11  18
HETATM   18  C15 UNL     1      17.088  -5.665   7.497  1.00  0.00     0.291 C 
HETATM   19  O1  UNL     1      17.727  -6.393   8.279  1.00  0.00    -0.300 OA
ENDBRANCH  11  18
BRANCH  13  20
HETATM   20  C17 UNL     1      20.418  -5.775   4.181  1.00  0.00     0.204 C 
HETATM   21  O3  UNL     1      20.935  -5.213   3.192  1.00  0.00    -0.646 OA
HETATM   22  O4  UNL     1      20.960  -6.973   4.613  1.00  0.00    -0.646 OA
ENDBRANCH  13  20
TORSDOF 3
ENDMDL
