MODEL 1
REMARK VINA RESULT: -7.428564594      0.000      0.000
REMARK  4 active torsions:
REMARK  status: ('A' for Active; 'I' for Inactive)
REMARK    1  A    between atoms: C2_2  and  N1_3 
REMARK    2  A    between atoms: C11_12  and  O1_13 
REMARK    3  A    between atoms: O1_13  and  C12_14 
REMARK       I    between atoms: C12_14  and  N2_16 
REMARK    4  A    between atoms: N2_16  and  C13_18 
ROOT
HETATM    1  N1  UNL     1      13.938  -2.549  11.036  1.00  0.00     0.097 N 
HETATM    2  C3  UNL     1      13.163  -1.543  10.390  1.00  0.00     0.226 C 
HETATM    3  C4  UNL     1      11.702  -1.940  10.690  1.00  0.00     0.036 C 
HETATM    4  C5  UNL     1      11.591  -2.883  11.851  1.00  0.00     0.002 C 
HETATM    5  C6  UNL     1      11.663  -4.344  11.484  1.00  0.00     0.000 C 
HETATM    6  C7  UNL     1      12.940  -5.014  11.916  1.00  0.00     0.002 C 
HETATM    7  C8  UNL     1      14.031  -4.980  10.876  1.00  0.00     0.036 C 
HETATM    8  C9  UNL     1      13.958  -3.690  10.164  1.00  0.00     0.226 C 
HETATM    9  C10 UNL     1      15.028  -3.433   9.140  1.00  0.00     0.068 C 
HETATM   10  C11 UNL     1      14.614  -2.173   8.403  1.00  0.00     0.137 C 
HETATM   11  C18 UNL     1      13.365  -1.538   8.895  1.00  0.00     0.068 C 
ENDROOT
BRANCH  10  12
HETATM   12  O1  UNL     1      14.461  -2.409   7.017  1.00  0.00    -0.298 OA
BRANCH  12  13
HETATM   13  C12 UNL     1      15.289  -3.222   6.279  1.00  0.00     0.361 C 
HETATM   14  O2  UNL     1      16.417  -2.796   5.978  1.00  0.00    -0.238 OA
HETATM   15  N2  UNL     1      14.913  -4.525   5.849  1.00  0.00    -0.332 N 
ATOM     16  H2  UNL     1      13.986  -4.872   6.097  1.00  0.00     0.165 HD
BRANCH  15  17
HETATM   17  C13 UNL     1      15.775  -5.369   5.084  1.00  0.00     0.086 C 
HETATM   18  C14 UNL     1      16.742  -6.155   5.916  1.00  0.00     0.025 C 
HETATM   19  C15 UNL     1      17.130  -7.318   5.031  1.00  0.00     0.002 C 
HETATM   20  C16 UNL     1      16.145  -7.336   3.879  1.00  0.00     0.002 C 
HETATM   21  C17 UNL     1      15.007  -6.423   4.326  1.00  0.00     0.025 C 
ENDBRANCH  15  17
ENDBRANCH  12  13
ENDBRANCH  10  12
BRANCH   1  22
HETATM   22  C2  UNL     1      15.204  -2.151  11.536  1.00  0.00     0.269 C 
HETATM   23  C1  UNL     1      15.341  -0.674  11.641  1.00  0.00     0.037 C 
ENDBRANCH   1  22
TORSDOF 4
ENDMDL
MODEL 2
REMARK VINA RESULT: -7.379123631      2.377      7.677
REMARK  4 active torsions:
REMARK  status: ('A' for Active; 'I' for Inactive)
REMARK    1  A    between atoms: C2_2  and  N1_3 
REMARK    2  A    between atoms: C11_12  and  O1_13 
REMARK    3  A    between atoms: O1_13  and  C12_14 
REMARK       I    between atoms: C12_14  and  N2_16 
REMARK    4  A    between atoms: N2_16  and  C13_18 
ROOT
HETATM    1  N1  UNL     1      17.407  -5.037   4.132  1.00  0.00     0.097 N 
HETATM    2  C3  UNL     1      17.845  -4.154   5.162  1.00  0.00     0.226 C 
HETATM    3  C4  UNL     1      19.359  -4.430   5.278  1.00  0.00     0.036 C 
HETATM    4  C5  UNL     1      19.912  -5.117   4.064  1.00  0.00     0.002 C 
HETATM    5  C6  UNL     1      19.872  -6.624   4.122  1.00  0.00     0.000 C 
HETATM    6  C7  UNL     1      18.861  -7.239   3.192  1.00  0.00     0.002 C 
HETATM    7  C8  UNL     1      17.506  -7.452   3.818  1.00  0.00     0.036 C 
HETATM    8  C9  UNL     1      17.232  -6.330   4.734  1.00  0.00     0.226 C 
HETATM    9  C10 UNL     1      15.880  -6.321   5.391  1.00  0.00     0.068 C 
HETATM   10  C11 UNL     1      15.923  -5.221   6.435  1.00  0.00     0.137 C 
HETATM   11  C18 UNL     1      17.196  -4.456   6.490  1.00  0.00     0.068 C 
ENDROOT
BRANCH  10  12
HETATM   12  O1  UNL     1      15.668  -5.724   7.732  1.00  0.00    -0.298 OA
BRANCH  12  13
HETATM   13  C12 UNL     1      15.640  -4.948   8.866  1.00  0.00     0.361 C 
HETATM   14  O2  UNL     1      16.425  -5.226   9.790  1.00  0.00    -0.238 OA
HETATM   15  N2  UNL     1      14.757  -3.844   9.027  1.00  0.00    -0.332 N 
ATOM     16  H2  UNL     1      14.114  -3.619   8.268  1.00  0.00     0.165 HD
BRANCH  15  17
HETATM   17  C13 UNL     1      14.731  -3.037  10.206  1.00  0.00     0.086 C 
HETATM   18  C14 UNL     1      15.479  -1.746  10.069  1.00  0.00     0.025 C 
HETATM   19  C15 UNL     1      14.885  -0.859  11.139  1.00  0.00     0.002 C 
HETATM   20  C16 UNL     1      13.622  -1.546  11.621  1.00  0.00     0.002 C 
HETATM   21  C17 UNL     1      13.331  -2.609  10.566  1.00  0.00     0.025 C 
ENDBRANCH  15  17
ENDBRANCH  12  13
ENDBRANCH  10  12
BRANCH   1  22
HETATM   22  C2  UNL     1      16.322  -4.593   3.335  1.00  0.00     0.269 C 
HETATM   23  C1  UNL     1      16.384  -3.136   3.042  1.00  0.00     0.037 C 
ENDBRANCH   1  22
TORSDOF 4
ENDMDL
MODEL 3
REMARK VINA RESULT: -7.251685161      1.418      1.656
REMARK  4 active torsions:
REMARK  status: ('A' for Active; 'I' for Inactive)
REMARK    1  A    between atoms: C2_2  and  N1_3 
REMARK    2  A    between atoms: C11_12  and  O1_13 
REMARK    3  A    between atoms: O1_13  and  C12_14 
REMARK       I    between atoms: C12_14  and  N2_16 
REMARK    4  A    between atoms: N2_16  and  C13_18 
ROOT
HETATM    1  N1  UNL     1      13.870  -2.534  11.104  1.00  0.00     0.097 N 
HETATM    2  C3  UNL     1      13.120  -1.532  10.420  1.00  0.00     0.226 C 
HETATM    3  C4  UNL     1      11.649  -1.910  10.691  1.00  0.00     0.036 C 
HETATM    4  C5  UNL     1      11.500  -2.831  11.866  1.00  0.00     0.002 C 
HETATM    5  C6  UNL     1      11.567  -4.299  11.527  1.00  0.00     0.000 C 
HETATM    6  C7  UNL     1      12.826  -4.973  12.003  1.00  0.00     0.002 C 
HETATM    7  C8  UNL     1      13.943  -4.968  10.990  1.00  0.00     0.036 C 
HETATM    8  C9  UNL     1      13.899  -3.691  10.253  1.00  0.00     0.226 C 
HETATM    9  C10 UNL     1      14.997  -3.462   9.251  1.00  0.00     0.068 C 
HETATM   10  C11 UNL     1      14.614  -2.212   8.481  1.00  0.00     0.137 C 
HETATM   11  C18 UNL     1      13.359  -1.557   8.930  1.00  0.00     0.068 C 
ENDROOT
BRANCH  10  12
HETATM   12  O1  UNL     1      14.492  -2.473   7.096  1.00  0.00    -0.298 OA
BRANCH  12  13
HETATM   13  C12 UNL     1      15.256  -3.392   6.417  1.00  0.00     0.361 C 
HETATM   14  O2  UNL     1      14.675  -4.300   5.798  1.00  0.00    -0.238 OA
HETATM   15  N2  UNL     1      16.678  -3.349   6.392  1.00  0.00    -0.332 N 
ATOM     16  H2  UNL     1      17.152  -2.603   6.902  1.00  0.00     0.165 HD
BRANCH  15  17
HETATM   17  C13 UNL     1      17.471  -4.304   5.685  1.00  0.00     0.086 C 
HETATM   18  C14 UNL     1      18.854  -3.822   5.367  1.00  0.00     0.025 C 
HETATM   19  C15 UNL     1      19.647  -5.090   5.151  1.00  0.00     0.002 C 
HETATM   20  C16 UNL     1      18.791  -6.231   5.666  1.00  0.00     0.002 C 
HETATM   21  C17 UNL     1      17.701  -5.556   6.493  1.00  0.00     0.025 C 
ENDBRANCH  15  17
ENDBRANCH  12  13
ENDBRANCH  10  12
BRANCH   1  22
HETATM   22  C2  UNL     1      15.126  -2.138  11.627  1.00  0.00     0.269 C 
HETATM   23  C1  UNL     1      15.285  -0.661  11.684  1.00  0.00     0.037 C 
ENDBRANCH   1  22
TORSDOF 4
ENDMDL
MODEL 4
REMARK VINA RESULT: -7.193486277      2.036      7.497
REMARK  4 active torsions:
REMARK  status: ('A' for Active; 'I' for Inactive)
REMARK    1  A    between atoms: C2_2  and  N1_3 
REMARK    2  A    between atoms: C11_12  and  O1_13 
REMARK    3  A    between atoms: O1_13  and  C12_14 
REMARK       I    between atoms: C12_14  and  N2_16 
REMARK    4  A    between atoms: N2_16  and  C13_18 
ROOT
HETATM    1  N1  UNL     1      16.859  -5.197   4.461  1.00  0.00     0.097 N 
HETATM    2  C3  UNL     1      18.089  -5.636   5.034  1.00  0.00     0.226 C 
HETATM    3  C4  UNL     1      18.332  -7.019   4.396  1.00  0.00     0.036 C 
HETATM    4  C5  UNL     1      17.530  -7.222   3.144  1.00  0.00     0.002 C 
HETATM    5  C6  UNL     1      16.166  -7.826   3.363  1.00  0.00     0.000 C 
HETATM    6  C7  UNL     1      15.033  -6.860   3.138  1.00  0.00     0.002 C 
HETATM    7  C8  UNL     1      14.605  -6.121   4.381  1.00  0.00     0.036 C 
HETATM    8  C9  UNL     1      15.802  -5.838   5.193  1.00  0.00     0.226 C 
HETATM    9  C10 UNL     1      15.586  -5.026   6.440  1.00  0.00     0.068 C 
HETATM   10  C11 UNL     1      16.896  -5.063   7.203  1.00  0.00     0.137 C 
HETATM   11  C18 UNL     1      17.994  -5.804   6.531  1.00  0.00     0.068 C 
ENDROOT
BRANCH  10  12
HETATM   12  O1  UNL     1      16.730  -5.617   8.494  1.00  0.00    -0.298 OA
BRANCH  12  13
HETATM   13  C12 UNL     1      15.919  -5.077   9.463  1.00  0.00     0.361 C 
HETATM   14  O2  UNL     1      15.343  -5.850  10.248  1.00  0.00    -0.238 OA
HETATM   15  N2  UNL     1      15.712  -3.677   9.607  1.00  0.00    -0.332 N 
ATOM     16  H2  UNL     1      16.185  -3.045   8.961  1.00  0.00     0.165 HD
BRANCH  15  17
HETATM   17  C13 UNL     1      14.869  -3.116  10.616  1.00  0.00     0.086 C 
HETATM   18  C14 UNL     1      15.365  -1.810  11.157  1.00  0.00     0.025 C 
HETATM   19  C15 UNL     1      14.132  -1.161  11.742  1.00  0.00     0.002 C 
HETATM   20  C16 UNL     1      12.942  -1.951  11.235  1.00  0.00     0.002 C 
HETATM   21  C17 UNL     1      13.495  -2.793  10.089  1.00  0.00     0.025 C 
ENDBRANCH  15  17
ENDBRANCH  12  13
ENDBRANCH  10  12
BRANCH   1  22
HETATM   22  C2  UNL     1      16.705  -3.799   4.282  1.00  0.00     0.269 C 
HETATM   23  C1  UNL     1      16.709  -3.401   2.849  1.00  0.00     0.037 C 
ENDBRANCH   1  22
TORSDOF 4
ENDMDL
MODEL 5
REMARK VINA RESULT: -7.192134225      2.248      7.335
REMARK  4 active torsions:
REMARK  status: ('A' for Active; 'I' for Inactive)
REMARK    1  A    between atoms: C2_2  and  N1_3 
REMARK    2  A    between atoms: C11_12  and  O1_13 
REMARK    3  A    between atoms: O1_13  and  C12_14 
REMARK       I    between atoms: C12_14  and  N2_16 
REMARK    4  A    between atoms: N2_16  and  C13_18 
ROOT
HETATM    1  N1  UNL     1      16.734  -5.061   5.156  1.00  0.00     0.097 N 
HETATM    2  C3  UNL     1      17.947  -5.336   5.855  1.00  0.00     0.226 C 
HETATM    3  C4  UNL     1      18.429  -6.677   5.262  1.00  0.00     0.036 C 
HETATM    4  C5  UNL     1      17.790  -6.983   3.940  1.00  0.00     0.002 C 
HETATM    5  C6  UNL     1      16.500  -7.759   4.030  1.00  0.00     0.000 C 
HETATM    6  C7  UNL     1      15.281  -6.948   3.681  1.00  0.00     0.002 C 
HETATM    7  C8  UNL     1      14.637  -6.270   4.864  1.00  0.00     0.036 C 
HETATM    8  C9  UNL     1      15.701  -5.834   5.788  1.00  0.00     0.226 C 
HETATM    9  C10 UNL     1      15.257  -5.055   6.995  1.00  0.00     0.068 C 
HETATM   10  C11 UNL     1      16.478  -4.921   7.886  1.00  0.00     0.137 C 
HETATM   11  C18 UNL     1      17.724  -5.514   7.336  1.00  0.00     0.068 C 
ENDROOT
BRANCH  10  12
HETATM   12  O1  UNL     1      16.256  -5.492   9.161  1.00  0.00    -0.298 OA
BRANCH  12  13
HETATM   13  C12 UNL     1      15.019  -5.590   9.753  1.00  0.00     0.361 C 
HETATM   14  O2  UNL     1      14.482  -6.710   9.814  1.00  0.00    -0.238 OA
HETATM   15  N2  UNL     1      14.330  -4.471  10.298  1.00  0.00    -0.332 N 
ATOM     16  H2  UNL     1      14.773  -3.553  10.245  1.00  0.00     0.165 HD
BRANCH  15  17
HETATM   17  C13 UNL     1      13.045  -4.575  10.914  1.00  0.00     0.086 C 
HETATM   18  C14 UNL     1      13.071  -5.254  12.249  1.00  0.00     0.025 C 
HETATM   19  C15 UNL     1      11.808  -4.779  12.930  1.00  0.00     0.002 C 
HETATM   20  C16 UNL     1      11.285  -3.614  12.112  1.00  0.00     0.002 C 
HETATM   21  C17 UNL     1      12.449  -3.221  11.207  1.00  0.00     0.025 C 
ENDBRANCH  15  17
ENDBRANCH  12  13
ENDBRANCH  10  12
BRANCH   1  22
HETATM   22  C2  UNL     1      16.421  -3.695   4.943  1.00  0.00     0.269 C 
HETATM   23  C1  UNL     1      16.506  -3.304   3.511  1.00  0.00     0.037 C 
ENDBRANCH   1  22
TORSDOF 4
ENDMDL
