MODEL 1
REMARK VINA RESULT: -7.625408188      0.000      0.000
REMARK  4 active torsions:
REMARK  status: ('A' for Active; 'I' for Inactive)
REMARK    1  A    between atoms: C4_4  and  C5_5 
REMARK    2  A    between atoms: C5_5  and  O2_7 
REMARK    3  A    between atoms: O2_7  and  C6_8 
REMARK       I    between atoms: C6_8  and  N1_10 
REMARK    4  A    between atoms: N1_10  and  C7_12 
ROOT
HETATM    1  C5  UNL     1      16.375  -5.302   6.449  1.00  0.00     0.277 C 
HETATM    2  O1  UNL     1      15.260  -5.801   6.605  1.00  0.00    -0.264 OA
ENDROOT
BRANCH   1   3
HETATM    3  C4  UNL     1      17.227  -5.279   5.266  1.00  0.00     0.060 C 
HETATM    4  C3  UNL     1      17.983  -3.931   5.346  1.00  0.00     0.054 C 
HETATM    5  C2  UNL     1      16.677  -3.413   4.796  1.00  0.00    -0.083 C 
HETATM    6  C1  UNL     1      15.938  -2.359   5.000  1.00  0.00     0.015 C 
HETATM    7  C19 UNL     1      16.723  -4.633   4.002  1.00  0.00     0.033 C 
HETATM    8  C18 UNL     1      15.557  -5.256   3.401  1.00  0.00     0.015 C 
HETATM    9  C16 UNL     1      15.871  -6.606   2.849  1.00  0.00    -0.013 C 
HETATM   10  C15 UNL     1      16.016  -7.685   3.914  1.00  0.00     0.009 C 
HETATM   11  C17 UNL     1      17.295  -6.887   2.522  1.00  0.00     0.009 C 
HETATM   12  C14 UNL     1      17.468  -7.408   3.919  1.00  0.00    -0.013 C 
HETATM   13  C13 UNL     1      18.000  -6.461   4.914  1.00  0.00     0.025 C 
ENDBRANCH   1   3
BRANCH   1  14
HETATM   14  O2  UNL     1      16.896  -4.658   7.595  1.00  0.00    -0.227 OA
BRANCH  14  15
HETATM   15  C6  UNL     1      16.325  -4.834   8.848  1.00  0.00     0.368 C 
HETATM   16  O3  UNL     1      16.782  -5.688   9.653  1.00  0.00    -0.238 OA
HETATM   17  N1  UNL     1      15.204  -4.066   9.284  1.00  0.00    -0.332 N 
ATOM     18  H1  UNL     1      14.823  -3.371   8.642  1.00  0.00     0.165 HD
BRANCH  17  19
HETATM   19  C7  UNL     1      14.585  -4.209  10.557  1.00  0.00     0.086 C 
HETATM   20  C8  UNL     1      14.037  -2.935  11.120  1.00  0.00     0.025 C 
HETATM   21  C9  UNL     1      12.528  -2.859  11.092  1.00  0.00     0.002 C 
HETATM   22  C10 UNL     1      11.889  -4.019  11.822  1.00  0.00     0.000 C 
HETATM   23  C11 UNL     1      12.810  -5.217  11.889  1.00  0.00     0.002 C 
HETATM   24  C12 UNL     1      13.552  -5.331  10.574  1.00  0.00     0.025 C 
ENDBRANCH  17  19
ENDBRANCH  14  15
ENDBRANCH   1  14
TORSDOF 4
ENDMDL
MODEL 2
REMARK VINA RESULT: -7.595299679      1.437      2.642
REMARK  4 active torsions:
REMARK  status: ('A' for Active; 'I' for Inactive)
REMARK    1  A    between atoms: C4_4  and  C5_5 
REMARK    2  A    between atoms: C5_5  and  O2_7 
REMARK    3  A    between atoms: O2_7  and  C6_8 
REMARK       I    between atoms: C6_8  and  N1_10 
REMARK    4  A    between atoms: N1_10  and  C7_12 
ROOT
HETATM    1  C5  UNL     1      17.238  -5.564   5.888  1.00  0.00     0.277 C 
HETATM    2  O1  UNL     1      17.626  -4.396   5.852  1.00  0.00    -0.264 OA
ENDROOT
BRANCH   1   3
HETATM    3  C4  UNL     1      16.375  -6.287   4.962  1.00  0.00     0.060 C 
HETATM    4  C3  UNL     1      17.046  -7.671   4.790  1.00  0.00     0.054 C 
HETATM    5  C2  UNL     1      17.925  -6.888   3.846  1.00  0.00    -0.083 C 
HETATM    6  C1  UNL     1      19.196  -6.871   3.562  1.00  0.00     0.015 C 
HETATM    7  C19 UNL     1      16.670  -6.242   3.485  1.00  0.00     0.033 C 
HETATM    8  C18 UNL     1      16.579  -4.932   2.866  1.00  0.00     0.015 C 
HETATM    9  C16 UNL     1      15.174  -4.433   2.826  1.00  0.00    -0.013 C 
HETATM   10  C15 UNL     1      14.660  -3.938   4.172  1.00  0.00     0.009 C 
HETATM   11  C17 UNL     1      14.092  -5.452   2.910  1.00  0.00     0.009 C 
HETATM   12  C14 UNL     1      14.116  -5.293   4.401  1.00  0.00    -0.013 C 
HETATM   13  C13 UNL     1      14.932  -6.261   5.154  1.00  0.00     0.025 C 
ENDBRANCH   1   3
BRANCH   1  14
HETATM   14  O2  UNL     1      17.708  -6.305   6.997  1.00  0.00    -0.227 OA
BRANCH  14  15
HETATM   15  C6  UNL     1      17.212  -6.087   8.276  1.00  0.00     0.368 C 
HETATM   16  O3  UNL     1      17.723  -6.660   9.274  1.00  0.00    -0.238 OA
HETATM   17  N1  UNL     1      16.112  -5.212   8.521  1.00  0.00    -0.332 N 
ATOM     18  H1  UNL     1      15.688  -4.741   7.722  1.00  0.00     0.165 HD
BRANCH  17  19
HETATM   19  C7  UNL     1      15.568  -4.956   9.812  1.00  0.00     0.086 C 
HETATM   20  C8  UNL     1      15.364  -3.504  10.114  1.00  0.00     0.025 C 
HETATM   21  C9  UNL     1      13.914  -3.082  10.108  1.00  0.00     0.002 C 
HETATM   22  C10 UNL     1      13.083  -3.894  11.076  1.00  0.00     0.000 C 
HETATM   23  C11 UNL     1      13.712  -5.239  11.365  1.00  0.00     0.002 C 
HETATM   24  C12 UNL     1      14.314  -5.777  10.083  1.00  0.00     0.025 C 
ENDBRANCH  17  19
ENDBRANCH  14  15
ENDBRANCH   1  14
TORSDOF 4
ENDMDL
MODEL 3
REMARK VINA RESULT: -7.502356353      0.942      1.037
REMARK  4 active torsions:
REMARK  status: ('A' for Active; 'I' for Inactive)
REMARK    1  A    between atoms: C4_4  and  C5_5 
REMARK    2  A    between atoms: C5_5  and  O2_7 
REMARK    3  A    between atoms: O2_7  and  C6_8 
REMARK       I    between atoms: C6_8  and  N1_10 
REMARK    4  A    between atoms: N1_10  and  C7_12 
ROOT
HETATM    1  C5  UNL     1      16.768  -6.037   6.008  1.00  0.00     0.277 C 
HETATM    2  O1  UNL     1      15.594  -6.324   6.240  1.00  0.00    -0.264 OA
ENDROOT
BRANCH   1   3
HETATM    3  C4  UNL     1      17.416  -5.718   4.741  1.00  0.00     0.060 C 
HETATM    4  C3  UNL     1      18.359  -4.533   5.062  1.00  0.00     0.054 C 
HETATM    5  C2  UNL     1      17.069  -3.758   4.954  1.00  0.00    -0.083 C 
HETATM    6  C1  UNL     1      16.529  -2.761   5.598  1.00  0.00     0.015 C 
HETATM    7  C19 UNL     1      16.814  -4.667   3.845  1.00  0.00     0.033 C 
HETATM    8  C18 UNL     1      15.491  -4.966   3.327  1.00  0.00     0.015 C 
HETATM    9  C16 UNL     1      15.518  -6.097   2.355  1.00  0.00    -0.013 C 
HETATM   10  C15 UNL     1      15.676  -7.464   3.007  1.00  0.00     0.009 C 
HETATM   11  C17 UNL     1      16.818  -6.384   1.688  1.00  0.00     0.009 C 
HETATM   12  C14 UNL     1      17.135  -7.329   2.810  1.00  0.00    -0.013 C 
HETATM   13  C13 UNL     1      17.947  -6.792   3.914  1.00  0.00     0.025 C 
ENDBRANCH   1   3
BRANCH   1  14
HETATM   14  O2  UNL     1      17.605  -6.016   7.148  1.00  0.00    -0.227 OA
BRANCH  14  15
HETATM   15  C6  UNL     1      17.084  -5.866   8.426  1.00  0.00     0.368 C 
HETATM   16  O3  UNL     1      17.567  -6.499   9.401  1.00  0.00    -0.238 OA
HETATM   17  N1  UNL     1      15.986  -4.995   8.697  1.00  0.00    -0.332 N 
ATOM     18  H1  UNL     1      15.584  -4.475   7.917  1.00  0.00     0.165 HD
BRANCH  17  19
HETATM   19  C7  UNL     1      15.417  -4.806   9.988  1.00  0.00     0.086 C 
HETATM   20  C8  UNL     1      15.189  -3.373  10.354  1.00  0.00     0.025 C 
HETATM   21  C9  UNL     1      13.734  -2.968  10.342  1.00  0.00     0.002 C 
HETATM   22  C10 UNL     1      12.896  -3.835  11.255  1.00  0.00     0.000 C 
HETATM   23  C11 UNL     1      13.537  -5.184  11.492  1.00  0.00     0.002 C 
HETATM   24  C12 UNL     1      14.168  -5.654  10.198  1.00  0.00     0.025 C 
ENDBRANCH  17  19
ENDBRANCH  14  15
ENDBRANCH   1  14
TORSDOF 4
ENDMDL
MODEL 4
REMARK VINA RESULT: -7.449696888      2.180      3.318
REMARK  4 active torsions:
REMARK  status: ('A' for Active; 'I' for Inactive)
REMARK    1  A    between atoms: C4_4  and  C5_5 
REMARK    2  A    between atoms: C5_5  and  O2_7 
REMARK    3  A    between atoms: O2_7  and  C6_8 
REMARK       I    between atoms: C6_8  and  N1_10 
REMARK    4  A    between atoms: N1_10  and  C7_12 
ROOT
HETATM    1  C5  UNL     1      16.873  -3.694   5.595  1.00  0.00     0.277 C 
HETATM    2  O1  UNL     1      17.840  -2.986   5.874  1.00  0.00    -0.264 OA
ENDROOT
BRANCH   1   3
HETATM    3  C4  UNL     1      16.830  -5.096   5.197  1.00  0.00     0.060 C 
HETATM    4  C3  UNL     1      15.719  -5.725   6.073  1.00  0.00     0.054 C 
HETATM    5  C2  UNL     1      16.827  -5.728   7.097  1.00  0.00    -0.083 C 
HETATM    6  C1  UNL     1      16.908  -5.489   8.375  1.00  0.00     0.015 C 
HETATM    7  C19 UNL     1      17.649  -6.108   5.956  1.00  0.00     0.033 C 
HETATM    8  C18 UNL     1      19.088  -5.923   5.894  1.00  0.00     0.015 C 
HETATM    9  C16 UNL     1      19.624  -6.186   4.527  1.00  0.00    -0.013 C 
HETATM   10  C15 UNL     1      19.342  -5.067   3.532  1.00  0.00     0.009 C 
HETATM   11  C17 UNL     1      18.799  -7.043   3.632  1.00  0.00     0.009 C 
HETATM   12  C14 UNL     1      18.120  -5.800   3.138  1.00  0.00    -0.013 C 
HETATM   13  C13 UNL     1      16.846  -5.444   3.784  1.00  0.00     0.025 C 
ENDBRANCH   1   3
BRANCH   1  14
HETATM   14  O2  UNL     1      15.622  -3.039   5.676  1.00  0.00    -0.227 OA
BRANCH  14  15
HETATM   15  C6  UNL     1      15.353  -2.113   6.674  1.00  0.00     0.368 C 
HETATM   16  O3  UNL     1      15.418  -0.876   6.446  1.00  0.00    -0.238 OA
HETATM   17  N1  UNL     1      14.991  -2.511   7.996  1.00  0.00    -0.332 N 
ATOM     18  H1  UNL     1      14.934  -3.509   8.197  1.00  0.00     0.165 HD
BRANCH  17  19
HETATM   19  C7  UNL     1      14.705  -1.601   9.054  1.00  0.00     0.086 C 
HETATM   20  C8  UNL     1      13.256  -1.249   9.185  1.00  0.00     0.025 C 
HETATM   21  C9  UNL     1      12.586  -1.877  10.384  1.00  0.00     0.002 C 
HETATM   22  C10 UNL     1      13.285  -1.518  11.676  1.00  0.00     0.000 C 
HETATM   23  C11 UNL     1      14.732  -1.141  11.446  1.00  0.00     0.002 C 
HETATM   24  C12 UNL     1      15.305  -2.051  10.380  1.00  0.00     0.025 C 
ENDBRANCH  17  19
ENDBRANCH  14  15
ENDBRANCH   1  14
TORSDOF 4
ENDMDL
MODEL 5
REMARK VINA RESULT: -7.314627027      1.041      1.321
REMARK  4 active torsions:
REMARK  status: ('A' for Active; 'I' for Inactive)
REMARK    1  A    between atoms: C4_4  and  C5_5 
REMARK    2  A    between atoms: C5_5  and  O2_7 
REMARK    3  A    between atoms: O2_7  and  C6_8 
REMARK       I    between atoms: C6_8  and  N1_10 
REMARK    4  A    between atoms: N1_10  and  C7_12 
ROOT
HETATM    1  C5  UNL     1      16.373  -5.801   6.156  1.00  0.00     0.277 C 
HETATM    2  O1  UNL     1      15.149  -5.869   6.264  1.00  0.00    -0.264 OA
ENDROOT
BRANCH   1   3
HETATM    3  C4  UNL     1      17.196  -5.670   4.960  1.00  0.00     0.060 C 
HETATM    4  C3  UNL     1      18.152  -4.489   5.261  1.00  0.00     0.054 C 
HETATM    5  C2  UNL     1      16.930  -3.687   4.885  1.00  0.00    -0.083 C 
HETATM    6  C1  UNL     1      16.366  -2.598   5.323  1.00  0.00     0.015 C 
HETATM    7  C19 UNL     1      16.774  -4.720   3.870  1.00  0.00     0.033 C 
HETATM    8  C18 UNL     1      15.516  -5.034   3.217  1.00  0.00     0.015 C 
HETATM    9  C16 UNL     1      15.608  -6.279   2.401  1.00  0.00    -0.013 C 
HETATM   10  C15 UNL     1      15.606  -7.557   3.230  1.00  0.00     0.009 C 
HETATM   11  C17 UNL     1      16.967  -6.696   1.958  1.00  0.00     0.009 C 
HETATM   12  C14 UNL     1      17.084  -7.502   3.218  1.00  0.00    -0.013 C 
HETATM   13  C13 UNL     1      17.773  -6.859   4.350  1.00  0.00     0.025 C 
ENDBRANCH   1   3
BRANCH   1  14
HETATM   14  O2  UNL     1      17.075  -5.859   7.382  1.00  0.00    -0.227 OA
BRANCH  14  15
HETATM   15  C6  UNL     1      16.639  -5.160   8.500  1.00  0.00     0.368 C 
HETATM   16  O3  UNL     1      17.007  -5.494   9.657  1.00  0.00    -0.238 OA
HETATM   17  N1  UNL     1      15.761  -4.039   8.396  1.00  0.00    -0.332 N 
ATOM     18  H1  UNL     1      15.455  -3.757   7.466  1.00  0.00     0.165 HD
BRANCH  17  19
HETATM   19  C7  UNL     1      15.287  -3.291   9.511  1.00  0.00     0.086 C 
HETATM   20  C8  UNL     1      15.117  -1.829   9.241  1.00  0.00     0.025 C 
HETATM   21  C9  UNL     1      13.674  -1.396   9.133  1.00  0.00     0.002 C 
HETATM   22  C10 UNL     1      12.883  -1.749  10.372  1.00  0.00     0.000 C 
HETATM   23  C11 UNL     1      13.507  -2.900  11.129  1.00  0.00     0.002 C 
HETATM   24  C12 UNL     1      14.037  -3.906  10.129  1.00  0.00     0.025 C 
ENDBRANCH  17  19
ENDBRANCH  14  15
ENDBRANCH   1  14
TORSDOF 4
ENDMDL
