MODEL 1
REMARK VINA RESULT: -7.867391842      0.000      0.000
REMARK  2 active torsions:
REMARK  status: ('A' for Active; 'I' for Inactive)
REMARK    1  A    between atoms: N1_2  and  C2_4 
REMARK    2  A    between atoms: C19_22  and  N2_23 
ROOT
HETATM    1  C2  UNL     1      -1.324  -0.039 -10.902  1.00  0.00     0.106 C 
HETATM    2  C3  UNL     1      -1.627   1.176 -10.091  1.00  0.00     0.027 C 
HETATM    3  C4  UNL     1      -0.829   1.286  -8.813  1.00  0.00     0.007 C 
HETATM    4  C5  UNL     1      -1.003  -0.023  -8.094  1.00  0.00    -0.004 C 
HETATM    5  C6  UNL     1      -0.298  -1.080  -8.867  1.00  0.00     0.022 C 
HETATM    6  C7  UNL     1      -0.158  -2.330  -8.079  1.00  0.00     0.008 C 
HETATM    7  C8  UNL     1      -1.039  -2.437  -6.884  1.00  0.00     0.010 C 
HETATM    8  C9  UNL     1      -1.095  -1.215  -6.012  1.00  0.00    -0.034 C 
HETATM    9  C10 UNL     1      -2.599  -0.964  -5.761  1.00  0.00     0.016 C 
HETATM   10  C11 UNL     1      -0.588   0.033  -6.640  1.00  0.00    -0.001 C 
HETATM   11  C12 UNL     1       0.851   0.310  -6.519  1.00  0.00     0.006 C 
HETATM   12  C13 UNL     1       1.590  -0.439  -5.469  1.00  0.00     0.012 C 
HETATM   13  C14 UNL     1       0.776  -0.929  -4.340  1.00  0.00    -0.016 C 
HETATM   14  C15 UNL     1       1.604  -1.962  -3.572  1.00  0.00     0.018 C 
HETATM   15  C16 UNL     1       0.435   0.156  -3.327  1.00  0.00     0.177 C 
HETATM   16  O1  UNL     1      -0.500  -0.532  -2.533  1.00  0.00    -0.390 OA
HETATM   17  C17 UNL     1      -1.415  -0.954  -3.526  1.00  0.00     0.173 C 
HETATM   18  C18 UNL     1      -0.535  -1.511  -4.650  1.00  0.00     0.028 C 
HETATM   19  C19 UNL     1      -1.072  -1.287 -10.152  1.00  0.00     0.210 C 
ENDROOT
BRANCH  19  20
HETATM   20  N2  UNL     1      -0.240  -2.160 -10.992  1.00  0.00    -0.073 N 
ATOM     21  H23 UNL     1      -0.775  -2.905 -11.439  1.00  0.00     0.274 HD
ATOM     22  H22 UNL     1       0.086  -1.698 -11.842  1.00  0.00     0.274 HD
ATOM     23  H21 UNL     1       0.525  -2.513 -10.417  1.00  0.00     0.274 HD
ENDBRANCH  19  20
BRANCH   1  24
HETATM   24  N1  UNL     1      -2.336  -0.244 -11.890  1.00  0.00    -0.419 N 
HETATM   25  C1  UNL     1      -2.512   0.797 -12.845  1.00  0.00     0.140 C 
ATOM     26  H1  UNL     1      -2.901  -1.092 -11.911  1.00  0.00     0.153 HD
ENDBRANCH   1  24
TORSDOF 2
ENDMDL
MODEL 2
REMARK VINA RESULT: -7.657596870      3.365      6.271
REMARK  2 active torsions:
REMARK  status: ('A' for Active; 'I' for Inactive)
REMARK    1  A    between atoms: N1_2  and  C2_4 
REMARK    2  A    between atoms: C19_22  and  N2_23 
ROOT
HETATM    1  C2  UNL     1      -0.717  -0.878  -3.762  1.00  0.00     0.106 C 
HETATM    2  C3  UNL     1      -2.090  -0.852  -4.345  1.00  0.00     0.027 C 
HETATM    3  C4  UNL     1      -2.175  -1.370  -5.761  1.00  0.00     0.007 C 
HETATM    4  C5  UNL     1      -1.132  -0.625  -6.546  1.00  0.00    -0.004 C 
HETATM    5  C6  UNL     1       0.210  -1.068  -6.082  1.00  0.00     0.022 C 
HETATM    6  C7  UNL     1       1.282  -0.617  -7.004  1.00  0.00     0.008 C 
HETATM    7  C8  UNL     1       0.899   0.465  -7.952  1.00  0.00     0.010 C 
HETATM    8  C9  UNL     1      -0.415   0.274  -8.654  1.00  0.00    -0.034 C 
HETATM    9  C10 UNL     1      -1.156   1.622  -8.502  1.00  0.00     0.016 C 
HETATM   10  C11 UNL     1      -1.315  -0.739  -8.044  1.00  0.00    -0.001 C 
HETATM   11  C12 UNL     1      -1.155  -2.133  -8.484  1.00  0.00     0.006 C 
HETATM   12  C13 UNL     1      -0.415  -2.351  -9.754  1.00  0.00     0.012 C 
HETATM   13  C14 UNL     1      -0.406  -1.215 -10.694  1.00  0.00    -0.016 C 
HETATM   14  C15 UNL     1       0.677  -1.474 -11.743  1.00  0.00     0.018 C 
HETATM   15  C16 UNL     1      -1.706  -1.068 -11.476  1.00  0.00     0.177 C 
HETATM   16  O1  UNL     1      -1.490   0.182 -12.084  1.00  0.00    -0.390 OA
HETATM   17  C17 UNL     1      -1.199   0.970 -10.945  1.00  0.00     0.173 C 
HETATM   18  C18 UNL     1      -0.208   0.128 -10.134  1.00  0.00     0.028 C 
HETATM   19  C19 UNL     1       0.394  -0.540  -4.675  1.00  0.00     0.210 C 
ENDROOT
BRANCH  19  20
HETATM   20  N2  UNL     1       1.615  -1.175  -4.159  1.00  0.00    -0.073 N 
ATOM     21  H23 UNL     1       1.936  -0.759  -3.284  1.00  0.00     0.274 HD
ATOM     22  H22 UNL     1       1.451  -2.119  -3.809  1.00  0.00     0.274 HD
ATOM     23  H21 UNL     1       2.321  -1.143  -4.894  1.00  0.00     0.274 HD
ENDBRANCH  19  20
BRANCH   1  24
HETATM   24  N1  UNL     1      -0.660  -0.073  -2.583  1.00  0.00    -0.419 N 
HETATM   25  C1  UNL     1      -1.906   0.273  -1.988  1.00  0.00     0.140 C 
ATOM     26  H1  UNL     1       0.228   0.236  -2.187  1.00  0.00     0.153 HD
ENDBRANCH   1  24
TORSDOF 2
ENDMDL
MODEL 3
REMARK VINA RESULT: -7.053240446      1.397      2.852
REMARK  2 active torsions:
REMARK  status: ('A' for Active; 'I' for Inactive)
REMARK    1  A    between atoms: N1_2  and  C2_4 
REMARK    2  A    between atoms: C19_22  and  N2_23 
ROOT
HETATM    1  C2  UNL     1      -1.234  -1.145 -11.134  1.00  0.00     0.106 C 
HETATM    2  C3  UNL     1      -0.769  -2.457 -10.599  1.00  0.00     0.027 C 
HETATM    3  C4  UNL     1      -0.972  -2.631  -9.112  1.00  0.00     0.007 C 
HETATM    4  C5  UNL     1      -0.364  -1.421  -8.459  1.00  0.00    -0.004 C 
HETATM    5  C6  UNL     1      -1.196  -0.236  -8.800  1.00  0.00     0.022 C 
HETATM    6  C7  UNL     1      -0.849   0.934  -7.955  1.00  0.00     0.008 C 
HETATM    7  C8  UNL     1       0.453   0.845  -7.240  1.00  0.00     0.010 C 
HETATM    8  C9  UNL     1       0.721  -0.460  -6.545  1.00  0.00    -0.034 C 
HETATM    9  C10 UNL     1       2.152  -0.858  -6.968  1.00  0.00     0.016 C 
HETATM   10  C11 UNL     1      -0.144  -1.591  -6.972  1.00  0.00    -0.001 C 
HETATM   11  C12 UNL     1      -1.425  -1.760  -6.271  1.00  0.00     0.006 C 
HETATM   12  C13 UNL     1      -1.570  -1.064  -4.966  1.00  0.00     0.012 C 
HETATM   13  C14 UNL     1      -0.311  -0.761  -4.260  1.00  0.00    -0.016 C 
HETATM   14  C15 UNL     1      -0.618   0.253  -3.155  1.00  0.00     0.018 C 
HETATM   15  C16 UNL     1       0.289  -1.968  -3.550  1.00  0.00     0.177 C 
HETATM   16  O1  UNL     1       1.543  -1.444  -3.186  1.00  0.00    -0.390 OA
HETATM   17  C17 UNL     1       2.007  -0.999  -4.447  1.00  0.00     0.173 C 
HETATM   18  C18 UNL     1       0.813  -0.259  -5.060  1.00  0.00     0.028 C 
HETATM   19  C19 UNL     1      -1.005   0.036 -10.277  1.00  0.00     0.210 C 
ENDROOT
BRANCH  19  20
HETATM   20  N2  UNL     1      -2.001   1.056 -10.634  1.00  0.00    -0.073 N 
ATOM     21  H23 UNL     1      -2.909   0.656 -10.871  1.00  0.00     0.274 HD
ATOM     22  H22 UNL     1      -2.303   1.612  -9.833  1.00  0.00     0.274 HD
ATOM     23  H21 UNL     1      -1.613   1.626 -11.385  1.00  0.00     0.274 HD
ENDBRANCH  19  20
BRANCH   1  24
HETATM   24  N1  UNL     1      -0.707  -0.924 -12.443  1.00  0.00    -0.419 N 
HETATM   25  C1  UNL     1      -0.550  -2.073 -13.268  1.00  0.00     0.140 C 
ATOM     26  H1  UNL     1      -0.455   0.009 -12.770  1.00  0.00     0.153 HD
ENDBRANCH   1  24
TORSDOF 2
ENDMDL
MODEL 4
REMARK VINA RESULT: -6.922262252      2.287      3.712
REMARK  2 active torsions:
REMARK  status: ('A' for Active; 'I' for Inactive)
REMARK    1  A    between atoms: N1_2  and  C2_4 
REMARK    2  A    between atoms: C19_22  and  N2_23 
ROOT
HETATM    1  C2  UNL     1      -0.330   1.505 -13.645  1.00  0.00     0.106 C 
HETATM    2  C3  UNL     1      -1.743   1.311 -13.205  1.00  0.00     0.027 C 
HETATM    3  C4  UNL     1      -1.928   1.269 -11.706  1.00  0.00     0.007 C 
HETATM    4  C5  UNL     1      -0.951   0.249 -11.190  1.00  0.00    -0.004 C 
HETATM    5  C6  UNL     1       0.425   0.787 -11.367  1.00  0.00     0.022 C 
HETATM    6  C7  UNL     1       1.423  -0.011 -10.611  1.00  0.00     0.008 C 
HETATM    7  C8  UNL     1       0.964  -1.354 -10.163  1.00  0.00     0.010 C 
HETATM    8  C9  UNL     1      -0.397  -1.393  -9.528  1.00  0.00    -0.034 C 
HETATM    9  C10 UNL     1      -1.135  -2.561 -10.220  1.00  0.00     0.016 C 
HETATM   10  C11 UNL     1      -1.242  -0.195  -9.773  1.00  0.00    -0.001 C 
HETATM   11  C12 UNL     1      -1.104   0.929  -8.835  1.00  0.00     0.006 C 
HETATM   12  C13 UNL     1      -0.457   0.634  -7.530  1.00  0.00     0.012 C 
HETATM   13  C14 UNL     1      -0.526  -0.770  -7.084  1.00  0.00    -0.016 C 
HETATM   14  C15 UNL     1       0.479  -0.957  -5.945  1.00  0.00     0.018 C 
HETATM   15  C16 UNL     1      -1.881  -1.151  -6.499  1.00  0.00     0.177 C 
HETATM   16  O1  UNL     1      -1.720  -2.544  -6.390  1.00  0.00    -0.390 OA
HETATM   17  C17 UNL     1      -1.352  -2.863  -7.719  1.00  0.00     0.173 C 
HETATM   18  C18 UNL     1      -0.298  -1.814  -8.090  1.00  0.00     0.028 C 
HETATM   19  C19 UNL     1       0.708   0.814 -12.854  1.00  0.00     0.210 C 
ENDROOT
BRANCH  19  20
HETATM   20  N2  UNL     1       1.968   1.552 -13.015  1.00  0.00    -0.073 N 
ATOM     21  H23 UNL     1       2.212   1.708 -13.994  1.00  0.00     0.274 HD
ATOM     22  H22 UNL     1       1.891   2.531 -12.737  1.00  0.00     0.274 HD
ATOM     23  H21 UNL     1       2.694   1.052 -12.502  1.00  0.00     0.274 HD
ENDBRANCH  19  20
BRANCH   1  24
HETATM   24  N1  UNL     1      -0.194   1.195 -15.033  1.00  0.00    -0.419 N 
HETATM   25  C1  UNL     1      -0.886   2.040 -15.945  1.00  0.00     0.140 C 
ATOM     26  H1  UNL     1       0.372   0.409 -15.354  1.00  0.00     0.153 HD
ENDBRANCH   1  24
TORSDOF 2
ENDMDL
MODEL 5
REMARK VINA RESULT: -6.867061523      3.444      6.443
REMARK  2 active torsions:
REMARK  status: ('A' for Active; 'I' for Inactive)
REMARK    1  A    between atoms: N1_2  and  C2_4 
REMARK    2  A    between atoms: C19_22  and  N2_23 
ROOT
HETATM    1  C2  UNL     1      -0.723  -1.521  -5.218  1.00  0.00     0.106 C 
HETATM    2  C3  UNL     1      -1.924  -1.952  -5.991  1.00  0.00     0.027 C 
HETATM    3  C4  UNL     1      -1.647  -2.283  -7.438  1.00  0.00     0.007 C 
HETATM    4  C5  UNL     1      -0.909  -1.103  -8.007  1.00  0.00    -0.004 C 
HETATM    5  C6  UNL     1       0.442  -1.052  -7.385  1.00  0.00     0.022 C 
HETATM    6  C7  UNL     1       1.338  -0.113  -8.106  1.00  0.00     0.008 C 
HETATM    7  C8  UNL     1       0.660   0.848  -9.018  1.00  0.00     0.010 C 
HETATM    8  C9  UNL     1      -0.389   0.256  -9.916  1.00  0.00    -0.034 C 
HETATM    9  C10 UNL     1      -1.615   1.186  -9.776  1.00  0.00     0.016 C 
HETATM   10  C11 UNL     1      -0.872  -1.092  -9.519  1.00  0.00    -0.001 C 
HETATM   11  C12 UNL     1      -0.127  -2.252 -10.032  1.00  0.00     0.006 C 
HETATM   12  C13 UNL     1       0.769  -2.010 -11.192  1.00  0.00     0.012 C 
HETATM   13  C14 UNL     1       0.425  -0.850 -12.036  1.00  0.00    -0.016 C 
HETATM   14  C15 UNL     1       1.626  -0.541 -12.932  1.00  0.00     0.018 C 
HETATM   15  C16 UNL     1      -0.735  -1.117 -12.986  1.00  0.00     0.177 C 
HETATM   16  O1  UNL     1      -0.970   0.185 -13.463  1.00  0.00    -0.390 OA
HETATM   17  C17 UNL     1      -1.138   0.877 -12.240  1.00  0.00     0.173 C 
HETATM   18  C18 UNL     1       0.014   0.385 -11.357  1.00  0.00     0.028 C 
HETATM   19  C19 UNL     1       0.252  -0.672  -5.931  1.00  0.00     0.210 C 
ENDROOT
BRANCH  19  20
HETATM   20  N2  UNL     1       1.563  -0.849  -5.290  1.00  0.00    -0.073 N 
ATOM     21  H23 UNL     1       1.639  -0.350  -4.404  1.00  0.00     0.274 HD
ATOM     22  H22 UNL     1       1.701  -1.793  -4.928  1.00  0.00     0.274 HD
ATOM     23  H21 UNL     1       2.280  -0.574  -5.961  1.00  0.00     0.274 HD
ENDBRANCH  19  20
BRANCH   1  24
HETATM   24  N1  UNL     1      -1.115  -0.910  -3.987  1.00  0.00    -0.419 N 
HETATM   25  C1  UNL     1      -2.509  -0.887  -3.703  1.00  0.00     0.140 C 
ATOM     26  H1  UNL     1      -0.430  -0.510  -3.345  1.00  0.00     0.153 HD
ENDBRANCH   1  24
TORSDOF 2
ENDMDL
