MODEL 1
REMARK VINA RESULT: -7.647279394      0.000      0.000
REMARK  3 active torsions:
REMARK  status: ('A' for Active; 'I' for Inactive)
REMARK    1  A    between atoms: C2_2  and  C4_4 
REMARK    2  A    between atoms: C4_4  and  O1_5 
REMARK    3  A    between atoms: C19_22  and  O3_23 
ROOT
HETATM    1  C4  UNL     1       4.055   1.736  -5.975  1.00  0.00     0.087 C 
HETATM    2  C5  UNL     1       2.766   1.987  -5.215  1.00  0.00     0.048 C 
HETATM    3  C6  UNL     1       2.063   0.666  -5.180  1.00  0.00     0.022 C 
HETATM    4  C7  UNL     1       1.504   0.434  -6.593  1.00  0.00    -0.005 C 
HETATM    5  C8  UNL     1       1.085  -1.023  -6.635  1.00  0.00     0.006 C 
HETATM    6  C9  UNL     1       0.134  -1.384  -5.538  1.00  0.00     0.012 C 
HETATM    7  C10 UNL     1       0.610  -0.967  -4.209  1.00  0.00    -0.011 C 
HETATM    8  C11 UNL     1       1.887  -1.752  -3.893  1.00  0.00     0.018 C 
HETATM    9  C12 UNL     1      -0.274  -1.037  -3.063  1.00  0.00     0.025 C 
HETATM   10  C13 UNL     1      -1.721  -1.178  -3.270  1.00  0.00     0.008 C 
HETATM   11  C14 UNL     1      -2.301  -0.197  -2.240  1.00  0.00     0.003 C 
HETATM   12  C15 UNL     1      -1.342   0.981  -2.477  1.00  0.00     0.032 C 
HETATM   13  C16 UNL     1      -0.027   0.294  -2.346  1.00  0.00     0.127 C 
HETATM   14  O2  UNL     1       1.017   0.918  -2.999  1.00  0.00    -0.379 OA
HETATM   15  C17 UNL     1       0.921   0.536  -4.281  1.00  0.00     0.135 C 
HETATM   16  C18 UNL     1       2.417   0.827  -7.662  1.00  0.00     0.039 C 
HETATM   17  C19 UNL     1       3.822   1.125  -7.309  1.00  0.00     0.153 C 
ENDROOT
BRANCH   1  18
HETATM   18  C2  UNL     1       4.930   2.965  -6.018  1.00  0.00     0.014 C 
HETATM   19  C1  UNL     1       4.171   4.213  -5.625  1.00  0.00     0.012 C 
HETATM   20  C3  UNL     1       6.106   2.848  -5.073  1.00  0.00     0.012 C 
ENDBRANCH   1  18
BRANCH   1  21
HETATM   21  O1  UNL     1       4.764   0.792  -5.199  1.00  0.00    -0.387 OA
ATOM     22  H1  UNL     1       4.337   0.787  -4.350  1.00  0.00     0.210 HD
ENDBRANCH   1  21
BRANCH  17  23
HETATM   23  O3  UNL     1       4.341   2.020  -8.276  1.00  0.00    -0.393 OA
ATOM     24  H3  UNL     1       4.045   1.718  -9.126  1.00  0.00     0.210 HD
ENDBRANCH  17  23
TORSDOF 3
ENDMDL
MODEL 2
REMARK VINA RESULT: -6.592503516      2.076      3.381
REMARK  3 active torsions:
REMARK  status: ('A' for Active; 'I' for Inactive)
REMARK    1  A    between atoms: C2_2  and  C4_4 
REMARK    2  A    between atoms: C4_4  and  O1_5 
REMARK    3  A    between atoms: C19_22  and  O3_23 
ROOT
HETATM    1  C4  UNL     1       4.391   3.423  -7.490  1.00  0.00     0.087 C 
HETATM    2  C5  UNL     1       3.333   2.754  -6.632  1.00  0.00     0.048 C 
HETATM    3  C6  UNL     1       2.571   1.864  -7.564  1.00  0.00     0.022 C 
HETATM    4  C7  UNL     1       1.686   2.786  -8.418  1.00  0.00    -0.005 C 
HETATM    5  C8  UNL     1       1.173   1.925  -9.556  1.00  0.00     0.006 C 
HETATM    6  C9  UNL     1       0.482   0.687  -9.079  1.00  0.00     0.012 C 
HETATM    7  C10 UNL     1       1.280  -0.075  -8.105  1.00  0.00    -0.011 C 
HETATM    8  C11 UNL     1       2.541  -0.580  -8.813  1.00  0.00     0.018 C 
HETATM    9  C12 UNL     1       0.683  -1.176  -7.376  1.00  0.00     0.025 C 
HETATM   10  C13 UNL     1      -0.778  -1.313  -7.336  1.00  0.00     0.008 C 
HETATM   11  C14 UNL     1      -1.037  -1.675  -5.865  1.00  0.00     0.003 C 
HETATM   12  C15 UNL     1      -0.083  -0.664  -5.207  1.00  0.00     0.032 C 
HETATM   13  C16 UNL     1       1.178  -0.957  -5.943  1.00  0.00     0.127 C 
HETATM   14  O2  UNL     1       2.080   0.086  -5.980  1.00  0.00    -0.379 OA
HETATM   15  C17 UNL     1       1.664   0.888  -6.971  1.00  0.00     0.135 C 
HETATM   16  C18 UNL     1       2.350   4.014  -8.846  1.00  0.00     0.039 C 
HETATM   17  C19 UNL     1       3.814   4.116  -8.670  1.00  0.00     0.153 C 
ENDROOT
BRANCH   1  18
HETATM   18  C2  UNL     1       5.311   4.294  -6.668  1.00  0.00     0.014 C 
HETATM   19  C1  UNL     1       4.682   4.697  -5.354  1.00  0.00     0.012 C 
HETATM   20  C3  UNL     1       6.606   3.584  -6.340  1.00  0.00     0.012 C 
ENDBRANCH   1  18
BRANCH   1  21
HETATM   21  O1  UNL     1       5.197   2.369  -7.973  1.00  0.00    -0.387 OA
ATOM     22  H1  UNL     1       4.891   2.197  -8.856  1.00  0.00     0.210 HD
ENDBRANCH   1  21
BRANCH  17  23
HETATM   23  O3  UNL     1       4.152   5.486  -8.559  1.00  0.00    -0.393 OA
ATOM     24  H3  UNL     1       3.757   5.934  -9.297  1.00  0.00     0.210 HD
ENDBRANCH  17  23
TORSDOF 3
ENDMDL
MODEL 3
REMARK VINA RESULT: -6.406244633      2.260      6.186
REMARK  3 active torsions:
REMARK  status: ('A' for Active; 'I' for Inactive)
REMARK    1  A    between atoms: C2_2  and  C4_4 
REMARK    2  A    between atoms: C4_4  and  O1_5 
REMARK    3  A    between atoms: C19_22  and  O3_23 
ROOT
HETATM    1  C4  UNL     1       0.141  -0.432  -7.226  1.00  0.00     0.087 C 
HETATM    2  C5  UNL     1       1.445  -0.096  -6.528  1.00  0.00     0.048 C 
HETATM    3  C6  UNL     1       2.107   0.927  -7.398  1.00  0.00     0.022 C 
HETATM    4  C7  UNL     1       2.642   0.173  -8.626  1.00  0.00    -0.005 C 
HETATM    5  C8  UNL     1       3.015   1.241  -9.635  1.00  0.00     0.006 C 
HETATM    6  C9  UNL     1       3.966   2.254  -9.081  1.00  0.00     0.012 C 
HETATM    7  C10 UNL     1       3.518   2.817  -7.797  1.00  0.00    -0.011 C 
HETATM    8  C11 UNL     1       2.221   3.593  -8.043  1.00  0.00     0.018 C 
HETATM    9  C12 UNL     1       4.413   3.643  -7.011  1.00  0.00     0.025 C 
HETATM   10  C13 UNL     1       5.852   3.635  -7.303  1.00  0.00     0.008 C 
HETATM   11  C14 UNL     1       6.474   3.593  -5.899  1.00  0.00     0.003 C 
HETATM   12  C15 UNL     1       5.550   2.540  -5.267  1.00  0.00     0.032 C 
HETATM   13  C16 UNL     1       4.216   3.119  -5.586  1.00  0.00     0.127 C 
HETATM   14  O2  UNL     1       3.185   2.203  -5.630  1.00  0.00    -0.379 OA
HETATM   15  C17 UNL     1       3.254   1.639  -6.845  1.00  0.00     0.135 C 
HETATM   16  C18 UNL     1       1.730  -0.846  -9.138  1.00  0.00     0.039 C 
HETATM   17  C19 UNL     1       0.340  -0.857  -8.635  1.00  0.00     0.153 C 
ENDROOT
BRANCH   1  18
HETATM   18  C2  UNL     1      -0.696  -1.394  -6.417  1.00  0.00     0.014 C 
HETATM   19  C1  UNL     1      -0.114  -1.630  -5.042  1.00  0.00     0.012 C 
HETATM   20  C3  UNL     1      -2.105  -0.881  -6.219  1.00  0.00     0.012 C 
ENDBRANCH   1  18
BRANCH   1  21
HETATM   21  O1  UNL     1      -0.589   0.777  -7.250  1.00  0.00    -0.387 OA
ATOM     22  H1  UNL     1      -0.130   1.340  -7.862  1.00  0.00     0.210 HD
ENDBRANCH   1  21
BRANCH  17  23
HETATM   23  O3  UNL     1      -0.162  -2.176  -8.750  1.00  0.00    -0.393 OA
ATOM     24  H3  UNL     1       0.465  -2.672  -9.263  1.00  0.00     0.210 HD
ENDBRANCH  17  23
TORSDOF 3
ENDMDL
MODEL 4
REMARK VINA RESULT: -6.399376369      4.536      6.879
REMARK  3 active torsions:
REMARK  status: ('A' for Active; 'I' for Inactive)
REMARK    1  A    between atoms: C2_2  and  C4_4 
REMARK    2  A    between atoms: C4_4  and  O1_5 
REMARK    3  A    between atoms: C19_22  and  O3_23 
ROOT
HETATM    1  C4  UNL     1      -0.523  -1.575 -11.881  1.00  0.00     0.087 C 
HETATM    2  C5  UNL     1       0.640  -0.850 -11.230  1.00  0.00     0.048 C 
HETATM    3  C6  UNL     1       0.217  -0.615  -9.813  1.00  0.00     0.022 C 
HETATM    4  C7  UNL     1      -0.821   0.518  -9.852  1.00  0.00    -0.005 C 
HETATM    5  C8  UNL     1      -1.472   0.527  -8.483  1.00  0.00     0.006 C 
HETATM    6  C9  UNL     1      -0.479   0.649  -7.371  1.00  0.00     0.012 C 
HETATM    7  C10 UNL     1       0.618  -0.327  -7.472  1.00  0.00    -0.011 C 
HETATM    8  C11 UNL     1       0.023  -1.730  -7.312  1.00  0.00     0.018 C 
HETATM    9  C12 UNL     1       1.778  -0.212  -6.612  1.00  0.00     0.025 C 
HETATM   10  C13 UNL     1       2.032   1.046  -5.900  1.00  0.00     0.008 C 
HETATM   11  C14 UNL     1       3.547   1.229  -6.079  1.00  0.00     0.003 C 
HETATM   12  C15 UNL     1       3.651   0.853  -7.566  1.00  0.00     0.032 C 
HETATM   13  C16 UNL     1       2.950  -0.460  -7.567  1.00  0.00     0.127 C 
HETATM   14  O2  UNL     1       2.411  -0.825  -8.784  1.00  0.00    -0.379 OA
HETATM   15  C17 UNL     1       1.240  -0.176  -8.870  1.00  0.00     0.135 C 
HETATM   16  C18 UNL     1      -1.763   0.419 -10.964  1.00  0.00     0.039 C 
HETATM   17  C19 UNL     1      -1.807  -0.842 -11.734  1.00  0.00     0.153 C 
ENDROOT
BRANCH   1  18
HETATM   18  C2  UNL     1      -0.211  -1.969 -13.305  1.00  0.00     0.014 C 
HETATM   19  C1  UNL     1       1.095  -1.377 -13.782  1.00  0.00     0.012 C 
HETATM   20  C3  UNL     1      -0.099  -3.470 -13.457  1.00  0.00     0.012 C 
ENDBRANCH   1  18
BRANCH   1  21
HETATM   21  O1  UNL     1      -0.648  -2.789 -11.170  1.00  0.00    -0.387 OA
ATOM     22  H1  UNL     1      -0.627  -2.550 -10.251  1.00  0.00     0.210 HD
ENDBRANCH   1  21
BRANCH  17  23
HETATM   23  O3  UNL     1      -2.273  -0.549 -13.038  1.00  0.00    -0.393 OA
ATOM     24  H3  UNL     1      -2.604   0.341 -13.025  1.00  0.00     0.210 HD
ENDBRANCH  17  23
TORSDOF 3
ENDMDL
MODEL 5
REMARK VINA RESULT: -6.357603459      3.492      7.219
REMARK  3 active torsions:
REMARK  status: ('A' for Active; 'I' for Inactive)
REMARK    1  A    between atoms: C2_2  and  C4_4 
REMARK    2  A    between atoms: C4_4  and  O1_5 
REMARK    3  A    between atoms: C19_22  and  O3_23 
ROOT
HETATM    1  C4  UNL     1      -0.962  -1.307  -7.214  1.00  0.00     0.087 C 
HETATM    2  C5  UNL     1       0.415  -0.745  -7.515  1.00  0.00     0.048 C 
HETATM    3  C6  UNL     1       0.320  -0.186  -8.900  1.00  0.00     0.022 C 
HETATM    4  C7  UNL     1       0.304  -1.390  -9.855  1.00  0.00    -0.005 C 
HETATM    5  C8  UNL     1      -0.113  -0.841 -11.205  1.00  0.00     0.006 C 
HETATM    6  C9  UNL     1       0.755   0.288 -11.663  1.00  0.00     0.012 C 
HETATM    7  C10 UNL     1       0.912   1.339 -10.645  1.00  0.00    -0.011 C 
HETATM    8  C11 UNL     1      -0.459   1.976 -10.402  1.00  0.00     0.018 C 
HETATM    9  C12 UNL     1       1.889   2.394 -10.831  1.00  0.00     0.025 C 
HETATM   10  C13 UNL     1       2.950   2.232 -11.833  1.00  0.00     0.008 C 
HETATM   11  C14 UNL     1       4.189   2.757 -11.091  1.00  0.00     0.003 C 
HETATM   12  C15 UNL     1       3.950   2.078  -9.733  1.00  0.00     0.032 C 
HETATM   13  C16 UNL     1       2.551   2.507  -9.455  1.00  0.00     0.127 C 
HETATM   14  O2  UNL     1       1.853   1.678  -8.600  1.00  0.00    -0.379 OA
HETATM   15  C17 UNL     1       1.414   0.663  -9.360  1.00  0.00     0.135 C 
HETATM   16  C18 UNL     1      -0.510  -2.508  -9.384  1.00  0.00     0.039 C 
HETATM   17  C19 UNL     1      -1.419  -2.278  -8.240  1.00  0.00     0.153 C 
ENDROOT
BRANCH   1  18
HETATM   18  C2  UNL     1      -1.056  -1.832  -5.801  1.00  0.00     0.014 C 
HETATM   19  C1  UNL     1       0.182  -1.512  -4.996  1.00  0.00     0.012 C 
HETATM   20  C3  UNL     1      -2.233  -1.235  -5.060  1.00  0.00     0.012 C 
ENDBRANCH   1  18
BRANCH   1  21
HETATM   21  O1  UNL     1      -1.835  -0.198  -7.265  1.00  0.00    -0.387 OA
ATOM     22  H1  UNL     1      -2.108  -0.130  -8.173  1.00  0.00     0.210 HD
ENDBRANCH   1  21
BRANCH  17  23
HETATM   23  O3  UNL     1      -1.626  -3.515  -7.584  1.00  0.00    -0.393 OA
ATOM     24  H3  UNL     1      -1.029  -4.143  -7.973  1.00  0.00     0.210 HD
ENDBRANCH  17  23
TORSDOF 3
ENDMDL
