MODEL 1
REMARK VINA RESULT: -7.282019795      0.000      0.000
REMARK  3 active torsions:
REMARK  status: ('A' for Active; 'I' for Inactive)
REMARK    1  A    between atoms: C3_3  and  O1_4 
REMARK    2  A    between atoms: C4_6  and  O2_7 
REMARK    3  A    between atoms: C13_18  and  C14_19 
ROOT
HETATM    1  C1  UNL     1      -1.427  -0.588  -8.022  1.00  0.00     0.019 C 
HETATM    2  C2  UNL     1      -0.008  -0.157  -8.336  1.00  0.00    -0.006 C 
HETATM    3  C3  UNL     1       0.055   1.225  -8.859  1.00  0.00     0.155 C 
HETATM    4  C4  UNL     1      -0.510   1.345 -10.262  1.00  0.00     0.148 C 
HETATM    5  C5  UNL     1       0.541   1.026 -11.262  1.00  0.00     0.041 C 
HETATM    6  C6  UNL     1       0.304  -0.395 -11.676  1.00  0.00     0.019 C 
HETATM    7  C7  UNL     1       1.506  -0.873 -12.444  1.00  0.00     0.033 C 
HETATM    8  C8  UNL     1       1.641  -2.286 -11.979  1.00  0.00     0.168 C 
HETATM    9  O3  UNL     1       0.688  -2.597 -11.067  1.00  0.00    -0.385 OA
HETATM   10  C9  UNL     1       0.142  -1.369 -10.601  1.00  0.00     0.130 C 
HETATM   11  C10 UNL     1       0.624  -1.175  -9.267  1.00  0.00     0.026 C 
HETATM   12  C11 UNL     1       2.090  -0.963  -9.055  1.00  0.00     0.008 C 
HETATM   13  C12 UNL     1       2.225  -0.234  -7.703  1.00  0.00     0.006 C 
HETATM   14  C13 UNL     1       0.849  -0.465  -7.151  1.00  0.00     0.001 C 
ENDROOT
BRANCH  14  15
HETATM   15  C14 UNL     1       0.545  -0.081  -5.798  1.00  0.00    -0.010 C 
HETATM   16  C15 UNL     1       0.187  -1.371  -5.017  1.00  0.00     0.005 C 
HETATM   17  C16 UNL     1       1.375  -1.953  -4.314  1.00  0.00     0.000 C 
HETATM   18  C17 UNL     1       1.591  -1.115  -3.047  1.00  0.00     0.000 C 
HETATM   19  C18 UNL     1       1.216   0.288  -3.446  1.00  0.00     0.000 C 
HETATM   20  C19 UNL     1       1.581   0.567  -4.930  1.00  0.00     0.005 C 
ENDBRANCH  14  15
BRANCH   3  21
HETATM   21  O1  UNL     1      -0.840   2.057  -8.153  1.00  0.00    -0.392 OA
ATOM     22  H1  UNL     1      -0.989   2.863  -8.634  1.00  0.00     0.210 HD
ENDBRANCH   3  21
BRANCH   4  23
HETATM   23  O2  UNL     1      -0.832   2.712 -10.442  1.00  0.00    -0.393 OA
ATOM     24  H2  UNL     1      -1.449   2.745 -11.163  1.00  0.00     0.210 HD
ENDBRANCH   4  23
TORSDOF 3
ENDMDL
MODEL 2
REMARK VINA RESULT: -7.139824324      2.127      5.997
REMARK  3 active torsions:
REMARK  status: ('A' for Active; 'I' for Inactive)
REMARK    1  A    between atoms: C3_3  and  O1_4 
REMARK    2  A    between atoms: C4_6  and  O2_7 
REMARK    3  A    between atoms: C13_18  and  C14_19 
ROOT
HETATM    1  C1  UNL     1       2.674  -0.652  -7.866  1.00  0.00     0.019 C 
HETATM    2  C2  UNL     1       1.428  -0.107  -7.198  1.00  0.00    -0.006 C 
HETATM    3  C3  UNL     1       1.600   1.291  -6.747  1.00  0.00     0.155 C 
HETATM    4  C4  UNL     1       2.537   1.412  -5.560  1.00  0.00     0.148 C 
HETATM    5  C5  UNL     1       1.786   1.203  -4.296  1.00  0.00     0.041 C 
HETATM    6  C6  UNL     1       2.037  -0.218  -3.892  1.00  0.00     0.019 C 
HETATM    7  C7  UNL     1       1.067  -0.580  -2.801  1.00  0.00     0.033 C 
HETATM    8  C8  UNL     1       0.719  -1.993  -3.140  1.00  0.00     0.168 C 
HETATM    9  O3  UNL     1       1.361  -2.402  -4.261  1.00  0.00    -0.385 OA
HETATM   10  C9  UNL     1       1.834  -1.234  -4.920  1.00  0.00     0.130 C 
HETATM   11  C10 UNL     1       1.015  -1.045  -6.079  1.00  0.00     0.026 C 
HETATM   12  C11 UNL     1      -0.436  -0.731  -5.892  1.00  0.00     0.008 C 
HETATM   13  C12 UNL     1      -0.894  -0.035  -7.190  1.00  0.00     0.006 C 
HETATM   14  C13 UNL     1       0.259  -0.386  -8.086  1.00  0.00     0.001 C 
ENDROOT
BRANCH  14  15
HETATM   15  C14 UNL     1       0.201  -0.068  -9.487  1.00  0.00    -0.010 C 
HETATM   16  C15 UNL     1       0.069  -1.403 -10.263  1.00  0.00     0.005 C 
HETATM   17  C16 UNL     1      -1.360  -1.754 -10.545  1.00  0.00     0.000 C 
HETATM   18  C17 UNL     1      -1.798  -0.892 -11.736  1.00  0.00     0.000 C 
HETATM   19  C18 UNL     1      -1.077   0.416 -11.549  1.00  0.00     0.000 C 
HETATM   20  C19 UNL     1      -0.919   0.761 -10.044  1.00  0.00     0.005 C 
ENDBRANCH  14  15
BRANCH   3  21
HETATM   21  O1  UNL     1       2.316   2.032  -7.712  1.00  0.00    -0.392 OA
ATOM     22  H1  UNL     1       2.230   2.963  -7.543  1.00  0.00     0.210 HD
ENDBRANCH   3  21
BRANCH   4  23
HETATM   23  O2  UNL     1       2.983   2.756  -5.545  1.00  0.00    -0.393 OA
ATOM     24  H2  UNL     1       3.902   2.726  -5.309  1.00  0.00     0.210 HD
ENDBRANCH   4  23
TORSDOF 3
ENDMDL
MODEL 3
REMARK VINA RESULT: -6.841820422      1.989      6.333
REMARK  3 active torsions:
REMARK  status: ('A' for Active; 'I' for Inactive)
REMARK    1  A    between atoms: C3_3  and  O1_4 
REMARK    2  A    between atoms: C4_6  and  O2_7 
REMARK    3  A    between atoms: C13_18  and  C14_19 
ROOT
HETATM    1  C1  UNL     1      -1.523  -0.337 -10.498  1.00  0.00     0.019 C 
HETATM    2  C2  UNL     1      -0.275  -1.084 -10.072  1.00  0.00    -0.006 C 
HETATM    3  C3  UNL     1      -0.581  -2.220  -9.175  1.00  0.00     0.155 C 
HETATM    4  C4  UNL     1      -1.032  -1.773  -7.797  1.00  0.00     0.148 C 
HETATM    5  C5  UNL     1       0.149  -1.536  -6.928  1.00  0.00     0.041 C 
HETATM    6  C6  UNL     1       0.383  -0.056  -6.938  1.00  0.00     0.019 C 
HETATM    7  C7  UNL     1       1.735   0.215  -6.337  1.00  0.00     0.033 C 
HETATM    8  C8  UNL     1       2.244   1.334  -7.185  1.00  0.00     0.168 C 
HETATM    9  O3  UNL     1       1.351   1.665  -8.149  1.00  0.00    -0.385 OA
HETATM   10  C9  UNL     1       0.426   0.590  -8.246  1.00  0.00     0.130 C 
HETATM   11  C10 UNL     1       0.710  -0.100  -9.468  1.00  0.00     0.026 C 
HETATM   12  C11 UNL     1       2.021  -0.806  -9.610  1.00  0.00     0.008 C 
HETATM   13  C12 UNL     1       1.816  -1.879 -10.697  1.00  0.00     0.006 C 
HETATM   14  C13 UNL     1       0.527  -1.392 -11.294  1.00  0.00     0.001 C 
ENDROOT
BRANCH  14  15
HETATM   15  C14 UNL     1       0.006  -2.015 -12.481  1.00  0.00    -0.010 C 
HETATM   16  C15 UNL     1       0.653  -1.309 -13.700  1.00  0.00     0.005 C 
HETATM   17  C16 UNL     1       1.883  -2.018 -14.177  1.00  0.00     0.000 C 
HETATM   18  C17 UNL     1       1.407  -3.227 -14.991  1.00  0.00     0.000 C 
HETATM   19  C18 UNL     1       0.156  -3.692 -14.293  1.00  0.00     0.000 C 
HETATM   20  C19 UNL     1       0.252  -3.468 -12.760  1.00  0.00     0.005 C 
ENDBRANCH  14  15
BRANCH   3  21
HETATM   21  O1  UNL     1      -1.741  -2.892  -9.616  1.00  0.00    -0.392 OA
ATOM     22  H1  UNL     1      -2.042  -3.501  -8.951  1.00  0.00     0.210 HD
ENDBRANCH   3  21
BRANCH   4  23
HETATM   23  O2  UNL     1      -1.730  -2.870  -7.236  1.00  0.00    -0.393 OA
ATOM     24  H2  UNL     1      -1.901  -2.638  -6.331  1.00  0.00     0.210 HD
ENDBRANCH   4  23
TORSDOF 3
ENDMDL
MODEL 4
REMARK VINA RESULT: -6.785264873      1.688      2.152
REMARK  3 active torsions:
REMARK  status: ('A' for Active; 'I' for Inactive)
REMARK    1  A    between atoms: C3_3  and  O1_4 
REMARK    2  A    between atoms: C4_6  and  O2_7 
REMARK    3  A    between atoms: C13_18  and  C14_19 
ROOT
HETATM    1  C1  UNL     1      -0.022  -1.878  -8.336  1.00  0.00     0.019 C 
HETATM    2  C2  UNL     1       0.420  -0.497  -7.895  1.00  0.00    -0.006 C 
HETATM    3  C3  UNL     1      -0.677   0.492  -7.966  1.00  0.00     0.155 C 
HETATM    4  C4  UNL     1      -1.055   0.845  -9.393  1.00  0.00     0.148 C 
HETATM    5  C5  UNL     1      -0.178   1.933  -9.897  1.00  0.00     0.041 C 
HETATM    6  C6  UNL     1       0.880   1.265 -10.722  1.00  0.00     0.019 C 
HETATM    7  C7  UNL     1       1.967   2.267 -11.002  1.00  0.00     0.033 C 
HETATM    8  C8  UNL     1       3.202   1.432 -10.906  1.00  0.00     0.168 C 
HETATM    9  O3  UNL     1       2.904   0.146 -10.599  1.00  0.00    -0.385 OA
HETATM   10  C9  UNL     1       1.569   0.134 -10.110  1.00  0.00     0.130 C 
HETATM   11  C10 UNL     1       1.641  -0.088  -8.698  1.00  0.00     0.026 C 
HETATM   12  C11 UNL     1       2.278   0.957  -7.836  1.00  0.00     0.008 C 
HETATM   13  C12 UNL     1       1.713   0.744  -6.417  1.00  0.00     0.006 C 
HETATM   14  C13 UNL     1       1.122  -0.626  -6.582  1.00  0.00     0.001 C 
ENDROOT
BRANCH  14  15
HETATM   15  C14 UNL     1       0.598  -1.324  -5.438  1.00  0.00    -0.010 C 
HETATM   16  C15 UNL     1       1.803  -1.754  -4.563  1.00  0.00     0.005 C 
HETATM   17  C16 UNL     1       2.109  -0.753  -3.492  1.00  0.00     0.000 C 
HETATM   18  C17 UNL     1       1.080  -0.973  -2.376  1.00  0.00     0.000 C 
HETATM   19  C18 UNL     1      -0.186  -1.359  -3.093  1.00  0.00     0.000 C 
HETATM   20  C19 UNL     1      -0.303  -0.631  -4.460  1.00  0.00     0.005 C 
ENDBRANCH  14  15
BRANCH   3  21
HETATM   21  O1  UNL     1      -1.885  -0.084  -7.519  1.00  0.00    -0.392 OA
ATOM     22  H1  UNL     1      -2.521   0.595  -7.323  1.00  0.00     0.210 HD
ENDBRANCH   3  21
BRANCH   4  23
HETATM   23  O2  UNL     1      -2.364   1.382  -9.333  1.00  0.00    -0.393 OA
ATOM     24  H2  UNL     1      -2.465   1.733  -8.456  1.00  0.00     0.210 HD
ENDBRANCH   4  23
TORSDOF 3
ENDMDL
MODEL 5
REMARK VINA RESULT: -6.723272946      1.442      3.526
REMARK  3 active torsions:
REMARK  status: ('A' for Active; 'I' for Inactive)
REMARK    1  A    between atoms: C3_3  and  O1_4 
REMARK    2  A    between atoms: C4_6  and  O2_7 
REMARK    3  A    between atoms: C13_18  and  C14_19 
ROOT
HETATM    1  C1  UNL     1       3.228   0.840  -7.947  1.00  0.00     0.019 C 
HETATM    2  C2  UNL     1       1.776   0.488  -8.207  1.00  0.00    -0.006 C 
HETATM    3  C3  UNL     1       1.633  -0.596  -9.203  1.00  0.00     0.155 C 
HETATM    4  C4  UNL     1       1.990  -0.149 -10.609  1.00  0.00     0.148 C 
HETATM    5  C5  UNL     1       0.808   0.470 -11.261  1.00  0.00     0.041 C 
HETATM    6  C6  UNL     1       0.989   1.952 -11.131  1.00  0.00     0.019 C 
HETATM    7  C7  UNL     1      -0.309   2.622 -11.490  1.00  0.00     0.033 C 
HETATM    8  C8  UNL     1      -0.370   3.747 -10.509  1.00  0.00     0.168 C 
HETATM    9  O3  UNL     1       0.706   3.739  -9.685  1.00  0.00    -0.385 OA
HETATM   10  C9  UNL     1       1.308   2.456  -9.799  1.00  0.00     0.130 C 
HETATM   11  C10 UNL     1       1.022   1.749  -8.588  1.00  0.00     0.026 C 
HETATM   12  C11 UNL     1      -0.399   1.398  -8.277  1.00  0.00     0.008 C 
HETATM   13  C12 UNL     1      -0.343   0.207  -7.299  1.00  0.00     0.006 C 
HETATM   14  C13 UNL     1       1.100   0.282  -6.891  1.00  0.00     0.001 C 
ENDROOT
BRANCH  14  15
HETATM   15  C14 UNL     1       1.593  -0.567  -5.840  1.00  0.00    -0.010 C 
HETATM   16  C15 UNL     1       2.049   0.348  -4.676  1.00  0.00     0.005 C 
HETATM   17  C16 UNL     1       0.969   0.548  -3.658  1.00  0.00     0.000 C 
HETATM   18  C17 UNL     1       0.938  -0.719  -2.794  1.00  0.00     0.000 C 
HETATM   19  C18 UNL     1       1.261  -1.840  -3.746  1.00  0.00     0.000 C 
HETATM   20  C19 UNL     1       0.693  -1.557  -5.163  1.00  0.00     0.005 C 
ENDBRANCH  14  15
BRANCH   3  21
HETATM   21  O1  UNL     1       2.617  -1.586  -8.994  1.00  0.00    -0.392 OA
ATOM     22  H1  UNL     1       2.813  -2.032  -9.810  1.00  0.00     0.210 HD
ENDBRANCH   3  21
BRANCH   4  23
HETATM   23  O2  UNL     1       2.278  -1.329 -11.337  1.00  0.00    -0.393 OA
ATOM     24  H2  UNL     1       2.917  -1.085 -11.994  1.00  0.00     0.210 HD
ENDBRANCH   4  23
TORSDOF 3
ENDMDL
