MODEL 1
REMARK VINA RESULT: -8.258204148      0.000      0.000
REMARK  5 active torsions:
REMARK  status: ('A' for Active; 'I' for Inactive)
REMARK       I    between atoms: N1_7  and  C7_8 
REMARK    1  A    between atoms: C7_8  and  C8_10 
REMARK       I    between atoms: N2_14  and  C12_15 
REMARK       I    between atoms: C12_15  and  N3_17 
REMARK    2  A    between atoms: N3_17  and  C13_19 
REMARK    3  A    between atoms: C13_19  and  C14_23 
REMARK    4  A    between atoms: C14_23  and  C15_24 
REMARK    5  A    between atoms: C17_26  and  C18_27 
REMARK       I    between atoms: C18_27  and  N5_29 
ROOT
HETATM    1  C1  UNL     1      18.149  -3.650   1.038  1.00  0.00     0.012 C 
HETATM    2  C2  UNL     1      18.420  -4.196   2.075  1.00  0.00    -0.112 C 
HETATM    3  C3  UNL     1      18.771  -4.841   3.328  1.00  0.00     0.071 C 
HETATM    4  C4  UNL     1      19.088  -3.810   4.390  1.00  0.00     0.024 C 
HETATM    5  C5  UNL     1      18.216  -4.596   5.338  1.00  0.00     0.013 C 
HETATM    6  C6  UNL     1      17.099  -3.767   5.918  1.00  0.00     0.132 C 
HETATM    7  N1  UNL     1      16.058  -3.668   4.948  1.00  0.00    -0.333 N 
HETATM    8  C7  UNL     1      14.928  -2.791   4.906  1.00  0.00     0.267 C 
HETATM    9  O1  UNL     1      14.177  -2.920   3.885  1.00  0.00    -0.266 OA
HETATM   10  C17 UNL     1      16.306  -4.669   3.914  1.00  0.00     0.185 C 
HETATM   11  C20 UNL     1      17.609  -5.290   4.181  1.00  0.00     0.039 C 
ENDROOT
BRANCH  10  12
HETATM   12  C18 UNL     1      15.264  -5.723   3.929  1.00  0.00     0.247 C 
HETATM   13  O3  UNL     1      14.367  -5.666   4.804  1.00  0.00    -0.271 OA
HETATM   14  N5  UNL     1      15.218  -6.799   3.010  1.00  0.00    -0.302 N 
HETATM   15  C19 UNL     1      14.606  -6.726   1.878  1.00  0.00     0.203 C 
ATOM     16  H5  UNL     1      15.689  -7.670   3.255  1.00  0.00     0.171 HD
HETATM   17  N6  UNL     1      13.955  -5.511   1.542  1.00  0.00    -0.066 NA
HETATM   18  N7  UNL     1      14.558  -7.796   0.961  1.00  0.00    -0.066 NA
ENDBRANCH  10  12
BRANCH   8  19
HETATM   19  C8  UNL     1      14.553  -1.813   5.848  1.00  0.00     0.084 C 
HETATM   20  C9  UNL     1      15.442  -0.651   6.192  1.00  0.00     0.065 C 
HETATM   21  C10 UNL     1      14.395   0.237   6.888  1.00  0.00     0.026 C 
HETATM   22  C11 UNL     1      13.587  -0.758   7.675  1.00  0.00     0.134 C 
HETATM   23  N2  UNL     1      14.032  -2.096   7.141  1.00  0.00    -0.298 N 
HETATM   24  C12 UNL     1      13.901  -3.210   8.003  1.00  0.00     0.328 C 
HETATM   25  O2  UNL     1      14.405  -4.301   7.653  1.00  0.00    -0.246 OA
HETATM   26  N3  UNL     1      13.204  -3.099   9.259  1.00  0.00    -0.298 N 
ATOM     27  H3  UNL     1      12.815  -2.179   9.467  1.00  0.00     0.172 HD
BRANCH  26  28
HETATM   28  C13 UNL     1      12.991  -4.069  10.218  1.00  0.00     0.078 C 
HETATM   29  N4  UNL     1      13.308  -5.314   9.858  1.00  0.00    -0.389 N 
ATOM     30  H42 UNL     1      13.704  -5.479   8.932  1.00  0.00     0.157 HD
ATOM     31  H41 UNL     1      13.150  -6.031  10.567  1.00  0.00     0.157 HD
BRANCH  28  32
HETATM   32  C14 UNL     1      12.424  -3.833  11.544  1.00  0.00     0.076 C 
BRANCH  32  33
HETATM   33  C15 UNL     1      10.997  -3.391  11.566  1.00  0.00     0.003 C 
HETATM   34  C16 UNL     1      10.304  -3.755  12.867  1.00  0.00     0.005 C 
ENDBRANCH  32  33
ENDBRANCH  28  32
ENDBRANCH  26  28
ENDBRANCH   8  19
TORSDOF 5
ENDMDL
MODEL 2
REMARK VINA RESULT: -8.203986901      2.780      5.011
REMARK  5 active torsions:
REMARK  status: ('A' for Active; 'I' for Inactive)
REMARK       I    between atoms: N1_7  and  C7_8 
REMARK    1  A    between atoms: C7_8  and  C8_10 
REMARK       I    between atoms: N2_14  and  C12_15 
REMARK       I    between atoms: C12_15  and  N3_17 
REMARK    2  A    between atoms: N3_17  and  C13_19 
REMARK    3  A    between atoms: C13_19  and  C14_23 
REMARK    4  A    between atoms: C14_23  and  C15_24 
REMARK    5  A    between atoms: C17_26  and  C18_27 
REMARK       I    between atoms: C18_27  and  N5_29 
ROOT
HETATM    1  C1  UNL     1      19.611  -6.384   3.517  1.00  0.00     0.012 C 
HETATM    2  C2  UNL     1      18.505  -6.437   3.045  1.00  0.00    -0.112 C 
HETATM    3  C3  UNL     1      17.168  -6.527   2.484  1.00  0.00     0.071 C 
HETATM    4  C4  UNL     1      16.174  -6.956   3.541  1.00  0.00     0.024 C 
HETATM    5  C5  UNL     1      15.264  -5.855   3.055  1.00  0.00     0.013 C 
HETATM    6  C6  UNL     1      14.888  -4.891   4.152  1.00  0.00     0.132 C 
HETATM    7  N1  UNL     1      15.974  -3.988   4.352  1.00  0.00    -0.333 N 
HETATM    8  C7  UNL     1      16.221  -3.078   5.429  1.00  0.00     0.267 C 
HETATM    9  O1  UNL     1      17.304  -2.414   5.342  1.00  0.00    -0.266 OA
HETATM   10  C17 UNL     1      16.881  -4.111   3.213  1.00  0.00     0.185 C 
HETATM   11  C20 UNL     1      16.415  -5.223   2.375  1.00  0.00     0.039 C 
ENDROOT
BRANCH  10  12
HETATM   12  C18 UNL     1      16.890  -2.872   2.399  1.00  0.00     0.247 C 
HETATM   13  O3  UNL     1      17.918  -2.599   1.736  1.00  0.00    -0.271 OA
HETATM   14  N5  UNL     1      15.800  -1.972   2.323  1.00  0.00    -0.302 N 
HETATM   15  C19 UNL     1      14.850  -2.096   1.460  1.00  0.00     0.203 C 
ATOM     16  H5  UNL     1      15.764  -1.193   2.979  1.00  0.00     0.171 HD
HETATM   17  N6  UNL     1      14.903  -3.184   0.551  1.00  0.00    -0.066 NA
HETATM   18  N7  UNL     1      13.763  -1.201   1.382  1.00  0.00    -0.066 NA
ENDBRANCH  10  12
BRANCH   8  19
HETATM   19  C8  UNL     1      15.417  -2.834   6.559  1.00  0.00     0.084 C 
HETATM   20  C9  UNL     1      14.565  -3.905   7.181  1.00  0.00     0.065 C 
HETATM   21  C10 UNL     1      14.287  -3.219   8.530  1.00  0.00     0.026 C 
HETATM   22  C11 UNL     1      14.077  -1.783   8.135  1.00  0.00     0.134 C 
HETATM   23  N2  UNL     1      14.535  -1.727   6.699  1.00  0.00    -0.298 N 
HETATM   24  C12 UNL     1      13.977  -0.716   5.883  1.00  0.00     0.328 C 
HETATM   25  O2  UNL     1      14.213  -0.738   4.654  1.00  0.00    -0.246 OA
HETATM   26  N3  UNL     1      13.153   0.323   6.447  1.00  0.00    -0.298 N 
ATOM     27  H3  UNL     1      13.015   0.277   7.457  1.00  0.00     0.172 HD
BRANCH  26  28
HETATM   28  C13 UNL     1      12.525   1.372   5.806  1.00  0.00     0.078 C 
HETATM   29  N4  UNL     1      11.503   1.035   5.016  1.00  0.00    -0.389 N 
ATOM     30  H42 UNL     1      11.229   0.054   4.948  1.00  0.00     0.157 HD
ATOM     31  H41 UNL     1      11.039   1.810   4.542  1.00  0.00     0.157 HD
BRANCH  28  32
HETATM   32  C14 UNL     1      12.917   2.777   5.904  1.00  0.00     0.076 C 
BRANCH  32  33
HETATM   33  C15 UNL     1      12.761   3.578   4.653  1.00  0.00     0.003 C 
HETATM   34  C16 UNL     1      12.389   5.022   4.939  1.00  0.00     0.005 C 
ENDBRANCH  32  33
ENDBRANCH  28  32
ENDBRANCH  26  28
ENDBRANCH   8  19
TORSDOF 5
ENDMDL
MODEL 3
REMARK VINA RESULT: -8.194371675      3.004      5.129
REMARK  5 active torsions:
REMARK  status: ('A' for Active; 'I' for Inactive)
REMARK       I    between atoms: N1_7  and  C7_8 
REMARK    1  A    between atoms: C7_8  and  C8_10 
REMARK       I    between atoms: N2_14  and  C12_15 
REMARK       I    between atoms: C12_15  and  N3_17 
REMARK    2  A    between atoms: N3_17  and  C13_19 
REMARK    3  A    between atoms: C13_19  and  C14_23 
REMARK    4  A    between atoms: C14_23  and  C15_24 
REMARK    5  A    between atoms: C17_26  and  C18_27 
REMARK       I    between atoms: C18_27  and  N5_29 
ROOT
HETATM    1  C1  UNL     1      15.299  -1.278   0.616  1.00  0.00     0.012 C 
HETATM    2  C2  UNL     1      14.248  -1.586   1.114  1.00  0.00    -0.112 C 
HETATM    3  C3  UNL     1      12.977  -1.978   1.698  1.00  0.00     0.071 C 
HETATM    4  C4  UNL     1      13.023  -3.419   2.158  1.00  0.00     0.024 C 
HETATM    5  C5  UNL     1      12.385  -2.971   3.450  1.00  0.00     0.013 C 
HETATM    6  C6  UNL     1      13.210  -3.335   4.658  1.00  0.00     0.132 C 
HETATM    7  N1  UNL     1      14.270  -2.388   4.784  1.00  0.00    -0.333 N 
HETATM    8  C7  UNL     1      15.454  -2.443   5.585  1.00  0.00     0.267 C 
HETATM    9  O1  UNL     1      16.239  -1.447   5.464  1.00  0.00    -0.266 OA
HETATM   10  C17 UNL     1      13.965  -1.249   3.921  1.00  0.00     0.185 C 
HETATM   11  C20 UNL     1      12.767  -1.577   3.138  1.00  0.00     0.039 C 
ENDROOT
BRANCH  10  12
HETATM   12  C18 UNL     1      13.693  -0.031   4.721  1.00  0.00     0.247 C 
HETATM   13  O3  UNL     1      14.645   0.745   4.972  1.00  0.00    -0.271 OA
HETATM   14  N5  UNL     1      12.414   0.314   5.221  1.00  0.00    -0.302 N 
HETATM   15  C19 UNL     1      11.564   1.011   4.546  1.00  0.00     0.203 C 
ATOM     16  H5  UNL     1      12.154  -0.002   6.154  1.00  0.00     0.171 HD
HETATM   17  N6  UNL     1      11.932   1.447   3.248  1.00  0.00    -0.066 NA
HETATM   18  N7  UNL     1      10.290   1.357   5.042  1.00  0.00    -0.066 NA
ENDBRANCH  10  12
BRANCH   8  19
HETATM   19  C8  UNL     1      15.849  -3.455   6.481  1.00  0.00     0.084 C 
HETATM   20  C9  UNL     1      16.029  -4.883   6.047  1.00  0.00     0.065 C 
HETATM   21  C10 UNL     1      16.830  -5.390   7.258  1.00  0.00     0.026 C 
HETATM   22  C11 UNL     1      16.155  -4.703   8.413  1.00  0.00     0.134 C 
HETATM   23  N2  UNL     1      15.267  -3.675   7.760  1.00  0.00    -0.298 N 
HETATM   24  C12 UNL     1      14.125  -3.257   8.482  1.00  0.00     0.328 C 
HETATM   25  O2  UNL     1      13.285  -2.528   7.907  1.00  0.00    -0.246 OA
HETATM   26  N3  UNL     1      13.924  -3.657   9.851  1.00  0.00    -0.298 N 
ATOM     27  H3  UNL     1      14.657  -4.244  10.251  1.00  0.00     0.172 HD
BRANCH  26  28
HETATM   28  C13 UNL     1      12.875  -3.355  10.696  1.00  0.00     0.078 C 
HETATM   29  N4  UNL     1      12.243  -4.404  11.226  1.00  0.00    -0.389 N 
ATOM     30  H42 UNL     1      12.572  -5.345  11.010  1.00  0.00     0.157 HD
ATOM     31  H41 UNL     1      11.467  -4.180  11.851  1.00  0.00     0.157 HD
BRANCH  28  32
HETATM   32  C14 UNL     1      12.404  -2.007  11.007  1.00  0.00     0.076 C 
BRANCH  32  33
HETATM   33  C15 UNL     1      13.470  -1.003  11.304  1.00  0.00     0.003 C 
HETATM   34  C16 UNL     1      13.580   0.054  10.219  1.00  0.00     0.005 C 
ENDBRANCH  32  33
ENDBRANCH  28  32
ENDBRANCH  26  28
ENDBRANCH   8  19
TORSDOF 5
ENDMDL
MODEL 4
REMARK VINA RESULT: -8.185566780      2.913      5.274
REMARK  5 active torsions:
REMARK  status: ('A' for Active; 'I' for Inactive)
REMARK       I    between atoms: N1_7  and  C7_8 
REMARK    1  A    between atoms: C7_8  and  C8_10 
REMARK       I    between atoms: N2_14  and  C12_15 
REMARK       I    between atoms: C12_15  and  N3_17 
REMARK    2  A    between atoms: N3_17  and  C13_19 
REMARK    3  A    between atoms: C13_19  and  C14_23 
REMARK    4  A    between atoms: C14_23  and  C15_24 
REMARK    5  A    between atoms: C17_26  and  C18_27 
REMARK       I    between atoms: C18_27  and  N5_29 
ROOT
HETATM    1  C1  UNL     1      19.330  -6.726   3.116  1.00  0.00     0.012 C 
HETATM    2  C2  UNL     1      18.226  -6.588   2.658  1.00  0.00    -0.112 C 
HETATM    3  C3  UNL     1      16.888  -6.447   2.111  1.00  0.00     0.071 C 
HETATM    4  C4  UNL     1      15.847  -6.826   3.142  1.00  0.00     0.024 C 
HETATM    5  C5  UNL     1      15.095  -5.574   2.765  1.00  0.00     0.013 C 
HETATM    6  C6  UNL     1      14.858  -4.665   3.945  1.00  0.00     0.132 C 
HETATM    7  N1  UNL     1      16.058  -3.939   4.204  1.00  0.00    -0.333 N 
HETATM    8  C7  UNL     1      16.430  -3.167   5.350  1.00  0.00     0.267 C 
HETATM    9  O1  UNL     1      17.593  -2.651   5.304  1.00  0.00    -0.266 OA
HETATM   10  C17 UNL     1      16.936  -4.087   3.046  1.00  0.00     0.185 C 
HETATM   11  C20 UNL     1      16.320  -5.049   2.124  1.00  0.00     0.039 C 
ENDROOT
BRANCH  10  12
HETATM   12  C18 UNL     1      17.111  -2.795   2.339  1.00  0.00     0.247 C 
HETATM   13  O3  UNL     1      16.343  -1.847   2.627  1.00  0.00    -0.271 OA
HETATM   14  N5  UNL     1      18.100  -2.564   1.353  1.00  0.00    -0.302 N 
HETATM   15  C19 UNL     1      19.288  -2.150   1.637  1.00  0.00     0.203 C 
ATOM     16  H5  UNL     1      17.863  -2.733   0.376  1.00  0.00     0.171 HD
HETATM   17  N6  UNL     1      19.612  -1.919   2.999  1.00  0.00    -0.066 NA
HETATM   18  N7  UNL     1      20.275  -1.919   0.657  1.00  0.00    -0.066 NA
ENDBRANCH  10  12
BRANCH   8  19
HETATM   19  C8  UNL     1      15.670  -2.914   6.509  1.00  0.00     0.084 C 
HETATM   20  C9  UNL     1      14.865  -3.986   7.188  1.00  0.00     0.065 C 
HETATM   21  C10 UNL     1      14.632  -3.277   8.534  1.00  0.00     0.026 C 
HETATM   22  C11 UNL     1      14.378  -1.854   8.119  1.00  0.00     0.134 C 
HETATM   23  N2  UNL     1      14.774  -1.820   6.664  1.00  0.00    -0.298 N 
HETATM   24  C12 UNL     1      14.163  -0.836   5.853  1.00  0.00     0.328 C 
HETATM   25  O2  UNL     1      14.348  -0.880   4.615  1.00  0.00    -0.246 OA
HETATM   26  N3  UNL     1      13.344   0.199   6.430  1.00  0.00    -0.298 N 
ATOM     27  H3  UNL     1      13.250   0.172   7.445  1.00  0.00     0.172 HD
BRANCH  26  28
HETATM   28  C13 UNL     1      12.670   1.223   5.796  1.00  0.00     0.078 C 
HETATM   29  N4  UNL     1      11.693   0.844   4.969  1.00  0.00    -0.389 N 
ATOM     30  H42 UNL     1      11.482  -0.150   4.871  1.00  0.00     0.157 HD
ATOM     31  H41 UNL     1      11.194   1.601   4.500  1.00  0.00     0.157 HD
BRANCH  28  32
HETATM   32  C14 UNL     1      12.972   2.647   5.936  1.00  0.00     0.076 C 
BRANCH  32  33
HETATM   33  C15 UNL     1      12.871   3.454   4.683  1.00  0.00     0.003 C 
HETATM   34  C16 UNL     1      12.447   4.886   4.956  1.00  0.00     0.005 C 
ENDBRANCH  32  33
ENDBRANCH  28  32
ENDBRANCH  26  28
ENDBRANCH   8  19
TORSDOF 5
ENDMDL
MODEL 5
REMARK VINA RESULT: -8.050609901      2.403      3.258
REMARK  5 active torsions:
REMARK  status: ('A' for Active; 'I' for Inactive)
REMARK       I    between atoms: N1_7  and  C7_8 
REMARK    1  A    between atoms: C7_8  and  C8_10 
REMARK       I    between atoms: N2_14  and  C12_15 
REMARK       I    between atoms: C12_15  and  N3_17 
REMARK    2  A    between atoms: N3_17  and  C13_19 
REMARK    3  A    between atoms: C13_19  and  C14_23 
REMARK    4  A    between atoms: C14_23  and  C15_24 
REMARK    5  A    between atoms: C17_26  and  C18_27 
REMARK       I    between atoms: C18_27  and  N5_29 
ROOT
HETATM    1  C1  UNL     1      19.021  -4.554   4.684  1.00  0.00     0.012 C 
HETATM    2  C2  UNL     1      17.968  -5.135   4.634  1.00  0.00    -0.112 C 
HETATM    3  C3  UNL     1      16.700  -5.842   4.599  1.00  0.00     0.071 C 
HETATM    4  C4  UNL     1      15.760  -5.306   5.657  1.00  0.00     0.024 C 
HETATM    5  C5  UNL     1      14.678  -5.279   4.605  1.00  0.00     0.013 C 
HETATM    6  C6  UNL     1      14.075  -3.908   4.432  1.00  0.00     0.132 C 
HETATM    7  N1  UNL     1      14.958  -3.124   3.630  1.00  0.00    -0.333 N 
HETATM    8  C7  UNL     1      14.977  -1.711   3.405  1.00  0.00     0.267 C 
HETATM    9  O1  UNL     1      15.915  -1.293   2.652  1.00  0.00    -0.266 OA
HETATM   10  C17 UNL     1      15.922  -4.026   3.004  1.00  0.00     0.185 C 
HETATM   11  C20 UNL     1      15.716  -5.371   3.556  1.00  0.00     0.039 C 
ENDROOT
BRANCH  10  12
HETATM   12  C18 UNL     1      15.728  -4.079   1.535  1.00  0.00     0.247 C 
HETATM   13  O3  UNL     1      16.636  -4.581   0.830  1.00  0.00    -0.271 OA
HETATM   14  N5  UNL     1      14.573  -3.595   0.875  1.00  0.00    -0.302 N 
HETATM   15  C19 UNL     1      13.529  -4.323   0.670  1.00  0.00     0.203 C 
ATOM     16  H5  UNL     1      14.568  -2.630   0.547  1.00  0.00     0.171 HD
HETATM   17  N6  UNL     1      13.542  -5.664   1.130  1.00  0.00    -0.066 NA
HETATM   18  N7  UNL     1      12.377  -3.844   0.012  1.00  0.00    -0.066 NA
ENDBRANCH  10  12
BRANCH   8  19
HETATM   19  C8  UNL     1      14.092  -0.741   3.912  1.00  0.00     0.084 C 
HETATM   20  C9  UNL     1      14.094   0.680   3.421  1.00  0.00     0.065 C 
HETATM   21  C10 UNL     1      12.728   1.116   3.978  1.00  0.00     0.026 C 
HETATM   22  C11 UNL     1      12.694   0.455   5.328  1.00  0.00     0.134 C 
HETATM   23  N2  UNL     1      13.857  -0.505   5.296  1.00  0.00    -0.298 N 
HETATM   24  C12 UNL     1      14.434  -0.861   6.537  1.00  0.00     0.328 C 
HETATM   25  O2  UNL     1      15.494  -1.526   6.536  1.00  0.00    -0.246 OA
HETATM   26  N3  UNL     1      13.820  -0.471   7.780  1.00  0.00    -0.298 N 
ATOM     27  H3  UNL     1      12.954   0.062   7.696  1.00  0.00     0.172 HD
BRANCH  26  28
HETATM   28  C13 UNL     1      14.245  -0.719   9.070  1.00  0.00     0.078 C 
HETATM   29  N4  UNL     1      14.602  -1.980   9.325  1.00  0.00    -0.389 N 
ATOM     30  H42 UNL     1      14.571  -2.668   8.572  1.00  0.00     0.157 HD
ATOM     31  H41 UNL     1      14.916  -2.163  10.279  1.00  0.00     0.157 HD
BRANCH  28  32
HETATM   32  C14 UNL     1      14.290   0.267  10.148  1.00  0.00     0.076 C 
BRANCH  32  33
HETATM   33  C15 UNL     1      13.467  -0.057  11.353  1.00  0.00     0.003 C 
HETATM   34  C16 UNL     1      12.041  -0.432  10.989  1.00  0.00     0.005 C 
ENDBRANCH  32  33
ENDBRANCH  28  32
ENDBRANCH  26  28
ENDBRANCH   8  19
TORSDOF 5
ENDMDL
