MODEL 1
REMARK VINA RESULT: -8.743277361      0.000      0.000
REMARK  4 active torsions:
REMARK  status: ('A' for Active; 'I' for Inactive)
REMARK    1  A    between atoms: C2_2  and  C3_3 
REMARK       I    between atoms: C3_3  and  N1_5 
REMARK    2  A    between atoms: N1_5  and  C4_7 
REMARK    3  A    between atoms: N2_11  and  N3_13 
REMARK       I    between atoms: C8_15  and  N5_17 
REMARK       I    between atoms: C9_19  and  N7_21 
REMARK       I    between atoms: N7_21  and  C10_22 
REMARK       I    between atoms: C10_22  and  N9_24 
REMARK    4  A    between atoms: C13_27  and  C14_28 
ROOT
HETATM    1  C4  UNL     1      14.331  -1.593   9.018  1.00  0.00     0.085 C 
HETATM    2  C5  UNL     1      14.223  -0.083   8.912  1.00  0.00     0.031 C 
HETATM    3  C6  UNL     1      13.152   0.336   7.959  1.00  0.00     0.056 C 
HETATM    4  C7  UNL     1      13.604  -0.096   6.584  1.00  0.00     0.008 C 
HETATM    5  N2  UNL     1      13.280   0.577   5.565  1.00  0.00    -0.306 N 
ATOM      6  H2  UNL     1      13.609   0.246   4.657  1.00  0.00     0.186 HD
HETATM    7  C13 UNL     1      14.412  -1.315   6.508  1.00  0.00     0.039 C 
HETATM    8  C20 UNL     1      14.289  -2.255   7.672  1.00  0.00     0.036 C 
ENDROOT
BRANCH   5   9
HETATM    9  N3  UNL     1      12.507   1.739   5.587  1.00  0.00    -0.274 N 
HETATM   10  C8  UNL     1      11.357   1.845   5.024  1.00  0.00     0.210 C 
HETATM   11  N4  UNL     1      10.692   3.094   5.134  1.00  0.00    -0.062 NA
HETATM   12  N5  UNL     1      10.725   0.810   4.311  1.00  0.00    -0.292 N 
HETATM   13  C9  UNL     1      11.132   0.496   3.102  1.00  0.00     0.272 C 
ATOM     14  H5  UNL     1       9.948   0.301   4.734  1.00  0.00     0.172 HD
HETATM   15  N6  UNL     1      12.243   1.293   2.617  1.00  0.00    -0.049 NA
HETATM   16  N7  UNL     1      10.622  -0.454   2.323  1.00  0.00    -0.341 NA
HETATM   17  C10 UNL     1      10.289  -1.351   1.635  1.00  0.00     0.267 C 
HETATM   18  N8  UNL     1      11.212  -2.405   1.253  1.00  0.00    -0.049 NA
HETATM   19  N9  UNL     1       8.941  -1.493   1.106  1.00  0.00    -0.353 N 
HETATM   20  C11 UNL     1       8.609  -0.678  -0.027  1.00  0.00     0.152 C 
HETATM   21  C12 UNL     1       8.008  -2.402   1.697  1.00  0.00     0.152 C 
ATOM     22  H3  UNL     1      12.876   2.553   6.078  1.00  0.00     0.189 HD
ENDBRANCH   5   9
BRANCH   7  23
HETATM   23  C14 UNL     1      14.134  -2.080   5.249  1.00  0.00    -0.005 C 
HETATM   24  C15 UNL     1      13.325  -3.345   5.523  1.00  0.00     0.005 C 
HETATM   25  C16 UNL     1      12.815  -3.794   4.148  1.00  0.00     0.000 C 
HETATM   26  C17 UNL     1      13.898  -4.052   3.166  1.00  0.00     0.000 C 
HETATM   27  C18 UNL     1      14.977  -2.998   3.161  1.00  0.00     0.000 C 
HETATM   28  C19 UNL     1      15.397  -2.637   4.589  1.00  0.00     0.005 C 
ENDBRANCH   7  23
BRANCH   1  29
HETATM   29  N1  UNL     1      13.281  -2.058   9.866  1.00  0.00    -0.353 N 
HETATM   30  C3  UNL     1      13.141  -3.395  10.309  1.00  0.00     0.240 C 
HETATM   31  O1  UNL     1      13.956  -4.308   9.980  1.00  0.00    -0.269 OA
ATOM     32  H1  UNL     1      12.584  -1.380  10.175  1.00  0.00     0.163 HD
BRANCH  30  33
HETATM   33  C2  UNL     1      12.047  -3.805  11.171  1.00  0.00     0.064 C 
HETATM   34  C1  UNL     1      10.998  -3.036  11.412  1.00  0.00     0.017 C 
ENDBRANCH  30  33
ENDBRANCH   1  29
TORSDOF 4
ENDMDL
MODEL 2
REMARK VINA RESULT: -8.212747676      2.198      2.532
REMARK  4 active torsions:
REMARK  status: ('A' for Active; 'I' for Inactive)
REMARK    1  A    between atoms: C2_2  and  C3_3 
REMARK       I    between atoms: C3_3  and  N1_5 
REMARK    2  A    between atoms: N1_5  and  C4_7 
REMARK    3  A    between atoms: N2_11  and  N3_13 
REMARK       I    between atoms: C8_15  and  N5_17 
REMARK       I    between atoms: C9_19  and  N7_21 
REMARK       I    between atoms: N7_21  and  C10_22 
REMARK       I    between atoms: C10_22  and  N9_24 
REMARK    4  A    between atoms: C13_27  and  C14_28 
ROOT
HETATM    1  C4  UNL     1      14.241  -1.597   9.218  1.00  0.00     0.085 C 
HETATM    2  C5  UNL     1      14.140  -0.084   9.141  1.00  0.00     0.031 C 
HETATM    3  C6  UNL     1      13.024   0.358   8.252  1.00  0.00     0.056 C 
HETATM    4  C7  UNL     1      13.402  -0.054   6.849  1.00  0.00     0.008 C 
HETATM    5  N2  UNL     1      13.031   0.638   5.859  1.00  0.00    -0.306 N 
ATOM      6  H2  UNL     1      13.309   0.319   4.930  1.00  0.00     0.186 HD
HETATM    7  C13 UNL     1      14.194  -1.278   6.712  1.00  0.00     0.039 C 
HETATM    8  C20 UNL     1      14.124  -2.236   7.865  1.00  0.00     0.036 C 
ENDROOT
BRANCH   5   9
HETATM    9  N3  UNL     1      12.269   1.805   5.939  1.00  0.00    -0.274 N 
HETATM   10  C8  UNL     1      11.796   2.423   4.918  1.00  0.00     0.210 C 
HETATM   11  N4  UNL     1      11.040   3.599   5.162  1.00  0.00    -0.062 NA
HETATM   12  N5  UNL     1      11.982   2.011   3.585  1.00  0.00    -0.292 N 
HETATM   13  C9  UNL     1      13.138   2.202   2.990  1.00  0.00     0.272 C 
ATOM     14  H5  UNL     1      11.218   1.564   3.080  1.00  0.00     0.172 HD
HETATM   15  N6  UNL     1      14.140   2.847   3.818  1.00  0.00    -0.049 NA
HETATM   16  N7  UNL     1      13.444   1.865   1.741  1.00  0.00    -0.341 NA
HETATM   17  C10 UNL     1      13.808   1.490   0.684  1.00  0.00     0.267 C 
HETATM   18  N8  UNL     1      14.902   0.545   0.543  1.00  0.00    -0.049 NA
HETATM   19  N9  UNL     1      13.209   1.927  -0.568  1.00  0.00    -0.353 N 
HETATM   20  C11 UNL     1      13.596   3.224  -1.045  1.00  0.00     0.152 C 
HETATM   21  C12 UNL     1      12.283   1.095  -1.273  1.00  0.00     0.152 C 
ATOM     22  H3  UNL     1      12.077   2.190   6.864  1.00  0.00     0.189 HD
ENDBRANCH   5   9
BRANCH   7  23
HETATM   23  C14 UNL     1      13.845  -2.020   5.457  1.00  0.00    -0.005 C 
HETATM   24  C15 UNL     1      13.466  -3.471   5.745  1.00  0.00     0.005 C 
HETATM   25  C16 UNL     1      12.792  -3.967   4.460  1.00  0.00     0.000 C 
HETATM   26  C17 UNL     1      13.657  -3.867   3.258  1.00  0.00     0.000 C 
HETATM   27  C18 UNL     1      14.404  -2.560   3.152  1.00  0.00     0.000 C 
HETATM   28  C19 UNL     1      15.026  -2.176   4.498  1.00  0.00     0.005 C 
ENDBRANCH   7  23
BRANCH   1  29
HETATM   29  N1  UNL     1      13.232  -2.067  10.112  1.00  0.00    -0.353 N 
HETATM   30  C3  UNL     1      13.068  -3.420  10.495  1.00  0.00     0.240 C 
HETATM   31  O1  UNL     1      13.822  -4.344  10.064  1.00  0.00    -0.269 OA
ATOM     32  H1  UNL     1      12.585  -1.382  10.502  1.00  0.00     0.163 HD
BRANCH  30  33
HETATM   33  C2  UNL     1      12.020  -3.835  11.409  1.00  0.00     0.064 C 
HETATM   34  C1  UNL     1      10.878  -3.179  11.534  1.00  0.00     0.017 C 
ENDBRANCH  30  33
ENDBRANCH   1  29
TORSDOF 4
ENDMDL
MODEL 3
REMARK VINA RESULT: -8.143955185      1.019      1.215
REMARK  4 active torsions:
REMARK  status: ('A' for Active; 'I' for Inactive)
REMARK    1  A    between atoms: C2_2  and  C3_3 
REMARK       I    between atoms: C3_3  and  N1_5 
REMARK    2  A    between atoms: N1_5  and  C4_7 
REMARK    3  A    between atoms: N2_11  and  N3_13 
REMARK       I    between atoms: C8_15  and  N5_17 
REMARK       I    between atoms: C9_19  and  N7_21 
REMARK       I    between atoms: N7_21  and  C10_22 
REMARK       I    between atoms: C10_22  and  N9_24 
REMARK    4  A    between atoms: C13_27  and  C14_28 
ROOT
HETATM    1  C4  UNL     1      14.774  -1.981   7.693  1.00  0.00     0.085 C 
HETATM    2  C5  UNL     1      14.540  -0.486   7.818  1.00  0.00     0.031 C 
HETATM    3  C6  UNL     1      13.353  -0.037   7.031  1.00  0.00     0.056 C 
HETATM    4  C7  UNL     1      13.702  -0.232   5.574  1.00  0.00     0.008 C 
HETATM    5  N2  UNL     1      13.231   0.544   4.696  1.00  0.00    -0.306 N 
ATOM      6  H2  UNL     1      13.494   0.373   3.725  1.00  0.00     0.186 HD
HETATM    7  C13 UNL     1      14.590  -1.351   5.252  1.00  0.00     0.039 C 
HETATM    8  C20 UNL     1      14.653  -2.451   6.273  1.00  0.00     0.036 C 
ENDROOT
BRANCH   5   9
HETATM    9  N3  UNL     1      12.376   1.617   4.952  1.00  0.00    -0.274 N 
HETATM   10  C8  UNL     1      11.127   1.626   4.652  1.00  0.00     0.210 C 
HETATM   11  N4  UNL     1      10.388   2.793   4.977  1.00  0.00    -0.062 NA
HETATM   12  N5  UNL     1      10.455   0.562   4.024  1.00  0.00    -0.292 N 
HETATM   13  C9  UNL     1      10.620   0.343   2.739  1.00  0.00     0.272 C 
ATOM     14  H5  UNL     1       9.838  -0.042   4.567  1.00  0.00     0.172 HD
HETATM   15  N6  UNL     1      11.522   1.271   2.082  1.00  0.00    -0.049 NA
HETATM   16  N7  UNL     1      10.045  -0.622   2.026  1.00  0.00    -0.341 NA
HETATM   17  C10 UNL     1       9.655  -1.519   1.368  1.00  0.00     0.267 C 
HETATM   18  N8  UNL     1      10.568  -2.455   0.735  1.00  0.00    -0.049 NA
HETATM   19  N9  UNL     1       8.245  -1.778   1.125  1.00  0.00    -0.353 N 
HETATM   20  C11 UNL     1       7.602  -0.955   0.141  1.00  0.00     0.152 C 
HETATM   21  C12 UNL     1       7.549  -2.803   1.840  1.00  0.00     0.152 C 
ATOM     22  H3  UNL     1      12.765   2.444   5.406  1.00  0.00     0.189 HD
ENDBRANCH   5   9
BRANCH   7  23
HETATM   23  C14 UNL     1      14.252  -1.956   3.923  1.00  0.00    -0.005 C 
HETATM   24  C15 UNL     1      14.001  -3.458   4.033  1.00  0.00     0.005 C 
HETATM   25  C16 UNL     1      13.318  -3.843   2.715  1.00  0.00     0.000 C 
HETATM   26  C17 UNL     1      14.124  -3.520   1.511  1.00  0.00     0.000 C 
HETATM   27  C18 UNL     1      14.760  -2.153   1.553  1.00  0.00     0.000 C 
HETATM   28  C19 UNL     1      15.403  -1.891   2.918  1.00  0.00     0.005 C 
ENDBRANCH   7  23
BRANCH   1  29
HETATM   29  N1  UNL     1      13.849  -2.651   8.550  1.00  0.00    -0.353 N 
HETATM   30  C3  UNL     1      14.183  -3.733   9.398  1.00  0.00     0.240 C 
HETATM   31  O1  UNL     1      15.358  -4.205   9.467  1.00  0.00    -0.269 OA
ATOM     32  H1  UNL     1      12.882  -2.328   8.551  1.00  0.00     0.163 HD
BRANCH  30  33
HETATM   33  C2  UNL     1      13.195  -4.374  10.247  1.00  0.00     0.064 C 
HETATM   34  C1  UNL     1      12.300  -3.693  10.943  1.00  0.00     0.017 C 
ENDBRANCH  30  33
ENDBRANCH   1  29
TORSDOF 4
ENDMDL
MODEL 4
REMARK VINA RESULT: -8.097159550      1.210      1.360
REMARK  4 active torsions:
REMARK  status: ('A' for Active; 'I' for Inactive)
REMARK    1  A    between atoms: C2_2  and  C3_3 
REMARK       I    between atoms: C3_3  and  N1_5 
REMARK    2  A    between atoms: N1_5  and  C4_7 
REMARK    3  A    between atoms: N2_11  and  N3_13 
REMARK       I    between atoms: C8_15  and  N5_17 
REMARK       I    between atoms: C9_19  and  N7_21 
REMARK       I    between atoms: N7_21  and  C10_22 
REMARK       I    between atoms: C10_22  and  N9_24 
REMARK    4  A    between atoms: C13_27  and  C14_28 
ROOT
HETATM    1  C4  UNL     1      13.924  -1.635   9.627  1.00  0.00     0.085 C 
HETATM    2  C5  UNL     1      14.251  -0.154   9.573  1.00  0.00     0.031 C 
HETATM    3  C6  UNL     1      13.496   0.546   8.491  1.00  0.00     0.056 C 
HETATM    4  C7  UNL     1      14.022   0.009   7.181  1.00  0.00     0.008 C 
HETATM    5  N2  UNL     1      14.057   0.746   6.156  1.00  0.00    -0.306 N 
ATOM      6  H2  UNL     1      14.420   0.339   5.294  1.00  0.00     0.186 HD
HETATM    7  C13 UNL     1      14.468  -1.386   7.172  1.00  0.00     0.039 C 
HETATM    8  C20 UNL     1      13.914  -2.257   8.261  1.00  0.00     0.036 C 
ENDROOT
BRANCH   5   9
HETATM    9  N3  UNL     1      13.636   2.077   6.113  1.00  0.00    -0.274 N 
HETATM   10  C8  UNL     1      12.715   2.512   5.331  1.00  0.00     0.210 C 
HETATM   11  N4  UNL     1      12.399   3.894   5.405  1.00  0.00    -0.062 NA
HETATM   12  N5  UNL     1      12.010   1.712   4.414  1.00  0.00    -0.292 N 
HETATM   13  C9  UNL     1      12.584   1.327   3.296  1.00  0.00     0.272 C 
ATOM     14  H5  UNL     1      11.051   1.430   4.617  1.00  0.00     0.172 HD
HETATM   15  N6  UNL     1      13.947   1.795   3.128  1.00  0.00    -0.049 NA
HETATM   16  N7  UNL     1      12.031   0.576   2.347  1.00  0.00    -0.341 NA
HETATM   17  C10 UNL     1      11.637  -0.176   1.529  1.00  0.00     0.267 C 
HETATM   18  N8  UNL     1      12.309  -1.435   1.262  1.00  0.00    -0.049 NA
HETATM   19  N9  UNL     1      10.458   0.077   0.716  1.00  0.00    -0.353 N 
HETATM   20  C11 UNL     1      10.621   0.980  -0.387  1.00  0.00     0.152 C 
HETATM   21  C12 UNL     1       9.207  -0.551   1.014  1.00  0.00     0.152 C 
ATOM     22  H3  UNL     1      14.087   2.743   6.741  1.00  0.00     0.189 HD
ENDBRANCH   5   9
BRANCH   7  23
HETATM   23  C14 UNL     1      14.192  -2.043   5.853  1.00  0.00    -0.005 C 
HETATM   24  C15 UNL     1      13.570  -3.426   6.029  1.00  0.00     0.005 C 
HETATM   25  C16 UNL     1      13.015  -3.789   4.646  1.00  0.00     0.000 C 
HETATM   26  C17 UNL     1      14.043  -3.796   3.576  1.00  0.00     0.000 C 
HETATM   27  C18 UNL     1      14.979  -2.614   3.624  1.00  0.00     0.000 C 
HETATM   28  C19 UNL     1      15.459  -2.355   5.055  1.00  0.00     0.005 C 
ENDBRANCH   7  23
BRANCH   1  29
HETATM   29  N1  UNL     1      12.668  -1.793  10.288  1.00  0.00    -0.353 N 
HETATM   30  C3  UNL     1      12.193  -3.012  10.825  1.00  0.00     0.240 C 
HETATM   31  O1  UNL     1      12.861  -4.088  10.762  1.00  0.00    -0.269 OA
ATOM     32  H1  UNL     1      12.072  -0.970  10.378  1.00  0.00     0.163 HD
BRANCH  30  33
HETATM   33  C2  UNL     1      10.903  -3.108  11.485  1.00  0.00     0.064 C 
HETATM   34  C1  UNL     1      10.722  -3.784  12.607  1.00  0.00     0.017 C 
ENDBRANCH  30  33
ENDBRANCH   1  29
TORSDOF 4
ENDMDL
MODEL 5
REMARK VINA RESULT: -7.636364050      3.101      4.433
REMARK  4 active torsions:
REMARK  status: ('A' for Active; 'I' for Inactive)
REMARK    1  A    between atoms: C2_2  and  C3_3 
REMARK       I    between atoms: C3_3  and  N1_5 
REMARK    2  A    between atoms: N1_5  and  C4_7 
REMARK    3  A    between atoms: N2_11  and  N3_13 
REMARK       I    between atoms: C8_15  and  N5_17 
REMARK       I    between atoms: C9_19  and  N7_21 
REMARK       I    between atoms: N7_21  and  C10_22 
REMARK       I    between atoms: C10_22  and  N9_24 
REMARK    4  A    between atoms: C13_27  and  C14_28 
ROOT
HETATM    1  C4  UNL     1      15.047  -3.010   7.902  1.00  0.00     0.085 C 
HETATM    2  C5  UNL     1      14.324  -1.825   7.288  1.00  0.00     0.031 C 
HETATM    3  C6  UNL     1      13.544  -2.212   6.075  1.00  0.00     0.056 C 
HETATM    4  C7  UNL     1      14.552  -2.609   5.023  1.00  0.00     0.008 C 
HETATM    5  N2  UNL     1      14.309  -2.413   3.799  1.00  0.00    -0.306 N 
ATOM      6  H2  UNL     1      15.020  -2.698   3.125  1.00  0.00     0.186 HD
HETATM    7  C13 UNL     1      15.792  -3.227   5.497  1.00  0.00     0.039 C 
HETATM    8  C20 UNL     1      15.733  -3.848   6.863  1.00  0.00     0.036 C 
ENDROOT
BRANCH   5   9
HETATM    9  N3  UNL     1      13.140  -1.835   3.298  1.00  0.00    -0.274 N 
HETATM   10  C8  UNL     1      12.287  -2.462   2.571  1.00  0.00     0.210 C 
HETATM   11  N4  UNL     1      11.146  -1.737   2.138  1.00  0.00    -0.062 NA
HETATM   12  N5  UNL     1      12.414  -3.807   2.179  1.00  0.00    -0.292 N 
HETATM   13  C9  UNL     1      13.259  -4.141   1.230  1.00  0.00     0.272 C 
ATOM     14  H5  UNL     1      11.849  -4.524   2.632  1.00  0.00     0.172 HD
HETATM   15  N6  UNL     1      14.002  -3.028   0.667  1.00  0.00    -0.049 NA
HETATM   16  N7  UNL     1      13.473  -5.369   0.765  1.00  0.00    -0.341 NA
HETATM   17  C10 UNL     1      13.787  -6.443   0.392  1.00  0.00     0.267 C 
HETATM   18  N8  UNL     1      15.143  -6.938   0.544  1.00  0.00    -0.049 NA
HETATM   19  N9  UNL     1      12.863  -7.366  -0.248  1.00  0.00    -0.353 N 
HETATM   20  C11 UNL     1      12.566  -7.121  -1.630  1.00  0.00     0.152 C 
HETATM   21  C12 UNL     1      12.289  -8.457   0.478  1.00  0.00     0.152 C 
ATOM     22  H3  UNL     1      12.953  -0.859   3.524  1.00  0.00     0.189 HD
ENDBRANCH   5   9
BRANCH   7  23
HETATM   23  C14 UNL     1      16.298  -4.255   4.531  1.00  0.00    -0.005 C 
HETATM   24  C15 UNL     1      16.082  -5.675   5.050  1.00  0.00     0.005 C 
HETATM   25  C16 UNL     1      16.292  -6.579   3.829  1.00  0.00     0.000 C 
HETATM   26  C17 UNL     1      17.631  -6.435   3.206  1.00  0.00     0.000 C 
HETATM   27  C18 UNL     1      18.080  -5.002   3.054  1.00  0.00     0.000 C 
HETATM   28  C19 UNL     1      17.815  -4.207   4.336  1.00  0.00     0.005 C 
ENDBRANCH   7  23
BRANCH   1  29
HETATM   29  N1  UNL     1      14.100  -3.772   8.652  1.00  0.00    -0.353 N 
HETATM   30  C3  UNL     1      13.535  -3.359   9.882  1.00  0.00     0.240 C 
HETATM   31  O1  UNL     1      13.830  -2.255  10.429  1.00  0.00    -0.269 OA
ATOM     32  H1  UNL     1      13.811  -4.675   8.276  1.00  0.00     0.163 HD
BRANCH  30  33
HETATM   33  C2  UNL     1      12.576  -4.182  10.598  1.00  0.00     0.064 C 
HETATM   34  C1  UNL     1      11.629  -3.671  11.368  1.00  0.00     0.017 C 
ENDBRANCH  30  33
ENDBRANCH   1  29
TORSDOF 4
ENDMDL
