MODEL 1
REMARK VINA RESULT: -7.945735142      0.000      0.000
REMARK  9 active torsions:
REMARK  status: ('A' for Active; 'I' for Inactive)
REMARK    1  A    between atoms: C2_2  and  C3_3 
REMARK    2  A    between atoms: C3_3  and  C4_4 
REMARK    3  A    between atoms: C6_6  and  C7_7 
REMARK    4  A    between atoms: C9_9  and  O1_10 
REMARK    5  A    between atoms: C10_12  and  C11_13 
REMARK    6  A    between atoms: C11_13  and  N4_26 
REMARK    7  A    between atoms: N1_14  and  C12_16 
REMARK    8  A    between atoms: N4_26  and  C16_28 
REMARK    9  A    between atoms: C20_35  and  O2_36 
ROOT
HETATM    1  C11 UNL     1     -44.562  14.703 -14.730  1.00  0.00     0.120 C 
HETATM    2  N1  UNL     1     -44.914  15.130 -15.881  1.00  0.00    -0.346 N 
ATOM      3  H1  UNL     1     -45.899  15.034 -16.129  1.00  0.00     0.163 HD
ENDROOT
BRANCH   1   4
HETATM    4  C10 UNL     1     -45.580  14.118 -13.870  1.00  0.00     0.075 A 
HETATM    5  C9  UNL     1     -45.734  14.599 -12.558  1.00  0.00     0.088 A 
HETATM    6  C6  UNL     1     -46.688  14.078 -11.724  1.00  0.00    -0.024 A 
HETATM    7  C5  UNL     1     -47.531  13.052 -12.169  1.00  0.00     0.020 A 
HETATM    8  C4  UNL     1     -47.377  12.590 -13.443  1.00  0.00    -0.020 A 
HETATM    9  C20 UNL     1     -46.416  13.111 -14.288  1.00  0.00     0.089 A 
BRANCH   5  10
HETATM   10  O1  UNL     1     -44.883  15.621 -12.143  1.00  0.00    -0.359 OA
ATOM     11  H1  UNL     1     -44.834  16.447 -12.609  1.00  0.00     0.217 HD
ENDBRANCH   5  10
BRANCH   6  12
HETATM   12  C7  UNL     1     -46.813  14.607 -10.344  1.00  0.00     0.037 C 
HETATM   13  C8  UNL     1     -48.027  14.130  -9.615  1.00  0.00     0.010 C 
ENDBRANCH   6  12
BRANCH   8  14
HETATM   14  C3  UNL     1     -48.258  11.504 -13.934  1.00  0.00     0.067 C 
BRANCH  14  15
HETATM   15  C2  UNL     1     -49.334  11.216 -12.958  1.00  0.00    -0.032 C 
HETATM   16  C1  UNL     1     -49.509   9.996 -12.470  1.00  0.00     0.007 C 
ENDBRANCH  14  15
ENDBRANCH   8  14
BRANCH   9  17
HETATM   17  O2  UNL     1     -46.303  12.595 -15.592  1.00  0.00    -0.359 OA
ATOM     18  H2  UNL     1     -47.006  12.752 -16.212  1.00  0.00     0.217 HD
ENDBRANCH   9  17
ENDBRANCH   1   4
BRANCH   1  19
HETATM   19  N4  UNL     1     -43.246  14.802 -14.312  1.00  0.00    -0.322 N 
ATOM     20  H4  UNL     1     -42.777  13.939 -14.034  1.00  0.00     0.169 HD
BRANCH  19  21
HETATM   21  C16 UNL     1     -42.560  15.900 -14.245  1.00  0.00     0.150 A 
HETATM   22  N5  UNL     1     -42.818  17.009 -13.554  1.00  0.00    -0.340 N 
HETATM   23  C17 UNL     1     -41.986  18.005 -13.637  1.00  0.00     0.014 A 
ATOM     24  H5  UNL     1     -43.652  17.076 -12.972  1.00  0.00     0.167 HD
HETATM   25  C18 UNL     1     -42.185  19.317 -12.894  1.00  0.00     0.068 C 
HETATM   26  C19 UNL     1     -40.884  17.861 -14.434  1.00  0.00     0.077 A 
HETATM   27  S1  UNL     1     -41.101  16.269 -15.036  1.00  0.00    -0.064 SA
ENDBRANCH  19  21
ENDBRANCH   1  19
BRANCH   2  28
HETATM   28  C12 UNL     1     -44.048  15.737 -16.866  1.00  0.00     0.311 C 
HETATM   29  C13 UNL     1     -44.523  17.126 -17.246  1.00  0.00     0.286 C 
HETATM   30  N2  UNL     1     -44.432  17.381 -18.661  1.00  0.00    -0.070 N 
HETATM   31  C14 UNL     1     -45.211  16.432 -19.430  1.00  0.00     0.260 C 
ATOM     32  H22 UNL     1     -44.694  18.343 -18.883  1.00  0.00     0.277 HD
ATOM     33  H21 UNL     1     -43.462  17.405 -18.973  1.00  0.00     0.277 HD
HETATM   34  C15 UNL     1     -44.948  15.014 -18.984  1.00  0.00     0.262 C 
HETATM   35  N3  UNL     1     -43.888  14.894 -18.032  1.00  0.00    -0.051 N 
ATOM     36  H32 UNL     1     -42.986  15.063 -18.477  1.00  0.00     0.279 HD
ATOM     37  H31 UNL     1     -43.763  13.920 -17.756  1.00  0.00     0.279 HD
ENDBRANCH   2  28
TORSDOF 9
ENDMDL
MODEL 2
REMARK VINA RESULT: -7.942328263      0.299      2.623
REMARK  9 active torsions:
REMARK  status: ('A' for Active; 'I' for Inactive)
REMARK    1  A    between atoms: C2_2  and  C3_3 
REMARK    2  A    between atoms: C3_3  and  C4_4 
REMARK    3  A    between atoms: C6_6  and  C7_7 
REMARK    4  A    between atoms: C9_9  and  O1_10 
REMARK    5  A    between atoms: C10_12  and  C11_13 
REMARK    6  A    between atoms: C11_13  and  N4_26 
REMARK    7  A    between atoms: N1_14  and  C12_16 
REMARK    8  A    between atoms: N4_26  and  C16_28 
REMARK    9  A    between atoms: C20_35  and  O2_36 
ROOT
HETATM    1  C11 UNL     1     -44.581  14.729 -14.802  1.00  0.00     0.120 C 
HETATM    2  N1  UNL     1     -44.956  15.161 -15.944  1.00  0.00    -0.346 N 
ATOM      3  H1  UNL     1     -45.949  15.078 -16.165  1.00  0.00     0.163 HD
ENDROOT
BRANCH   1   4
HETATM    4  C10 UNL     1     -45.583  14.157 -13.915  1.00  0.00     0.075 A 
HETATM    5  C9  UNL     1     -46.410  13.122 -14.386  1.00  0.00     0.088 A 
HETATM    6  C6  UNL     1     -47.357  12.555 -13.574  1.00  0.00    -0.024 A 
HETATM    7  C5  UNL     1     -47.517  12.998 -12.256  1.00  0.00     0.020 A 
HETATM    8  C4  UNL     1     -46.710  14.002 -11.806  1.00  0.00    -0.020 A 
HETATM    9  C20 UNL     1     -45.754  14.579 -12.619  1.00  0.00     0.089 A 
BRANCH   5  10
HETATM   10  O1  UNL     1     -46.228  12.701 -15.701  1.00  0.00    -0.359 OA
ATOM     11  H1  UNL     1     -46.403  13.276 -16.436  1.00  0.00     0.217 HD
ENDBRANCH   5  10
BRANCH   6  12
HETATM   12  C7  UNL     1     -48.216  11.471 -14.111  1.00  0.00     0.037 C 
HETATM   13  C8  UNL     1     -49.379  11.124 -13.238  1.00  0.00     0.010 C 
ENDBRANCH   6  12
BRANCH   8  14
HETATM   14  C3  UNL     1     -46.862  14.487 -10.413  1.00  0.00     0.067 C 
BRANCH  14  15
HETATM   15  C2  UNL     1     -47.937  13.748  -9.712  1.00  0.00    -0.032 C 
HETATM   16  C1  UNL     1     -48.886  14.389  -9.043  1.00  0.00     0.007 C 
ENDBRANCH  14  15
ENDBRANCH   8  14
BRANCH   9  17
HETATM   17  O2  UNL     1     -44.950  15.611 -12.100  1.00  0.00    -0.359 OA
ATOM     18  H2  UNL     1     -44.303  16.018 -12.664  1.00  0.00     0.217 HD
ENDBRANCH   9  17
ENDBRANCH   1   4
BRANCH   1  19
HETATM   19  N4  UNL     1     -43.252  14.812 -14.418  1.00  0.00    -0.322 N 
ATOM     20  H4  UNL     1     -42.772  13.937 -14.204  1.00  0.00     0.169 HD
BRANCH  19  21
HETATM   21  C16 UNL     1     -42.569  15.908 -14.310  1.00  0.00     0.150 A 
HETATM   22  N5  UNL     1     -42.843  17.001 -13.601  1.00  0.00    -0.340 N 
HETATM   23  C17 UNL     1     -42.010  17.998 -13.642  1.00  0.00     0.014 A 
ATOM     24  H5  UNL     1     -43.691  17.055 -13.037  1.00  0.00     0.167 HD
HETATM   25  C18 UNL     1     -42.226  19.293 -12.875  1.00  0.00     0.068 C 
HETATM   26  C19 UNL     1     -40.889  17.872 -14.416  1.00  0.00     0.077 A 
HETATM   27  S1  UNL     1     -41.091  16.294 -15.059  1.00  0.00    -0.064 SA
ENDBRANCH  19  21
ENDBRANCH   1  19
BRANCH   2  28
HETATM   28  C12 UNL     1     -44.109  15.757 -16.951  1.00  0.00     0.311 C 
HETATM   29  C13 UNL     1     -44.648  17.098 -17.411  1.00  0.00     0.286 C 
HETATM   30  N2  UNL     1     -44.551  17.280 -18.837  1.00  0.00    -0.070 N 
HETATM   31  C14 UNL     1     -45.271  16.252 -19.561  1.00  0.00     0.260 C 
ATOM     32  H22 UNL     1     -44.857  18.214 -19.114  1.00  0.00     0.277 HD
ATOM     33  H21 UNL     1     -43.579  17.336 -19.140  1.00  0.00     0.277 HD
HETATM   34  C15 UNL     1     -44.943  14.875 -19.036  1.00  0.00     0.262 C 
HETATM   35  N3  UNL     1     -43.892  14.861 -18.068  1.00  0.00    -0.051 N 
ATOM     36  H32 UNL     1     -42.993  15.051 -18.512  1.00  0.00     0.279 HD
ATOM     37  H31 UNL     1     -43.722  13.911 -17.737  1.00  0.00     0.279 HD
ENDBRANCH   2  28
TORSDOF 9
ENDMDL
MODEL 3
REMARK VINA RESULT: -7.840832908      0.802      2.843
REMARK  9 active torsions:
REMARK  status: ('A' for Active; 'I' for Inactive)
REMARK    1  A    between atoms: C2_2  and  C3_3 
REMARK    2  A    between atoms: C3_3  and  C4_4 
REMARK    3  A    between atoms: C6_6  and  C7_7 
REMARK    4  A    between atoms: C9_9  and  O1_10 
REMARK    5  A    between atoms: C10_12  and  C11_13 
REMARK    6  A    between atoms: C11_13  and  N4_26 
REMARK    7  A    between atoms: N1_14  and  C12_16 
REMARK    8  A    between atoms: N4_26  and  C16_28 
REMARK    9  A    between atoms: C20_35  and  O2_36 
ROOT
HETATM    1  C11 UNL     1     -44.685  14.621 -14.710  1.00  0.00     0.120 C 
HETATM    2  N1  UNL     1     -45.019  15.013 -15.879  1.00  0.00    -0.346 N 
ATOM      3  H1  UNL     1     -45.995  14.888 -16.147  1.00  0.00     0.163 HD
ENDROOT
BRANCH   1   4
HETATM    4  C10 UNL     1     -45.710  14.034 -13.859  1.00  0.00     0.075 A 
HETATM    5  C9  UNL     1     -46.520  13.003 -14.367  1.00  0.00     0.088 A 
HETATM    6  C6  UNL     1     -47.487  12.421 -13.590  1.00  0.00    -0.024 A 
HETATM    7  C5  UNL     1     -47.685  12.845 -12.271  1.00  0.00     0.020 A 
HETATM    8  C4  UNL     1     -46.895  13.846 -11.784  1.00  0.00    -0.020 A 
HETATM    9  C20 UNL     1     -45.919  14.437 -12.563  1.00  0.00     0.089 A 
BRANCH   5  10
HETATM   10  O1  UNL     1     -46.299  12.599 -15.681  1.00  0.00    -0.359 OA
ATOM     11  H1  UNL     1     -45.900  13.179 -16.319  1.00  0.00     0.217 HD
ENDBRANCH   5  10
BRANCH   6  12
HETATM   12  C7  UNL     1     -48.327  11.341 -14.165  1.00  0.00     0.037 C 
HETATM   13  C8  UNL     1     -49.461  10.918 -13.289  1.00  0.00     0.010 C 
ENDBRANCH   6  12
BRANCH   8  14
HETATM   14  C3  UNL     1     -47.088  14.312 -10.391  1.00  0.00     0.067 C 
BRANCH  14  15
HETATM   15  C2  UNL     1     -48.470  14.042  -9.930  1.00  0.00    -0.032 C 
HETATM   16  C1  UNL     1     -48.874  14.409  -8.722  1.00  0.00     0.007 C 
ENDBRANCH  14  15
ENDBRANCH   8  14
BRANCH   9  17
HETATM   17  O2  UNL     1     -45.134  15.465 -12.008  1.00  0.00    -0.359 OA
ATOM     18  H2  UNL     1     -44.647  15.293 -11.210  1.00  0.00     0.217 HD
ENDBRANCH   9  17
ENDBRANCH   1   4
BRANCH   1  19
HETATM   19  N4  UNL     1     -43.382  14.761 -14.264  1.00  0.00    -0.322 N 
ATOM     20  H4  UNL     1     -42.924  13.930 -13.887  1.00  0.00     0.169 HD
BRANCH  19  21
HETATM   21  C16 UNL     1     -42.694  15.860 -14.285  1.00  0.00     0.150 A 
HETATM   22  N5  UNL     1     -41.457  16.067 -14.733  1.00  0.00    -0.340 N 
HETATM   23  C17 UNL     1     -40.955  17.263 -14.652  1.00  0.00     0.014 A 
ATOM     24  H5  UNL     1     -40.914  15.301 -15.131  1.00  0.00     0.167 HD
HETATM   25  C18 UNL     1     -39.553  17.610 -15.130  1.00  0.00     0.068 C 
HETATM   26  C19 UNL     1     -41.727  18.252 -14.108  1.00  0.00     0.077 A 
HETATM   27  S1  UNL     1     -43.166  17.397 -13.733  1.00  0.00    -0.064 SA
ENDBRANCH  19  21
ENDBRANCH   1  19
BRANCH   2  28
HETATM   28  C12 UNL     1     -44.143  15.616 -16.858  1.00  0.00     0.311 C 
HETATM   29  C13 UNL     1     -44.644  16.981 -17.288  1.00  0.00     0.286 C 
HETATM   30  N2  UNL     1     -44.523  17.200 -18.707  1.00  0.00    -0.070 N 
HETATM   31  C14 UNL     1     -45.257  16.210 -19.468  1.00  0.00     0.260 C 
ATOM     32  H22 UNL     1     -44.803  18.148 -18.961  1.00  0.00     0.277 HD
ATOM     33  H21 UNL     1     -43.546  17.241 -18.995  1.00  0.00     0.277 HD
HETATM   34  C15 UNL     1     -44.969  14.812 -18.977  1.00  0.00     0.262 C 
HETATM   35  N3  UNL     1     -43.932  14.745 -17.996  1.00  0.00    -0.051 N 
ATOM     36  H32 UNL     1     -43.023  14.927 -18.423  1.00  0.00     0.279 HD
ATOM     37  H31 UNL     1     -43.790  13.783 -17.690  1.00  0.00     0.279 HD
ENDBRANCH   2  28
TORSDOF 9
ENDMDL
MODEL 4
REMARK VINA RESULT: -7.778999779      1.228      3.078
REMARK  9 active torsions:
REMARK  status: ('A' for Active; 'I' for Inactive)
REMARK    1  A    between atoms: C2_2  and  C3_3 
REMARK    2  A    between atoms: C3_3  and  C4_4 
REMARK    3  A    between atoms: C6_6  and  C7_7 
REMARK    4  A    between atoms: C9_9  and  O1_10 
REMARK    5  A    between atoms: C10_12  and  C11_13 
REMARK    6  A    between atoms: C11_13  and  N4_26 
REMARK    7  A    between atoms: N1_14  and  C12_16 
REMARK    8  A    between atoms: N4_26  and  C16_28 
REMARK    9  A    between atoms: C20_35  and  O2_36 
ROOT
HETATM    1  C11 UNL     1     -43.982  15.603 -13.988  1.00  0.00     0.120 C 
HETATM    2  N1  UNL     1     -44.414  15.953 -15.138  1.00  0.00    -0.346 N 
ATOM      3  H1  UNL     1     -45.414  15.848 -15.308  1.00  0.00     0.163 HD
ENDROOT
BRANCH   1   4
HETATM    4  C10 UNL     1     -44.937  15.086 -13.020  1.00  0.00     0.075 A 
HETATM    5  C9  UNL     1     -45.799  14.039 -13.392  1.00  0.00     0.088 A 
HETATM    6  C6  UNL     1     -46.704  13.523 -12.502  1.00  0.00    -0.024 A 
HETATM    7  C5  UNL     1     -46.784  14.030 -11.199  1.00  0.00     0.020 A 
HETATM    8  C4  UNL     1     -45.944  15.046 -10.845  1.00  0.00    -0.020 A 
HETATM    9  C20 UNL     1     -45.031  15.572 -11.738  1.00  0.00     0.089 A 
BRANCH   5  10
HETATM   10  O1  UNL     1     -45.696  13.553 -14.692  1.00  0.00    -0.359 OA
ATOM     11  H1  UNL     1     -45.107  13.946 -15.325  1.00  0.00     0.217 HD
ENDBRANCH   5  10
BRANCH   6  12
HETATM   12  C7  UNL     1     -47.602  12.424 -12.935  1.00  0.00     0.037 C 
HETATM   13  C8  UNL     1     -48.719  12.138 -11.986  1.00  0.00     0.010 C 
ENDBRANCH   6  12
BRANCH   8  14
HETATM   14  C3  UNL     1     -46.012  15.599  -9.471  1.00  0.00     0.067 C 
BRANCH  14  15
HETATM   15  C2  UNL     1     -47.235  15.135  -8.775  1.00  0.00    -0.032 C 
HETATM   16  C1  UNL     1     -47.528  15.552  -7.552  1.00  0.00     0.007 C 
ENDBRANCH  14  15
ENDBRANCH   8  14
BRANCH   9  17
HETATM   17  O2  UNL     1     -44.190  16.618 -11.316  1.00  0.00    -0.359 OA
ATOM     18  H2  UNL     1     -43.693  16.514 -10.513  1.00  0.00     0.217 HD
ENDBRANCH   9  17
ENDBRANCH   1   4
BRANCH   1  19
HETATM   19  N4  UNL     1     -42.639  15.721 -13.672  1.00  0.00    -0.322 N 
ATOM     20  H4  UNL     1     -42.145  14.869 -13.405  1.00  0.00     0.169 HD
BRANCH  19  21
HETATM   21  C16 UNL     1     -41.958  16.824 -13.690  1.00  0.00     0.150 A 
HETATM   22  N5  UNL     1     -42.090  17.903 -12.922  1.00  0.00    -0.340 N 
HETATM   23  C17 UNL     1     -41.292  18.911 -13.117  1.00  0.00     0.014 A 
ATOM     24  H5  UNL     1     -42.804  17.939 -12.195  1.00  0.00     0.167 HD
HETATM   25  C18 UNL     1     -41.357  20.193 -12.301  1.00  0.00     0.068 C 
HETATM   26  C19 UNL     1     -40.354  18.809 -14.107  1.00  0.00     0.077 A 
HETATM   27  S1  UNL     1     -40.669  17.238 -14.719  1.00  0.00    -0.064 SA
ENDBRANCH  19  21
ENDBRANCH   1  19
BRANCH   2  28
HETATM   28  C12 UNL     1     -43.619  16.485 -16.222  1.00  0.00     0.311 C 
HETATM   29  C13 UNL     1     -44.217  17.763 -16.777  1.00  0.00     0.286 C 
HETATM   30  N2  UNL     1     -44.171  17.823 -18.216  1.00  0.00    -0.070 N 
HETATM   31  C14 UNL     1     -44.879  16.714 -18.823  1.00  0.00     0.260 C 
ATOM     32  H22 UNL     1     -44.517  18.719 -18.561  1.00  0.00     0.277 HD
ATOM     33  H21 UNL     1     -43.211  17.882 -18.555  1.00  0.00     0.277 HD
HETATM   34  C15 UNL     1     -44.488  15.399 -18.193  1.00  0.00     0.262 C 
HETATM   35  N3  UNL     1     -43.407  15.501 -17.264  1.00  0.00    -0.051 N 
ATOM     36  H32 UNL     1     -42.530  15.680 -17.753  1.00  0.00     0.279 HD
ATOM     37  H31 UNL     1     -43.195  14.590 -16.858  1.00  0.00     0.279 HD
ENDBRANCH   2  28
TORSDOF 9
ENDMDL
MODEL 5
REMARK VINA RESULT: -7.723085320      2.911      5.431
REMARK  9 active torsions:
REMARK  status: ('A' for Active; 'I' for Inactive)
REMARK    1  A    between atoms: C2_2  and  C3_3 
REMARK    2  A    between atoms: C3_3  and  C4_4 
REMARK    3  A    between atoms: C6_6  and  C7_7 
REMARK    4  A    between atoms: C9_9  and  O1_10 
REMARK    5  A    between atoms: C10_12  and  C11_13 
REMARK    6  A    between atoms: C11_13  and  N4_26 
REMARK    7  A    between atoms: N1_14  and  C12_16 
REMARK    8  A    between atoms: N4_26  and  C16_28 
REMARK    9  A    between atoms: C20_35  and  O2_36 
ROOT
HETATM    1  C11 UNL     1     -45.792  14.451 -12.098  1.00  0.00     0.120 C 
HETATM    2  N1  UNL     1     -45.301  15.524 -12.587  1.00  0.00    -0.346 N 
ATOM      3  H1  UNL     1     -45.471  15.699 -13.578  1.00  0.00     0.163 HD
ENDROOT
BRANCH   1   4
HETATM    4  C10 UNL     1     -46.546  13.571 -12.978  1.00  0.00     0.075 A 
HETATM    5  C9  UNL     1     -46.170  13.458 -14.328  1.00  0.00     0.088 A 
HETATM    6  C6  UNL     1     -46.851  12.632 -15.182  1.00  0.00    -0.024 A 
HETATM    7  C5  UNL     1     -47.940  11.881 -14.721  1.00  0.00     0.020 A 
HETATM    8  C4  UNL     1     -48.299  11.995 -13.410  1.00  0.00    -0.020 A 
HETATM    9  C20 UNL     1     -47.616  12.827 -12.544  1.00  0.00     0.089 A 
BRANCH   5  10
HETATM   10  O1  UNL     1     -45.083  14.215 -14.758  1.00  0.00    -0.359 OA
ATOM     11  H1  UNL     1     -44.510  14.658 -14.143  1.00  0.00     0.217 HD
ENDBRANCH   5  10
BRANCH   6  12
HETATM   12  C7  UNL     1     -46.428  12.547 -16.601  1.00  0.00     0.037 C 
HETATM   13  C8  UNL     1     -46.814  13.732 -17.426  1.00  0.00     0.010 C 
ENDBRANCH   6  12
BRANCH   8  14
HETATM   14  C3  UNL     1     -49.448  11.210 -12.900  1.00  0.00     0.067 C 
BRANCH  14  15
HETATM   15  C2  UNL     1     -49.212   9.757 -13.070  1.00  0.00    -0.032 C 
HETATM   16  C1  UNL     1     -49.754   9.087 -14.077  1.00  0.00     0.007 C 
ENDBRANCH  14  15
ENDBRANCH   8  14
BRANCH   9  17
HETATM   17  O2  UNL     1     -48.032  12.904 -11.202  1.00  0.00    -0.359 OA
ATOM     18  H2  UNL     1     -48.911  12.625 -10.976  1.00  0.00     0.217 HD
ENDBRANCH   9  17
ENDBRANCH   1   4
BRANCH   1  19
HETATM   19  N4  UNL     1     -45.615  14.141 -10.760  1.00  0.00    -0.322 N 
ATOM     20  H4  UNL     1     -44.996  13.361 -10.538  1.00  0.00     0.169 HD
BRANCH  19  21
HETATM   21  C16 UNL     1     -46.170  14.760  -9.765  1.00  0.00     0.150 A 
HETATM   22  N5  UNL     1     -47.242  14.414  -9.055  1.00  0.00    -0.340 N 
HETATM   23  C17 UNL     1     -47.633  15.194  -8.092  1.00  0.00     0.014 A 
ATOM     24  H5  UNL     1     -47.747  13.552  -9.263  1.00  0.00     0.167 HD
HETATM   25  C18 UNL     1     -48.844  14.897  -7.221  1.00  0.00     0.068 C 
HETATM   26  C19 UNL     1     -46.920  16.338  -7.858  1.00  0.00     0.077 A 
HETATM   27  S1  UNL     1     -45.697  16.231  -9.056  1.00  0.00    -0.064 SA
ENDBRANCH  19  21
ENDBRANCH   1  19
BRANCH   2  28
HETATM   28  C12 UNL     1     -44.528  16.513 -11.871  1.00  0.00     0.311 C 
HETATM   29  C13 UNL     1     -44.757  17.906 -12.423  1.00  0.00     0.286 C 
HETATM   30  N2  UNL     1     -43.543  18.675 -12.523  1.00  0.00    -0.070 N 
HETATM   31  C14 UNL     1     -42.565  18.027 -13.374  1.00  0.00     0.260 C 
ATOM     32  H22 UNL     1     -43.731  19.629 -12.833  1.00  0.00     0.277 HD
ATOM     33  H21 UNL     1     -43.156  18.881 -11.602  1.00  0.00     0.277 HD
HETATM   34  C15 UNL     1     -42.409  16.567 -13.022  1.00  0.00     0.262 C 
HETATM   35  N3  UNL     1     -43.120  16.177 -11.846  1.00  0.00    -0.051 N 
ATOM     36  H32 UNL     1     -42.674  16.562 -11.013  1.00  0.00     0.279 HD
ATOM     37  H31 UNL     1     -42.992  15.181 -11.664  1.00  0.00     0.279 HD
ENDBRANCH   2  28
TORSDOF 9
ENDMDL
