MODEL 1
REMARK VINA RESULT: -9.563682312      0.000      0.000
REMARK  8 active torsions:
REMARK  status: ('A' for Active; 'I' for Inactive)
REMARK    1  A    between atoms: C3_3  and  C4_4 
REMARK    2  A    between atoms: C5_5  and  C6_6 
REMARK    3  A    between atoms: C13_13  and  C14_14 
REMARK    4  A    between atoms: C14_14  and  O1_15 
REMARK    5  A    between atoms: C14_14  and  C15_17 
REMARK    6  A    between atoms: C15_17  and  C16_18 
REMARK    7  A    between atoms: C17_21  and  N2_22 
REMARK    8  A    between atoms: C19_31  and  O3_32 
ROOT
HETATM    1  C1  UNL     1     -49.231  14.341  -8.341  1.00  0.00     0.049 C 
HETATM    2  C2  UNL     1     -47.986  14.712  -9.044  1.00  0.00    -0.043 A 
HETATM    3  C3  UNL     1     -47.742  14.169 -10.287  1.00  0.00    -0.029 A 
HETATM    4  C12 UNL     1     -46.570  14.531 -10.949  1.00  0.00     0.024 A 
HETATM    5  C13 UNL     1     -45.686  15.413 -10.356  1.00  0.00     0.005 A 
HETATM    6  C19 UNL     1     -45.959  15.945  -9.098  1.00  0.00     0.081 A 
HETATM    7  C20 UNL     1     -47.107  15.607  -8.420  1.00  0.00    -0.021 A 
HETATM    8  C21 UNL     1     -47.472  16.119  -7.080  1.00  0.00     0.052 C 
ENDROOT
BRANCH   5   9
HETATM    9  C14 UNL     1     -44.428  15.834 -11.005  1.00  0.00     0.161 C 
BRANCH   9  10
HETATM   10  O1  UNL     1     -44.589  17.088 -11.589  1.00  0.00    -0.390 OA
ATOM     11  H1  UNL     1     -44.181  17.102 -12.448  1.00  0.00     0.210 HD
ENDBRANCH   9  10
BRANCH   9  12
HETATM   12  C15 UNL     1     -43.993  14.785 -11.963  1.00  0.00     0.113 C 
BRANCH  12  13
HETATM   13  C16 UNL     1     -43.582  15.316 -13.283  1.00  0.00     0.104 A 
HETATM   14  N1  UNL     1     -42.349  15.796 -13.515  1.00  0.00    -0.180 N 
HETATM   15  C17 UNL     1     -42.005  16.277 -14.748  1.00  0.00     0.681 A 
ATOM     16  H1  UNL     1     -41.660  15.801 -12.763  1.00  0.00     0.185 HD
HETATM   17  N3  UNL     1     -42.888  16.283 -15.755  1.00  0.00    -0.141 N 
HETATM   18  C18 UNL     1     -44.121  15.804 -15.525  1.00  0.00     0.339 A 
ATOM     19  H3  UNL     1     -42.631  16.643 -16.674  1.00  0.00     0.189 HD
HETATM   20  O2  UNL     1     -44.938  15.817 -16.480  1.00  0.00    -0.246 OA
HETATM   21  N4  UNL     1     -44.444  15.335 -14.310  1.00  0.00    -0.297 N 
ATOM     22  H4  UNL     1     -45.387  14.977 -14.161  1.00  0.00     0.172 HD
BRANCH  15  23
HETATM   23  N2  UNL     1     -40.805  16.729 -14.926  1.00  0.00    -0.234 N 
ATOM     24  H22 UNL     1     -40.418  17.428 -14.292  1.00  0.00     0.174 HD
ATOM     25  H21 UNL     1     -40.259  16.374 -15.711  1.00  0.00     0.174 HD
ENDBRANCH  15  23
ENDBRANCH  12  13
ENDBRANCH   9  12
ENDBRANCH   5   9
BRANCH   6  26
HETATM   26  O3  UNL     1     -45.039  16.816  -8.563  1.00  0.00    -0.359 OA
ATOM     27  H3  UNL     1     -45.371  17.597  -8.135  1.00  0.00     0.217 HD
ENDBRANCH   6  26
BRANCH   3  28
HETATM   28  C4  UNL     1     -48.679  13.254 -10.871  1.00  0.00     0.008 C 
HETATM   29  C5  UNL     1     -48.393  12.257 -11.692  1.00  0.00    -0.021 C 
BRANCH  29  30
HETATM   30  C6  UNL     1     -49.496  11.386 -12.215  1.00  0.00     0.008 C 
HETATM   31  C7  UNL     1     -49.245   9.961 -11.861  1.00  0.00     0.008 C 
HETATM   32  C8  UNL     1     -48.370   9.220 -12.812  1.00  0.00     0.001 C 
HETATM   33  C9  UNL     1     -48.833   9.378 -14.240  1.00  0.00     0.000 C 
HETATM   34  C10 UNL     1     -48.787  10.854 -14.566  1.00  0.00     0.001 C 
HETATM   35  C11 UNL     1     -49.679  11.649 -13.671  1.00  0.00     0.008 C 
ENDBRANCH  29  30
ENDBRANCH   3  28
TORSDOF 8
ENDMDL
MODEL 2
REMARK VINA RESULT: -9.475265732      0.925      1.493
REMARK  8 active torsions:
REMARK  status: ('A' for Active; 'I' for Inactive)
REMARK    1  A    between atoms: C3_3  and  C4_4 
REMARK    2  A    between atoms: C5_5  and  C6_6 
REMARK    3  A    between atoms: C13_13  and  C14_14 
REMARK    4  A    between atoms: C14_14  and  O1_15 
REMARK    5  A    between atoms: C14_14  and  C15_17 
REMARK    6  A    between atoms: C15_17  and  C16_18 
REMARK    7  A    between atoms: C17_21  and  N2_22 
REMARK    8  A    between atoms: C19_31  and  O3_32 
ROOT
HETATM    1  C1  UNL     1     -49.207  14.345  -8.286  1.00  0.00     0.049 C 
HETATM    2  C2  UNL     1     -47.975  14.718  -9.010  1.00  0.00    -0.043 A 
HETATM    3  C3  UNL     1     -47.735  14.153 -10.244  1.00  0.00    -0.029 A 
HETATM    4  C12 UNL     1     -46.575  14.517 -10.923  1.00  0.00     0.024 A 
HETATM    5  C13 UNL     1     -45.698  15.423 -10.357  1.00  0.00     0.005 A 
HETATM    6  C19 UNL     1     -45.966  15.978  -9.108  1.00  0.00     0.081 A 
HETATM    7  C20 UNL     1     -47.103  15.638  -8.412  1.00  0.00    -0.021 A 
HETATM    8  C21 UNL     1     -47.463  16.173  -7.080  1.00  0.00     0.052 C 
ENDROOT
BRANCH   5   9
HETATM    9  C14 UNL     1     -44.452  15.849 -11.028  1.00  0.00     0.161 C 
BRANCH   9  10
HETATM   10  O1  UNL     1     -44.678  17.010 -11.762  1.00  0.00    -0.390 OA
ATOM     11  H1  UNL     1     -45.084  16.797 -12.594  1.00  0.00     0.210 HD
ENDBRANCH   9  10
BRANCH   9  12
HETATM   12  C15 UNL     1     -43.923  14.726 -11.843  1.00  0.00     0.113 C 
BRANCH  12  13
HETATM   13  C16 UNL     1     -43.639  15.092 -13.250  1.00  0.00     0.104 A 
HETATM   14  N1  UNL     1     -44.467  14.774 -14.259  1.00  0.00    -0.180 N 
HETATM   15  C17 UNL     1     -44.171  15.130 -15.546  1.00  0.00     0.681 A 
ATOM     16  H1  UNL     1     -45.326  14.262 -14.063  1.00  0.00     0.185 HD
HETATM   17  N3  UNL     1     -43.049  15.804 -15.833  1.00  0.00    -0.141 N 
HETATM   18  C18 UNL     1     -42.221  16.122 -14.826  1.00  0.00     0.339 A 
ATOM     19  H3  UNL     1     -42.830  16.069 -16.794  1.00  0.00     0.189 HD
HETATM   20  O2  UNL     1     -41.172  16.754 -15.112  1.00  0.00    -0.246 OA
HETATM   21  N4  UNL     1     -42.524  15.766 -13.568  1.00  0.00    -0.297 N 
ATOM     22  H4  UNL     1     -41.878  16.020 -12.821  1.00  0.00     0.172 HD
BRANCH  15  23
HETATM   23  N2  UNL     1     -44.998  14.803 -16.487  1.00  0.00    -0.234 N 
ATOM     24  H22 UNL     1     -45.818  15.379 -16.676  1.00  0.00     0.174 HD
ATOM     25  H21 UNL     1     -44.812  13.961 -17.031  1.00  0.00     0.174 HD
ENDBRANCH  15  23
ENDBRANCH  12  13
ENDBRANCH   9  12
ENDBRANCH   5   9
BRANCH   6  26
HETATM   26  O3  UNL     1     -45.054  16.872  -8.601  1.00  0.00    -0.359 OA
ATOM     27  H3  UNL     1     -44.825  17.619  -9.141  1.00  0.00     0.217 HD
ENDBRANCH   6  26
BRANCH   3  28
HETATM   28  C4  UNL     1     -48.665  13.213 -10.799  1.00  0.00     0.008 C 
HETATM   29  C5  UNL     1     -48.409  12.325 -11.746  1.00  0.00    -0.021 C 
BRANCH  29  30
HETATM   30  C6  UNL     1     -49.499  11.408 -12.217  1.00  0.00     0.008 C 
HETATM   31  C7  UNL     1     -49.189   9.999 -11.846  1.00  0.00     0.008 C 
HETATM   32  C8  UNL     1     -48.320   9.269 -12.810  1.00  0.00     0.001 C 
HETATM   33  C9  UNL     1     -48.833   9.385 -14.225  1.00  0.00     0.000 C 
HETATM   34  C10 UNL     1     -48.847  10.855 -14.580  1.00  0.00     0.001 C 
HETATM   35  C11 UNL     1     -49.737  11.637 -13.671  1.00  0.00     0.008 C 
ENDBRANCH  29  30
ENDBRANCH   3  28
TORSDOF 8
ENDMDL
MODEL 3
REMARK VINA RESULT: -9.413136191      2.231      5.569
REMARK  8 active torsions:
REMARK  status: ('A' for Active; 'I' for Inactive)
REMARK    1  A    between atoms: C3_3  and  C4_4 
REMARK    2  A    between atoms: C5_5  and  C6_6 
REMARK    3  A    between atoms: C13_13  and  C14_14 
REMARK    4  A    between atoms: C14_14  and  O1_15 
REMARK    5  A    between atoms: C14_14  and  C15_17 
REMARK    6  A    between atoms: C15_17  and  C16_18 
REMARK    7  A    between atoms: C17_21  and  N2_22 
REMARK    8  A    between atoms: C19_31  and  O3_32 
ROOT
HETATM    1  C1  UNL     1     -48.793  14.005  -9.032  1.00  0.00     0.049 C 
HETATM    2  C2  UNL     1     -47.612  14.179  -9.902  1.00  0.00    -0.043 A 
HETATM    3  C3  UNL     1     -46.601  15.019  -9.485  1.00  0.00    -0.029 A 
HETATM    4  C12 UNL     1     -45.487  15.171 -10.308  1.00  0.00     0.024 A 
HETATM    5  C13 UNL     1     -45.415  14.489 -11.508  1.00  0.00     0.005 A 
HETATM    6  C19 UNL     1     -46.452  13.647 -11.903  1.00  0.00     0.081 A 
HETATM    7  C20 UNL     1     -47.566  13.476 -11.113  1.00  0.00    -0.021 A 
HETATM    8  C21 UNL     1     -48.714  12.609 -11.458  1.00  0.00     0.052 C 
ENDROOT
BRANCH   5   9
HETATM    9  C14 UNL     1     -44.261  14.608 -12.422  1.00  0.00     0.161 C 
BRANCH   9  10
HETATM   10  O1  UNL     1     -43.072  14.554 -11.700  1.00  0.00    -0.390 OA
ATOM     11  H1  UNL     1     -42.335  14.733 -12.272  1.00  0.00     0.210 HD
ENDBRANCH   9  10
BRANCH   9  12
HETATM   12  C15 UNL     1     -44.404  15.841 -13.238  1.00  0.00     0.113 C 
BRANCH  12  13
HETATM   13  C16 UNL     1     -43.132  16.568 -13.449  1.00  0.00     0.104 A 
HETATM   14  N1  UNL     1     -42.788  17.647 -12.726  1.00  0.00    -0.180 N 
HETATM   15  C17 UNL     1     -41.604  18.292 -12.949  1.00  0.00     0.681 A 
ATOM     16  H1  UNL     1     -43.420  17.990 -12.001  1.00  0.00     0.185 HD
HETATM   17  N3  UNL     1     -40.755  17.865 -13.893  1.00  0.00    -0.141 N 
HETATM   18  C18 UNL     1     -41.095  16.787 -14.617  1.00  0.00     0.339 A 
ATOM     19  H3  UNL     1     -39.871  18.347 -14.059  1.00  0.00     0.189 HD
HETATM   20  O2  UNL     1     -40.289  16.399 -15.499  1.00  0.00    -0.246 OA
HETATM   21  N4  UNL     1     -42.261  16.164 -14.386  1.00  0.00    -0.297 N 
ATOM     22  H4  UNL     1     -42.497  15.347 -14.950  1.00  0.00     0.172 HD
BRANCH  15  23
HETATM   23  N2  UNL     1     -41.315  19.328 -12.228  1.00  0.00    -0.234 N 
ATOM     24  H22 UNL     1     -42.055  19.864 -11.775  1.00  0.00     0.174 HD
ATOM     25  H21 UNL     1     -40.336  19.595 -12.125  1.00  0.00     0.174 HD
ENDBRANCH  15  23
ENDBRANCH  12  13
ENDBRANCH   9  12
ENDBRANCH   5   9
BRANCH   6  26
HETATM   26  O3  UNL     1     -46.320  12.998 -13.107  1.00  0.00    -0.359 OA
ATOM     27  H3  UNL     1     -45.479  13.054 -13.547  1.00  0.00     0.217 HD
ENDBRANCH   6  26
BRANCH   3  28
HETATM   28  C4  UNL     1     -46.711  15.714  -8.236  1.00  0.00     0.008 C 
HETATM   29  C5  UNL     1     -46.089  16.835  -7.906  1.00  0.00    -0.021 C 
BRANCH  29  30
HETATM   30  C6  UNL     1     -46.316  17.437  -6.551  1.00  0.00     0.008 C 
HETATM   31  C7  UNL     1     -46.047  16.434  -5.484  1.00  0.00     0.008 C 
HETATM   32  C8  UNL     1     -47.196  15.546  -5.151  1.00  0.00     0.001 C 
HETATM   33  C9  UNL     1     -48.456  16.334  -4.886  1.00  0.00     0.000 C 
HETATM   34  C10 UNL     1     -48.774  17.109  -6.144  1.00  0.00     0.001 C 
HETATM   35  C11 UNL     1     -47.674  18.051  -6.510  1.00  0.00     0.008 C 
ENDBRANCH  29  30
ENDBRANCH   3  28
TORSDOF 8
ENDMDL
MODEL 4
REMARK VINA RESULT: -9.318209574      2.401      5.713
REMARK  8 active torsions:
REMARK  status: ('A' for Active; 'I' for Inactive)
REMARK    1  A    between atoms: C3_3  and  C4_4 
REMARK    2  A    between atoms: C5_5  and  C6_6 
REMARK    3  A    between atoms: C13_13  and  C14_14 
REMARK    4  A    between atoms: C14_14  and  O1_15 
REMARK    5  A    between atoms: C14_14  and  C15_17 
REMARK    6  A    between atoms: C15_17  and  C16_18 
REMARK    7  A    between atoms: C17_21  and  N2_22 
REMARK    8  A    between atoms: C19_31  and  O3_32 
ROOT
HETATM    1  C1  UNL     1     -48.765  14.001  -9.093  1.00  0.00     0.049 C 
HETATM    2  C2  UNL     1     -47.578  14.197  -9.949  1.00  0.00    -0.043 A 
HETATM    3  C3  UNL     1     -46.557  15.002  -9.492  1.00  0.00    -0.029 A 
HETATM    4  C12 UNL     1     -45.437  15.175 -10.302  1.00  0.00     0.024 A 
HETATM    5  C13 UNL     1     -45.370  14.546 -11.531  1.00  0.00     0.005 A 
HETATM    6  C19 UNL     1     -46.417  13.739 -11.968  1.00  0.00     0.081 A 
HETATM    7  C20 UNL     1     -47.537  13.549 -11.192  1.00  0.00    -0.021 A 
HETATM    8  C21 UNL     1     -48.696  12.715 -11.579  1.00  0.00     0.052 C 
ENDROOT
BRANCH   5   9
HETATM    9  C14 UNL     1     -44.210  14.689 -12.435  1.00  0.00     0.161 C 
BRANCH   9  10
HETATM   10  O1  UNL     1     -43.049  14.890 -11.694  1.00  0.00    -0.390 OA
ATOM     11  H1  UNL     1     -43.244  14.853 -10.764  1.00  0.00     0.210 HD
ENDBRANCH   9  10
BRANCH   9  12
HETATM   12  C15 UNL     1     -44.481  15.771 -13.416  1.00  0.00     0.113 C 
BRANCH  12  13
HETATM   13  C16 UNL     1     -44.061  17.114 -12.955  1.00  0.00     0.104 A 
HETATM   14  N1  UNL     1     -42.776  17.509 -12.959  1.00  0.00    -0.180 N 
HETATM   15  C17 UNL     1     -42.426  18.757 -12.527  1.00  0.00     0.681 A 
ATOM     16  H1  UNL     1     -42.054  16.868 -13.289  1.00  0.00     0.185 HD
HETATM   17  N3  UNL     1     -43.353  19.619 -12.088  1.00  0.00    -0.141 N 
HETATM   18  C18 UNL     1     -44.637  19.227 -12.084  1.00  0.00     0.339 A 
ATOM     19  H3  UNL     1     -43.090  20.551 -11.766  1.00  0.00     0.189 HD
HETATM   20  O2  UNL     1     -45.494  20.047 -11.669  1.00  0.00    -0.246 OA
HETATM   21  N4  UNL     1     -44.966  17.999 -12.511  1.00  0.00    -0.297 N 
ATOM     22  H4  UNL     1     -45.948  17.725 -12.498  1.00  0.00     0.172 HD
BRANCH  15  23
HETATM   23  N2  UNL     1     -41.176  19.094 -12.548  1.00  0.00    -0.234 N 
ATOM     24  H22 UNL     1     -40.828  19.822 -11.925  1.00  0.00     0.174 HD
ATOM     25  H21 UNL     1     -40.551  18.618 -13.199  1.00  0.00     0.174 HD
ENDBRANCH  15  23
ENDBRANCH  12  13
ENDBRANCH   9  12
ENDBRANCH   5   9
BRANCH   6  26
HETATM   26  O3  UNL     1     -46.289  13.143 -13.200  1.00  0.00    -0.359 OA
ATOM     27  H3  UNL     1     -46.977  12.547 -13.473  1.00  0.00     0.217 HD
ENDBRANCH   6  26
BRANCH   3  28
HETATM   28  C4  UNL     1     -46.662  15.642  -8.213  1.00  0.00     0.008 C 
HETATM   29  C5  UNL     1     -46.149  16.815  -7.879  1.00  0.00    -0.021 C 
BRANCH  29  30
HETATM   30  C6  UNL     1     -46.353  17.347  -6.491  1.00  0.00     0.008 C 
HETATM   31  C7  UNL     1     -46.121  16.274  -5.485  1.00  0.00     0.008 C 
HETATM   32  C8  UNL     1     -47.301  15.411  -5.200  1.00  0.00     0.001 C 
HETATM   33  C9  UNL     1     -48.531  16.228  -4.887  1.00  0.00     0.000 C 
HETATM   34  C10 UNL     1     -48.821  17.086  -6.098  1.00  0.00     0.001 C 
HETATM   35  C11 UNL     1     -47.688  18.006  -6.411  1.00  0.00     0.008 C 
ENDBRANCH  29  30
ENDBRANCH   3  28
TORSDOF 8
ENDMDL
MODEL 5
REMARK VINA RESULT: -9.276617852      2.185      5.592
REMARK  8 active torsions:
REMARK  status: ('A' for Active; 'I' for Inactive)
REMARK    1  A    between atoms: C3_3  and  C4_4 
REMARK    2  A    between atoms: C5_5  and  C6_6 
REMARK    3  A    between atoms: C13_13  and  C14_14 
REMARK    4  A    between atoms: C14_14  and  O1_15 
REMARK    5  A    between atoms: C14_14  and  C15_17 
REMARK    6  A    between atoms: C15_17  and  C16_18 
REMARK    7  A    between atoms: C17_21  and  N2_22 
REMARK    8  A    between atoms: C19_31  and  O3_32 
ROOT
HETATM    1  C1  UNL     1     -48.788  14.125  -9.058  1.00  0.00     0.049 C 
HETATM    2  C2  UNL     1     -47.618  14.241  -9.952  1.00  0.00    -0.043 A 
HETATM    3  C3  UNL     1     -46.591  15.086  -9.592  1.00  0.00    -0.029 A 
HETATM    4  C12 UNL     1     -45.487  15.183 -10.436  1.00  0.00     0.024 A 
HETATM    5  C13 UNL     1     -45.442  14.443 -11.602  1.00  0.00     0.005 A 
HETATM    6  C19 UNL     1     -46.496  13.598 -11.941  1.00  0.00     0.081 A 
HETATM    7  C20 UNL     1     -47.599  13.480 -11.129  1.00  0.00    -0.021 A 
HETATM    8  C21 UNL     1     -48.764  12.613 -11.415  1.00  0.00     0.052 C 
ENDROOT
BRANCH   5   9
HETATM    9  C14 UNL     1     -44.300  14.502 -12.537  1.00  0.00     0.161 C 
BRANCH   9  10
HETATM   10  O1  UNL     1     -43.111  14.658 -11.830  1.00  0.00    -0.390 OA
ATOM     11  H1  UNL     1     -43.256  15.203 -11.065  1.00  0.00     0.210 HD
ENDBRANCH   9  10
BRANCH   9  12
HETATM   12  C15 UNL     1     -44.539  15.573 -13.539  1.00  0.00     0.113 C 
BRANCH  12  13
HETATM   13  C16 UNL     1     -43.524  15.619 -14.616  1.00  0.00     0.104 A 
HETATM   14  N1  UNL     1     -43.822  15.358 -15.900  1.00  0.00    -0.180 N 
HETATM   15  C17 UNL     1     -42.858  15.411 -16.868  1.00  0.00     0.681 A 
ATOM     16  H1  UNL     1     -44.779  15.116 -16.156  1.00  0.00     0.185 HD
HETATM   17  N3  UNL     1     -41.592  15.726 -16.562  1.00  0.00    -0.141 N 
HETATM   18  C18 UNL     1     -41.292  15.988 -15.280  1.00  0.00     0.339 A 
ATOM     19  H3  UNL     1     -40.873  15.765 -17.285  1.00  0.00     0.189 HD
HETATM   20  O2  UNL     1     -40.100  16.282 -15.009  1.00  0.00    -0.246 OA
HETATM   21  N4  UNL     1     -42.249  15.932 -14.341  1.00  0.00    -0.297 N 
ATOM     22  H4  UNL     1     -41.995  16.135 -13.374  1.00  0.00     0.172 HD
BRANCH  15  23
HETATM   23  N2  UNL     1     -43.190  15.151 -18.091  1.00  0.00    -0.234 N 
ATOM     24  H22 UNL     1     -42.477  15.088 -18.817  1.00  0.00     0.174 HD
ATOM     25  H21 UNL     1     -44.176  15.012 -18.313  1.00  0.00     0.174 HD
ENDBRANCH  15  23
ENDBRANCH  12  13
ENDBRANCH   9  12
ENDBRANCH   5   9
BRANCH   6  26
HETATM   26  O3  UNL     1     -46.390  12.889 -13.115  1.00  0.00    -0.359 OA
ATOM     27  H3  UNL     1     -47.148  12.391 -13.397  1.00  0.00     0.217 HD
ENDBRANCH   6  26
BRANCH   3  28
HETATM   28  C4  UNL     1     -46.673  15.842  -8.376  1.00  0.00     0.008 C 
HETATM   29  C5  UNL     1     -46.019  16.960  -8.102  1.00  0.00    -0.021 C 
BRANCH  29  30
HETATM   30  C6  UNL     1     -46.220  17.632  -6.777  1.00  0.00     0.008 C 
HETATM   31  C7  UNL     1     -45.769  16.742  -5.670  1.00  0.00     0.008 C 
HETATM   32  C8  UNL     1     -46.786  15.763  -5.194  1.00  0.00     0.001 C 
HETATM   33  C9  UNL     1     -48.105  16.429  -4.887  1.00  0.00     0.000 C 
HETATM   34  C10 UNL     1     -48.592  17.072  -6.166  1.00  0.00     0.001 C 
HETATM   35  C11 UNL     1     -47.632  18.097  -6.673  1.00  0.00     0.008 C 
ENDBRANCH  29  30
ENDBRANCH   3  28
TORSDOF 8
ENDMDL
