MODEL 1
REMARK VINA RESULT: -9.327556964      0.000      0.000
REMARK  8 active torsions:
REMARK  status: ('A' for Active; 'I' for Inactive)
REMARK    1  A    between atoms: C3_3  and  C4_4 
REMARK    2  A    between atoms: C7_7  and  O1_8 
REMARK    3  A    between atoms: C10_12  and  C11_13 
REMARK    4  A    between atoms: C11_13  and  C12_14 
REMARK    5  A    between atoms: C12_14  and  C13_15 
REMARK    6  A    between atoms: C15_19  and  O4_20 
REMARK    7  A    between atoms: C16_22  and  C17_23 
REMARK    8  A    between atoms: C18_26  and  N1_27 
ROOT
HETATM    1  C4  UNL     1     -47.133  15.470  -8.172  1.00  0.00    -0.016 A 
HETATM    2  C5  UNL     1     -47.784  15.653  -6.979  1.00  0.00     0.027 A 
HETATM    3  C6  UNL     1     -47.570  16.754  -6.133  1.00  0.00     0.012 A 
HETATM    4  C7  UNL     1     -48.273  16.814  -4.947  1.00  0.00     0.088 A 
HETATM    5  C8  UNL     1     -48.026  17.891  -4.130  1.00  0.00     0.014 A 
HETATM    6  C9  UNL     1     -47.128  18.869  -4.460  1.00  0.00    -0.003 A 
HETATM    7  C10 UNL     1     -46.428  18.807  -5.656  1.00  0.00    -0.034 A 
HETATM    8  C14 UNL     1     -46.658  17.709  -6.513  1.00  0.00     0.018 A 
HETATM    9  C15 UNL     1     -45.964  17.577  -7.714  1.00  0.00     0.095 A 
HETATM   10  C16 UNL     1     -46.225  16.442  -8.528  1.00  0.00     0.085 A 
HETATM   11  C18 UNL     1     -47.109  19.793  -3.350  1.00  0.00     0.247 A 
HETATM   12  C19 UNL     1     -48.151  19.274  -2.381  1.00  0.00    -0.038 A 
HETATM   13  C20 UNL     1     -48.646  18.207  -2.818  1.00  0.00    -0.039 A 
HETATM   14  C21 UNL     1     -49.540  17.996  -1.675  1.00  0.00     0.044 A 
HETATM   15  C22 UNL     1     -48.992  19.252  -1.172  1.00  0.00     0.042 A 
ENDROOT
BRANCH   7  16
HETATM   16  C11 UNL     1     -45.569  19.848  -6.183  1.00  0.00     0.051 C 
BRANCH  16  17
HETATM   17  C12 UNL     1     -44.186  20.025  -5.529  1.00  0.00     0.117 C 
BRANCH  17  18
HETATM   18  C13 UNL     1     -44.094  21.513  -5.123  1.00  0.00     0.172 C 
HETATM   19  O2  UNL     1     -44.413  21.853  -3.964  1.00  0.00    -0.648 OA
HETATM   20  O3  UNL     1     -43.657  22.428  -6.068  1.00  0.00    -0.648 OA
ENDBRANCH  17  18
ENDBRANCH  16  17
ENDBRANCH   7  16
BRANCH  11  21
HETATM   21  N1  UNL     1     -45.863  19.607  -2.538  1.00  0.00    -0.067 N 
ATOM     22  H13 UNL     1     -45.072  19.321  -3.115  1.00  0.00     0.275 HD
ATOM     23  H12 UNL     1     -45.491  20.495  -2.202  1.00  0.00     0.275 HD
ATOM     24  H11 UNL     1     -46.032  18.953  -1.773  1.00  0.00     0.275 HD
ENDBRANCH  11  21
BRANCH   9  25
HETATM   25  O4  UNL     1     -45.092  18.496  -8.055  1.00  0.00    -0.359 OA
ATOM     26  H4  UNL     1     -45.048  18.781  -8.960  1.00  0.00     0.217 HD
ENDBRANCH   9  25
BRANCH   4  27
HETATM   27  O1  UNL     1     -49.170  15.799  -4.664  1.00  0.00    -0.359 OA
ATOM     28  H1  UNL     1     -49.075  15.329  -3.843  1.00  0.00     0.217 HD
ENDBRANCH   4  27
BRANCH  10  29
HETATM   29  C17 UNL     1     -45.461  16.420  -9.754  1.00  0.00     0.213 C 
HETATM   30  O5  UNL     1     -45.695  17.274 -10.689  1.00  0.00    -0.644 OA
HETATM   31  O6  UNL     1     -44.458  15.559 -10.075  1.00  0.00    -0.644 OA
ENDBRANCH  10  29
BRANCH   1  32
HETATM   32  C3  UNL     1     -47.391  14.314  -9.023  1.00  0.00     0.008 C 
HETATM   33  C2  UNL     1     -48.408  13.921  -9.679  1.00  0.00    -0.030 C 
HETATM   34  C1  UNL     1     -49.725  14.479  -9.839  1.00  0.00     0.036 C 
ENDBRANCH   1  32
TORSDOF 8
ENDMDL
MODEL 2
REMARK VINA RESULT: -9.203140160      2.147      6.575
REMARK  8 active torsions:
REMARK  status: ('A' for Active; 'I' for Inactive)
REMARK    1  A    between atoms: C3_3  and  C4_4 
REMARK    2  A    between atoms: C7_7  and  O1_8 
REMARK    3  A    between atoms: C10_12  and  C11_13 
REMARK    4  A    between atoms: C11_13  and  C12_14 
REMARK    5  A    between atoms: C12_14  and  C13_15 
REMARK    6  A    between atoms: C15_19  and  O4_20 
REMARK    7  A    between atoms: C16_22  and  C17_23 
REMARK    8  A    between atoms: C18_26  and  N1_27 
ROOT
HETATM    1  C4  UNL     1     -48.976  19.079  -1.271  1.00  0.00    -0.016 A 
HETATM    2  C5  UNL     1     -49.050  18.111  -2.240  1.00  0.00     0.027 A 
HETATM    3  C6  UNL     1     -48.268  18.113  -3.407  1.00  0.00     0.012 A 
HETATM    4  C7  UNL     1     -48.449  17.092  -4.317  1.00  0.00     0.088 A 
HETATM    5  C8  UNL     1     -47.686  17.133  -5.460  1.00  0.00     0.014 A 
HETATM    6  C9  UNL     1     -46.783  18.131  -5.701  1.00  0.00    -0.003 A 
HETATM    7  C10 UNL     1     -46.600  19.153  -4.780  1.00  0.00    -0.034 A 
HETATM    8  C14 UNL     1     -47.374  19.139  -3.599  1.00  0.00     0.018 A 
HETATM    9  C15 UNL     1     -47.256  20.153  -2.651  1.00  0.00     0.095 A 
HETATM   10  C16 UNL     1     -48.073  20.095  -1.490  1.00  0.00     0.085 A 
HETATM   11  C18 UNL     1     -46.217  17.860  -7.002  1.00  0.00     0.247 A 
HETATM   12  C19 UNL     1     -46.844  16.554  -7.445  1.00  0.00    -0.038 A 
HETATM   13  C20 UNL     1     -47.670  16.164  -6.586  1.00  0.00    -0.039 A 
HETATM   14  C21 UNL     1     -48.072  14.962  -7.323  1.00  0.00     0.044 A 
HETATM   15  C22 UNL     1     -47.091  15.391  -8.315  1.00  0.00     0.042 A 
ENDROOT
BRANCH   7  16
HETATM   16  C11 UNL     1     -45.577  20.176  -4.851  1.00  0.00     0.051 C 
BRANCH  16  17
HETATM   17  C12 UNL     1     -44.248  19.805  -5.534  1.00  0.00     0.117 C 
BRANCH  17  18
HETATM   18  C13 UNL     1     -44.017  20.875  -6.625  1.00  0.00     0.172 C 
HETATM   19  O2  UNL     1     -44.205  20.579  -7.824  1.00  0.00    -0.648 OA
HETATM   20  O3  UNL     1     -43.604  22.138  -6.231  1.00  0.00    -0.648 OA
ENDBRANCH  17  18
ENDBRANCH  16  17
ENDBRANCH   7  16
BRANCH  11  21
HETATM   21  N1  UNL     1     -46.786  18.798  -8.024  1.00  0.00    -0.067 N 
ATOM     22  H13 UNL     1     -46.147  18.944  -8.804  1.00  0.00     0.275 HD
ATOM     23  H12 UNL     1     -47.559  18.376  -8.539  1.00  0.00     0.275 HD
ATOM     24  H11 UNL     1     -47.058  19.678  -7.586  1.00  0.00     0.275 HD
ENDBRANCH  11  21
BRANCH   9  25
HETATM   25  O4  UNL     1     -46.402  21.127  -2.857  1.00  0.00    -0.359 OA
ATOM     26  H4  UNL     1     -46.711  22.026  -2.847  1.00  0.00     0.217 HD
ENDBRANCH   9  25
BRANCH   4  27
HETATM   27  O1  UNL     1     -49.375  16.106  -4.023  1.00  0.00    -0.359 OA
ATOM     28  H1  UNL     1     -50.208  16.119  -4.479  1.00  0.00     0.217 HD
ENDBRANCH   4  27
BRANCH  10  29
HETATM   29  C17 UNL     1     -47.852  21.188  -0.572  1.00  0.00     0.213 C 
HETATM   30  O5  UNL     1     -46.796  21.223   0.166  1.00  0.00    -0.644 OA
HETATM   31  O6  UNL     1     -48.666  22.259  -0.366  1.00  0.00    -0.644 OA
ENDBRANCH  10  29
BRANCH   1  32
HETATM   32  C3  UNL     1     -49.804  19.034  -0.070  1.00  0.00     0.008 C 
HETATM   33  C2  UNL     1     -51.043  19.224   0.144  1.00  0.00    -0.030 C 
HETATM   34  C1  UNL     1     -52.131  19.564  -0.735  1.00  0.00     0.036 C 
ENDBRANCH   1  32
TORSDOF 8
ENDMDL
MODEL 3
REMARK VINA RESULT: -9.187336339      3.404      5.084
REMARK  8 active torsions:
REMARK  status: ('A' for Active; 'I' for Inactive)
REMARK    1  A    between atoms: C3_3  and  C4_4 
REMARK    2  A    between atoms: C7_7  and  O1_8 
REMARK    3  A    between atoms: C10_12  and  C11_13 
REMARK    4  A    between atoms: C11_13  and  C12_14 
REMARK    5  A    between atoms: C12_14  and  C13_15 
REMARK    6  A    between atoms: C15_19  and  O4_20 
REMARK    7  A    between atoms: C16_22  and  C17_23 
REMARK    8  A    between atoms: C18_26  and  N1_27 
ROOT
HETATM    1  C4  UNL     1     -46.296  13.679 -12.567  1.00  0.00    -0.016 A 
HETATM    2  C5  UNL     1     -46.981  13.621 -11.381  1.00  0.00     0.027 A 
HETATM    3  C6  UNL     1     -46.861  14.582 -10.362  1.00  0.00     0.012 A 
HETATM    4  C7  UNL     1     -47.590  14.401  -9.205  1.00  0.00     0.088 A 
HETATM    5  C8  UNL     1     -47.435  15.345  -8.217  1.00  0.00     0.014 A 
HETATM    6  C9  UNL     1     -46.602  16.421  -8.357  1.00  0.00    -0.003 A 
HETATM    7  C10 UNL     1     -45.876  16.601  -9.526  1.00  0.00    -0.034 A 
HETATM    8  C14 UNL     1     -46.011  15.644 -10.556  1.00  0.00     0.018 A 
HETATM    9  C15 UNL     1     -45.286  15.756 -11.740  1.00  0.00     0.095 A 
HETATM   10  C16 UNL     1     -45.451  14.753 -12.734  1.00  0.00     0.085 A 
HETATM   11  C18 UNL     1     -46.669  17.151  -7.113  1.00  0.00     0.247 A 
HETATM   12  C19 UNL     1     -47.691  16.413  -6.273  1.00  0.00    -0.038 A 
HETATM   13  C20 UNL     1     -48.101  15.402  -6.891  1.00  0.00    -0.039 A 
HETATM   14  C21 UNL     1     -49.000  14.949  -5.825  1.00  0.00     0.044 A 
HETATM   15  C22 UNL     1     -48.552  16.140  -5.110  1.00  0.00     0.042 A 
ENDROOT
BRANCH   7  16
HETATM   16  C11 UNL     1     -45.082  17.768  -9.852  1.00  0.00     0.051 C 
BRANCH  16  17
HETATM   17  C12 UNL     1     -45.823  19.107 -10.021  1.00  0.00     0.117 C 
BRANCH  17  18
HETATM   18  C13 UNL     1     -45.416  19.647 -11.410  1.00  0.00     0.172 C 
HETATM   19  O2  UNL     1     -44.498  20.491 -11.494  1.00  0.00    -0.648 OA
HETATM   20  O3  UNL     1     -46.089  19.174 -12.524  1.00  0.00    -0.648 OA
ENDBRANCH  17  18
ENDBRANCH  16  17
ENDBRANCH   7  16
BRANCH  11  21
HETATM   21  N1  UNL     1     -45.429  16.918  -6.304  1.00  0.00    -0.067 N 
ATOM     22  H13 UNL     1     -44.614  16.757  -6.895  1.00  0.00     0.275 HD
ATOM     23  H12 UNL     1     -45.113  17.768  -5.839  1.00  0.00     0.275 HD
ATOM     24  H11 UNL     1     -45.575  16.155  -5.643  1.00  0.00     0.275 HD
ENDBRANCH  11  21
BRANCH   9  25
HETATM   25  O4  UNL     1     -44.475  16.773 -11.902  1.00  0.00    -0.359 OA
ATOM     26  H4  UNL     1     -44.101  16.938 -12.760  1.00  0.00     0.217 HD
ENDBRANCH   9  25
BRANCH   4  27
HETATM   27  O1  UNL     1     -48.419  13.297  -9.116  1.00  0.00    -0.359 OA
ATOM     28  H1  UNL     1     -48.668  12.988  -8.252  1.00  0.00     0.217 HD
ENDBRANCH   4  27
BRANCH  10  29
HETATM   29  C17 UNL     1     -44.664  14.982 -13.923  1.00  0.00     0.213 C 
HETATM   30  O5  UNL     1     -43.380  15.064 -13.855  1.00  0.00    -0.644 OA
HETATM   31  O6  UNL     1     -45.128  15.135 -15.193  1.00  0.00    -0.644 OA
ENDBRANCH  10  29
BRANCH   1  32
HETATM   32  C3  UNL     1     -46.456  12.662 -13.601  1.00  0.00     0.008 C 
HETATM   33  C2  UNL     1     -47.401  11.868 -13.907  1.00  0.00    -0.030 C 
HETATM   34  C1  UNL     1     -48.707  11.662 -13.338  1.00  0.00     0.036 C 
ENDBRANCH   1  32
TORSDOF 8
ENDMDL
MODEL 4
REMARK VINA RESULT: -9.044065558      2.894      4.496
REMARK  8 active torsions:
REMARK  status: ('A' for Active; 'I' for Inactive)
REMARK    1  A    between atoms: C3_3  and  C4_4 
REMARK    2  A    between atoms: C7_7  and  O1_8 
REMARK    3  A    between atoms: C10_12  and  C11_13 
REMARK    4  A    between atoms: C11_13  and  C12_14 
REMARK    5  A    between atoms: C12_14  and  C13_15 
REMARK    6  A    between atoms: C15_19  and  O4_20 
REMARK    7  A    between atoms: C16_22  and  C17_23 
REMARK    8  A    between atoms: C18_26  and  N1_27 
ROOT
HETATM    1  C4  UNL     1     -45.843  14.313 -12.477  1.00  0.00    -0.016 A 
HETATM    2  C5  UNL     1     -46.626  13.973 -11.403  1.00  0.00     0.027 A 
HETATM    3  C6  UNL     1     -46.724  14.744 -10.232  1.00  0.00     0.012 A 
HETATM    4  C7  UNL     1     -47.532  14.284  -9.213  1.00  0.00     0.088 A 
HETATM    5  C8  UNL     1     -47.590  15.048  -8.071  1.00  0.00     0.014 A 
HETATM    6  C9  UNL     1     -46.888  16.214  -7.934  1.00  0.00    -0.003 A 
HETATM    7  C10 UNL     1     -46.082  16.675  -8.965  1.00  0.00    -0.034 A 
HETATM    8  C14 UNL     1     -45.999  15.908 -10.148  1.00  0.00     0.018 A 
HETATM    9  C15 UNL     1     -45.184  16.305 -11.205  1.00  0.00     0.095 A 
HETATM   10  C16 UNL     1     -45.127  15.484 -12.364  1.00  0.00     0.085 A 
HETATM   11  C18 UNL     1     -47.164  16.699  -6.602  1.00  0.00     0.247 A 
HETATM   12  C19 UNL     1     -48.162  15.719  -6.020  1.00  0.00    -0.038 A 
HETATM   13  C20 UNL     1     -48.382  14.796  -6.840  1.00  0.00    -0.039 A 
HETATM   14  C21 UNL     1     -49.314  14.067  -5.974  1.00  0.00     0.044 A 
HETATM   15  C22 UNL     1     -49.089  15.153  -5.025  1.00  0.00     0.042 A 
ENDROOT
BRANCH   7  16
HETATM   16  C11 UNL     1     -45.412  17.959  -8.999  1.00  0.00     0.051 C 
BRANCH  16  17
HETATM   17  C12 UNL     1     -46.059  19.117  -8.217  1.00  0.00     0.117 C 
BRANCH  17  18
HETATM   18  C13 UNL     1     -44.942  19.706  -7.326  1.00  0.00     0.172 C 
HETATM   19  O2  UNL     1     -44.210  20.612  -7.779  1.00  0.00    -0.648 OA
HETATM   20  O3  UNL     1     -44.788  19.203  -6.044  1.00  0.00    -0.648 OA
ENDBRANCH  17  18
ENDBRANCH  16  17
ENDBRANCH   7  16
BRANCH  11  21
HETATM   21  N1  UNL     1     -45.988  16.458  -5.705  1.00  0.00    -0.067 N 
ATOM     22  H13 UNL     1     -45.479  15.613  -5.963  1.00  0.00     0.275 HD
ATOM     23  H12 UNL     1     -45.243  17.137  -5.865  1.00  0.00     0.275 HD
ATOM     24  H11 UNL     1     -46.283  16.441  -4.729  1.00  0.00     0.275 HD
ENDBRANCH  11  21
BRANCH   9  25
HETATM   25  O4  UNL     1     -44.494  17.416 -11.101  1.00  0.00    -0.359 OA
ATOM     26  H4  UNL     1     -44.769  18.181 -11.592  1.00  0.00     0.217 HD
ENDBRANCH   9  25
BRANCH   4  27
HETATM   27  O1  UNL     1     -48.221  13.099  -9.404  1.00  0.00    -0.359 OA
ATOM     28  H1  UNL     1     -48.403  12.822 -10.295  1.00  0.00     0.217 HD
ENDBRANCH   4  27
BRANCH  10  29
HETATM   29  C17 UNL     1     -44.265  16.003 -13.400  1.00  0.00     0.213 C 
HETATM   30  O5  UNL     1     -42.985  15.997 -13.254  1.00  0.00    -0.644 OA
HETATM   31  O6  UNL     1     -44.649  16.536 -14.591  1.00  0.00    -0.644 OA
ENDBRANCH  10  29
BRANCH   1  32
HETATM   32  C3  UNL     1     -45.776  13.486 -13.676  1.00  0.00     0.008 C 
HETATM   33  C2  UNL     1     -46.554  12.618 -14.184  1.00  0.00    -0.030 C 
HETATM   34  C1  UNL     1     -47.832  12.106 -13.761  1.00  0.00     0.036 C 
ENDBRANCH   1  32
TORSDOF 8
ENDMDL
MODEL 5
REMARK VINA RESULT: -8.820167926      3.139      8.319
REMARK  8 active torsions:
REMARK  status: ('A' for Active; 'I' for Inactive)
REMARK    1  A    between atoms: C3_3  and  C4_4 
REMARK    2  A    between atoms: C7_7  and  O1_8 
REMARK    3  A    between atoms: C10_12  and  C11_13 
REMARK    4  A    between atoms: C11_13  and  C12_14 
REMARK    5  A    between atoms: C12_14  and  C13_15 
REMARK    6  A    between atoms: C15_19  and  O4_20 
REMARK    7  A    between atoms: C16_22  and  C17_23 
REMARK    8  A    between atoms: C18_26  and  N1_27 
ROOT
HETATM    1  C4  UNL     1     -47.471  17.021  -6.232  1.00  0.00    -0.016 A 
HETATM    2  C5  UNL     1     -46.741  17.515  -7.283  1.00  0.00     0.027 A 
HETATM    3  C6  UNL     1     -46.537  16.821  -8.487  1.00  0.00     0.012 A 
HETATM    4  C7  UNL     1     -45.766  17.418  -9.463  1.00  0.00     0.088 A 
HETATM    5  C8  UNL     1     -45.566  16.706 -10.622  1.00  0.00     0.014 A 
HETATM    6  C9  UNL     1     -46.099  15.461 -10.817  1.00  0.00    -0.003 A 
HETATM    7  C10 UNL     1     -46.878  14.867  -9.835  1.00  0.00    -0.034 A 
HETATM    8  C14 UNL     1     -47.097  15.574  -8.631  1.00  0.00     0.018 A 
HETATM    9  C15 UNL     1     -47.847  15.018  -7.598  1.00  0.00     0.095 A 
HETATM   10  C16 UNL     1     -48.019  15.769  -6.403  1.00  0.00     0.085 A 
HETATM   11  C18 UNL     1     -45.638  15.022 -12.113  1.00  0.00     0.247 A 
HETATM   12  C19 UNL     1     -44.843  16.185 -12.669  1.00  0.00    -0.038 A 
HETATM   13  C20 UNL     1     -44.797  17.112 -11.826  1.00  0.00    -0.039 A 
HETATM   14  C21 UNL     1     -43.974  18.002 -12.651  1.00  0.00     0.044 A 
HETATM   15  C22 UNL     1     -44.047  16.942 -13.650  1.00  0.00     0.042 A 
ENDROOT
BRANCH   7  16
HETATM   16  C11 UNL     1     -47.615  13.629  -9.980  1.00  0.00     0.051 C 
BRANCH  16  17
HETATM   17  C12 UNL     1     -48.632  13.538 -11.132  1.00  0.00     0.117 C 
BRANCH  17  18
HETATM   18  C13 UNL     1     -48.240  12.286 -11.948  1.00  0.00     0.172 C 
HETATM   19  O2  UNL     1     -48.812  11.199 -11.715  1.00  0.00    -0.648 OA
HETATM   20  O3  UNL     1     -47.259  12.411 -12.919  1.00  0.00    -0.648 OA
ENDBRANCH  17  18
ENDBRANCH  16  17
ENDBRANCH   7  16
BRANCH  11  21
HETATM   21  N1  UNL     1     -44.554  13.997 -11.961  1.00  0.00    -0.067 N 
ATOM     22  H13 UNL     1     -44.921  13.046 -12.005  1.00  0.00     0.275 HD
ATOM     23  H12 UNL     1     -43.947  13.962 -12.779  1.00  0.00     0.275 HD
ATOM     24  H11 UNL     1     -44.027  14.162 -11.104  1.00  0.00     0.275 HD
ENDBRANCH  11  21
BRANCH   9  25
HETATM   25  O4  UNL     1     -48.366  13.823  -7.753  1.00  0.00    -0.359 OA
ATOM     26  H4  UNL     1     -49.140  13.585  -7.256  1.00  0.00     0.217 HD
ENDBRANCH   9  25
BRANCH   4  27
HETATM   27  O1  UNL     1     -45.253  18.679  -9.215  1.00  0.00    -0.359 OA
ATOM     28  H1  UNL     1     -44.330  18.832  -9.381  1.00  0.00     0.217 HD
ENDBRANCH   4  27
BRANCH  10  29
HETATM   29  C17 UNL     1     -48.827  15.100  -5.411  1.00  0.00     0.213 C 
HETATM   30  O5  UNL     1     -48.870  13.814  -5.357  1.00  0.00    -0.644 OA
HETATM   31  O6  UNL     1     -49.602  15.687  -4.459  1.00  0.00    -0.644 OA
ENDBRANCH  10  29
BRANCH   1  32
HETATM   32  C3  UNL     1     -47.662  17.779  -5.000  1.00  0.00     0.008 C 
HETATM   33  C2  UNL     1     -47.081  18.793  -4.499  1.00  0.00    -0.030 C 
HETATM   34  C1  UNL     1     -45.984  19.601  -4.965  1.00  0.00     0.036 C 
ENDBRANCH   1  32
TORSDOF 8
ENDMDL
