MODEL 1
REMARK VINA RESULT: -9.168463884      0.000      0.000
REMARK  7 active torsions:
REMARK  status: ('A' for Active; 'I' for Inactive)
REMARK    1  A    between atoms: C3_3  and  C4_4 
REMARK    2  A    between atoms: C5_5  and  N1_6 
REMARK    3  A    between atoms: N1_6  and  C6_8 
REMARK    4  A    between atoms: C7_9  and  O1_10 
REMARK    5  A    between atoms: C8_12  and  C9_13 
REMARK    6  A    between atoms: C14_26  and  N6_27 
REMARK    7  A    between atoms: N6_27  and  C15_29 
ROOT
HETATM    1  C9  UNL     1     -43.048  15.577 -14.888  1.00  0.00     0.126 C 
HETATM    2  C10 UNL     1     -43.851  15.854 -16.115  1.00  0.00     0.031 C 
HETATM    3  C11 UNL     1     -41.651  15.930 -15.014  1.00  0.00     0.068 C 
HETATM    4  N2  UNL     1     -40.545  16.229 -15.116  1.00  0.00    -0.197 NA
ENDROOT
BRANCH   1   5
HETATM    5  C8  UNL     1     -43.674  16.162 -13.717  1.00  0.00     0.010 A 
HETATM    6  C7  UNL     1     -44.065  15.451 -12.605  1.00  0.00     0.105 A 
HETATM    7  C6  UNL     1     -44.643  16.098 -11.564  1.00  0.00     0.112 A 
HETATM    8  C13 UNL     1     -44.855  17.450 -11.577  1.00  0.00     0.129 A 
HETATM    9  N3  UNL     1     -44.474  18.145 -12.664  1.00  0.00    -0.350 N 
HETATM   10  N4  UNL     1     -45.400  18.096 -10.610  1.00  0.00    -0.384 N 
HETATM   11  C12 UNL     1     -43.906  17.522 -13.694  1.00  0.00     0.101 A 
ATOM     12  H3  UNL     1     -44.622  19.154 -12.698  1.00  0.00     0.166 HD
ATOM     13  H42 UNL     1     -45.688  17.569  -9.786  1.00  0.00     0.157 HD
ATOM     14  H41 UNL     1     -45.558  19.105 -10.620  1.00  0.00     0.157 HD
BRANCH   6  15
HETATM   15  O1  UNL     1     -43.854  14.107 -12.589  1.00  0.00    -0.358 OA
ATOM     16  H1  UNL     1     -44.521  13.490 -12.865  1.00  0.00     0.217 HD
ENDBRANCH   6  15
BRANCH   7  17
HETATM   17  N1  UNL     1     -45.054  15.367 -10.398  1.00  0.00    -0.336 N 
ATOM     18  H1  UNL     1     -44.447  15.346  -9.578  1.00  0.00     0.168 HD
BRANCH  17  19
HETATM   19  C5  UNL     1     -46.284  14.678 -10.370  1.00  0.00     0.137 A 
HETATM   20  C4  UNL     1     -47.257  14.945  -9.419  1.00  0.00     0.077 A 
HETATM   21  C20 UNL     1     -48.424  14.196  -9.503  1.00  0.00     0.273 A 
HETATM   22  N7  UNL     1     -48.581  13.252 -10.478  1.00  0.00    -0.155 N 
HETATM   23  O2  UNL     1     -49.364  14.354  -8.698  1.00  0.00    -0.267 OA
HETATM   24  C14 UNL     1     -47.628  13.018 -11.378  1.00  0.00     0.682 A 
ATOM     25  H7  UNL     1     -49.447  12.715 -10.517  1.00  0.00     0.187 HD
HETATM   26  N5  UNL     1     -46.518  13.731 -11.299  1.00  0.00    -0.176 N 
ATOM     27  H5  UNL     1     -45.788  13.551 -11.988  1.00  0.00     0.186 HD
BRANCH  20  28
HETATM   28  C3  UNL     1     -47.080  15.941  -8.398  1.00  0.00     0.016 C 
HETATM   29  C2  UNL     1     -46.900  15.828  -7.121  1.00  0.00    -0.030 C 
HETATM   30  C1  UNL     1     -46.735  17.031  -6.227  1.00  0.00     0.036 C 
ENDBRANCH  20  28
BRANCH  24  31
HETATM   31  N6  UNL     1     -47.867  12.103 -12.268  1.00  0.00    -0.221 N 
ATOM     32  H6  UNL     1     -47.132  11.807 -12.910  1.00  0.00     0.178 HD
BRANCH  31  33
HETATM   33  C15 UNL     1     -49.161  11.515 -12.343  1.00  0.00     0.099 C 
HETATM   34  C16 UNL     1     -49.149  10.096 -11.798  1.00  0.00     0.026 C 
HETATM   35  C17 UNL     1     -49.307   9.175 -12.989  1.00  0.00     0.002 C 
HETATM   36  C18 UNL     1     -48.845  10.022 -14.134  1.00  0.00     0.002 C 
HETATM   37  C19 UNL     1     -49.525  11.354 -13.820  1.00  0.00     0.026 C 
ENDBRANCH  31  33
ENDBRANCH  24  31
ENDBRANCH  17  19
ENDBRANCH   7  17
ENDBRANCH   1   5
TORSDOF 7
ENDMDL
MODEL 2
REMARK VINA RESULT: -8.990512960      1.104      1.452
REMARK  7 active torsions:
REMARK  status: ('A' for Active; 'I' for Inactive)
REMARK    1  A    between atoms: C3_3  and  C4_4 
REMARK    2  A    between atoms: C5_5  and  N1_6 
REMARK    3  A    between atoms: N1_6  and  C6_8 
REMARK    4  A    between atoms: C7_9  and  O1_10 
REMARK    5  A    between atoms: C8_12  and  C9_13 
REMARK    6  A    between atoms: C14_26  and  N6_27 
REMARK    7  A    between atoms: N6_27  and  C15_29 
ROOT
HETATM    1  C9  UNL     1     -42.998  15.638 -15.003  1.00  0.00     0.126 C 
HETATM    2  C10 UNL     1     -43.791  15.879 -16.245  1.00  0.00     0.031 C 
HETATM    3  C11 UNL     1     -41.600  15.988 -15.128  1.00  0.00     0.068 C 
HETATM    4  N2  UNL     1     -40.493  16.285 -15.230  1.00  0.00    -0.197 NA
ENDROOT
BRANCH   1   5
HETATM    5  C8  UNL     1     -43.634  16.256 -13.855  1.00  0.00     0.010 A 
HETATM    6  C7  UNL     1     -44.010  15.581 -12.715  1.00  0.00     0.105 A 
HETATM    7  C6  UNL     1     -44.599  16.258 -11.700  1.00  0.00     0.112 A 
HETATM    8  C13 UNL     1     -44.837  17.604 -11.765  1.00  0.00     0.129 A 
HETATM    9  N3  UNL     1     -44.469  18.263 -12.877  1.00  0.00    -0.350 N 
HETATM   10  N4  UNL     1     -45.392  18.277 -10.822  1.00  0.00    -0.384 N 
HETATM   11  C12 UNL     1     -43.890  17.611 -13.883  1.00  0.00     0.101 A 
ATOM     12  H3  UNL     1     -44.635  19.267 -12.950  1.00  0.00     0.166 HD
ATOM     13  H42 UNL     1     -45.670  17.776  -9.978  1.00  0.00     0.157 HD
ATOM     14  H41 UNL     1     -45.568  19.281 -10.870  1.00  0.00     0.157 HD
BRANCH   6  15
HETATM   15  O1  UNL     1     -43.775  14.243 -12.649  1.00  0.00    -0.358 OA
ATOM     16  H1  UNL     1     -44.166  13.632 -13.263  1.00  0.00     0.217 HD
ENDBRANCH   6  15
BRANCH   7  17
HETATM   17  N1  UNL     1     -44.997  15.564 -10.506  1.00  0.00    -0.336 N 
ATOM     18  H1  UNL     1     -44.377  15.563  -9.695  1.00  0.00     0.168 HD
BRANCH  17  19
HETATM   19  C5  UNL     1     -46.230  14.884 -10.438  1.00  0.00     0.137 A 
HETATM   20  C4  UNL     1     -47.041  14.938  -9.315  1.00  0.00     0.077 A 
HETATM   21  C20 UNL     1     -48.230  14.223  -9.377  1.00  0.00     0.273 A 
HETATM   22  N7  UNL     1     -48.561  13.513 -10.496  1.00  0.00    -0.155 N 
HETATM   23  O2  UNL     1     -49.034  14.202  -8.423  1.00  0.00    -0.267 OA
HETATM   24  C14 UNL     1     -47.762  13.480 -11.560  1.00  0.00     0.682 A 
ATOM     25  H7  UNL     1     -49.441  12.996 -10.516  1.00  0.00     0.187 HD
HETATM   26  N5  UNL     1     -46.630  14.160 -11.501  1.00  0.00    -0.176 N 
ATOM     27  H5  UNL     1     -46.018  14.135 -12.316  1.00  0.00     0.186 HD
BRANCH  20  28
HETATM   28  C3  UNL     1     -46.681  15.690  -8.143  1.00  0.00     0.016 C 
HETATM   29  C2  UNL     1     -46.936  16.914  -7.808  1.00  0.00    -0.030 C 
HETATM   30  C1  UNL     1     -46.451  17.503  -6.507  1.00  0.00     0.036 C 
ENDBRANCH  20  28
BRANCH  24  31
HETATM   31  N6  UNL     1     -48.161  12.779 -12.578  1.00  0.00    -0.221 N 
ATOM     32  H6  UNL     1     -49.149  12.758 -12.832  1.00  0.00     0.178 HD
BRANCH  31  33
HETATM   33  C15 UNL     1     -47.212  12.038 -13.337  1.00  0.00     0.099 C 
HETATM   34  C16 UNL     1     -46.571  12.907 -14.407  1.00  0.00     0.026 C 
HETATM   35  C17 UNL     1     -47.122  12.435 -15.735  1.00  0.00     0.002 C 
HETATM   36  C18 UNL     1     -48.402  11.760 -15.348  1.00  0.00     0.002 C 
HETATM   37  C19 UNL     1     -47.965  10.962 -14.121  1.00  0.00     0.026 C 
ENDBRANCH  31  33
ENDBRANCH  24  31
ENDBRANCH  17  19
ENDBRANCH   7  17
ENDBRANCH   1   5
TORSDOF 7
ENDMDL
MODEL 3
REMARK VINA RESULT: -8.745119841      1.905      5.911
REMARK  7 active torsions:
REMARK  status: ('A' for Active; 'I' for Inactive)
REMARK    1  A    between atoms: C3_3  and  C4_4 
REMARK    2  A    between atoms: C5_5  and  N1_6 
REMARK    3  A    between atoms: N1_6  and  C6_8 
REMARK    4  A    between atoms: C7_9  and  O1_10 
REMARK    5  A    between atoms: C8_12  and  C9_13 
REMARK    6  A    between atoms: C14_26  and  N6_27 
REMARK    7  A    between atoms: N6_27  and  C15_29 
ROOT
HETATM    1  C9  UNL     1     -43.888  17.873 -12.508  1.00  0.00     0.126 C 
HETATM    2  C10 UNL     1     -43.026  18.188 -13.685  1.00  0.00     0.031 C 
HETATM    3  C11 UNL     1     -44.913  18.862 -12.256  1.00  0.00     0.068 C 
HETATM    4  N2  UNL     1     -45.737  19.644 -12.073  1.00  0.00    -0.197 NA
ENDROOT
BRANCH   1   5
HETATM    5  C8  UNL     1     -44.415  16.524 -12.598  1.00  0.00     0.010 A 
HETATM    6  C7  UNL     1     -44.866  15.791 -11.524  1.00  0.00     0.105 A 
HETATM    7  C6  UNL     1     -45.339  14.536 -11.722  1.00  0.00     0.112 A 
HETATM    8  C13 UNL     1     -45.386  13.964 -12.964  1.00  0.00     0.129 A 
HETATM    9  N3  UNL     1     -44.945  14.681 -14.013  1.00  0.00    -0.350 N 
HETATM   10  N4  UNL     1     -45.827  12.779 -13.188  1.00  0.00    -0.384 N 
HETATM   11  C12 UNL     1     -44.478  15.914 -13.834  1.00  0.00     0.101 A 
ATOM     12  H3  UNL     1     -44.969  14.277 -14.949  1.00  0.00     0.166 HD
ATOM     13  H42 UNL     1     -46.162  12.236 -12.392  1.00  0.00     0.157 HD
ATOM     14  H41 UNL     1     -45.863  12.353 -14.114  1.00  0.00     0.157 HD
BRANCH   6  15
HETATM   15  O1  UNL     1     -44.821  16.357 -10.289  1.00  0.00    -0.358 OA
ATOM     16  H1  UNL     1     -44.037  16.778  -9.956  1.00  0.00     0.217 HD
ENDBRANCH   6  15
BRANCH   7  17
HETATM   17  N1  UNL     1     -45.813  13.761 -10.608  1.00  0.00    -0.336 N 
ATOM     18  H1  UNL     1     -45.371  12.867 -10.393  1.00  0.00     0.168 HD
BRANCH  17  19
HETATM   19  C5  UNL     1     -46.881  14.217  -9.809  1.00  0.00     0.137 A 
HETATM   20  C4  UNL     1     -48.206  13.984 -10.146  1.00  0.00     0.077 A 
HETATM   21  C20 UNL     1     -49.162  14.487  -9.273  1.00  0.00     0.273 A 
HETATM   22  N7  UNL     1     -48.793  15.172  -8.150  1.00  0.00    -0.155 N 
HETATM   23  O2  UNL     1     -50.383  14.335  -9.479  1.00  0.00    -0.267 OA
HETATM   24  C14 UNL     1     -47.513  15.380  -7.853  1.00  0.00     0.682 A 
ATOM     25  H7  UNL     1     -49.515  15.532  -7.525  1.00  0.00     0.187 HD
HETATM   26  N5  UNL     1     -46.602  14.901  -8.683  1.00  0.00    -0.176 N 
ATOM     27  H5  UNL     1     -45.621  15.061  -8.455  1.00  0.00     0.186 HD
BRANCH  20  28
HETATM   28  C3  UNL     1     -48.582  13.262 -11.330  1.00  0.00     0.016 C 
HETATM   29  C2  UNL     1     -48.775  11.997 -11.530  1.00  0.00    -0.030 C 
HETATM   30  C1  UNL     1     -49.172  11.453 -12.878  1.00  0.00     0.036 C 
ENDBRANCH  20  28
BRANCH  24  31
HETATM   31  N6  UNL     1     -47.257  16.040  -6.764  1.00  0.00    -0.221 N 
ATOM     32  H6  UNL     1     -46.558  15.695  -6.106  1.00  0.00     0.178 HD
BRANCH  31  33
HETATM   33  C15 UNL     1     -47.959  17.249  -6.492  1.00  0.00     0.099 C 
HETATM   34  C16 UNL     1     -47.103  18.462  -6.818  1.00  0.00     0.026 C 
HETATM   35  C17 UNL     1     -46.712  19.082  -5.494  1.00  0.00     0.002 C 
HETATM   36  C18 UNL     1     -46.861  17.945  -4.531  1.00  0.00     0.002 C 
HETATM   37  C19 UNL     1     -48.188  17.337  -4.983  1.00  0.00     0.026 C 
ENDBRANCH  31  33
ENDBRANCH  24  31
ENDBRANCH  17  19
ENDBRANCH   7  17
ENDBRANCH   1   5
TORSDOF 7
ENDMDL
MODEL 4
REMARK VINA RESULT: -8.683119854      1.850      5.603
REMARK  7 active torsions:
REMARK  status: ('A' for Active; 'I' for Inactive)
REMARK    1  A    between atoms: C3_3  and  C4_4 
REMARK    2  A    between atoms: C5_5  and  N1_6 
REMARK    3  A    between atoms: N1_6  and  C6_8 
REMARK    4  A    between atoms: C7_9  and  O1_10 
REMARK    5  A    between atoms: C8_12  and  C9_13 
REMARK    6  A    between atoms: C14_26  and  N6_27 
REMARK    7  A    between atoms: N6_27  and  C15_29 
ROOT
HETATM    1  C9  UNL     1     -47.569  14.861  -8.337  1.00  0.00     0.126 C 
HETATM    2  C10 UNL     1     -47.654  15.753  -7.143  1.00  0.00     0.031 C 
HETATM    3  C11 UNL     1     -48.851  14.575  -8.943  1.00  0.00     0.068 C 
HETATM    4  N2  UNL     1     -49.873  14.367  -9.429  1.00  0.00    -0.197 NA
ENDROOT
BRANCH   1   5
HETATM    5  C8  UNL     1     -46.594  15.360  -9.288  1.00  0.00     0.010 A 
HETATM    6  C7  UNL     1     -45.962  14.586 -10.235  1.00  0.00     0.105 A 
HETATM    7  C6  UNL     1     -45.065  15.156 -11.076  1.00  0.00     0.112 A 
HETATM    8  C13 UNL     1     -44.761  16.489 -11.019  1.00  0.00     0.129 A 
HETATM    9  N3  UNL     1     -45.378  17.245 -10.095  1.00  0.00    -0.350 N 
HETATM   10  N4  UNL     1     -43.917  17.062 -11.800  1.00  0.00    -0.384 N 
HETATM   11  C12 UNL     1     -46.261  16.698  -9.262  1.00  0.00     0.101 A 
ATOM     12  H3  UNL     1     -45.169  18.241 -10.032  1.00  0.00     0.166 HD
ATOM     13  H42 UNL     1     -43.449  16.488 -12.501  1.00  0.00     0.157 HD
ATOM     14  H41 UNL     1     -43.691  18.056 -11.758  1.00  0.00     0.157 HD
BRANCH   6  15
HETATM   15  O1  UNL     1     -46.263  13.261 -10.293  1.00  0.00    -0.358 OA
ATOM     16  H1  UNL     1     -46.164  12.689  -9.541  1.00  0.00     0.217 HD
ENDBRANCH   6  15
BRANCH   7  17
HETATM   17  N1  UNL     1     -44.399  14.358 -12.068  1.00  0.00    -0.336 N 
ATOM     18  H1  UNL     1     -43.412  14.128 -11.949  1.00  0.00     0.168 HD
BRANCH  17  19
HETATM   19  C5  UNL     1     -45.089  13.888 -13.204  1.00  0.00     0.137 A 
HETATM   20  C4  UNL     1     -44.953  14.484 -14.448  1.00  0.00     0.077 A 
HETATM   21  C20 UNL     1     -45.688  13.923 -15.485  1.00  0.00     0.273 A 
HETATM   22  N7  UNL     1     -46.496  12.844 -15.266  1.00  0.00    -0.155 N 
HETATM   23  O2  UNL     1     -45.640  14.380 -16.645  1.00  0.00    -0.267 OA
HETATM   24  C14 UNL     1     -46.607  12.293 -14.059  1.00  0.00     0.682 A 
ATOM     25  H7  UNL     1     -47.026  12.451 -16.044  1.00  0.00     0.187 HD
HETATM   26  N5  UNL     1     -45.907  12.826 -13.072  1.00  0.00    -0.176 N 
ATOM     27  H5  UNL     1     -45.991  12.404 -12.148  1.00  0.00     0.186 HD
BRANCH  20  28
HETATM   28  C3  UNL     1     -44.098  15.619 -14.667  1.00  0.00     0.016 C 
HETATM   29  C2  UNL     1     -42.853  15.693 -15.014  1.00  0.00    -0.030 C 
HETATM   30  C1  UNL     1     -42.149  17.014 -15.188  1.00  0.00     0.036 C 
ENDBRANCH  20  28
BRANCH  24  31
HETATM   31  N6  UNL     1     -47.398  11.269 -13.946  1.00  0.00    -0.221 N 
ATOM     32  H6  UNL     1     -47.036  10.324 -14.076  1.00  0.00     0.178 HD
BRANCH  31  33
HETATM   33  C15 UNL     1     -48.773  11.472 -13.641  1.00  0.00     0.099 C 
HETATM   34  C16 UNL     1     -49.035  11.290 -12.155  1.00  0.00     0.026 C 
HETATM   35  C17 UNL     1     -49.801   9.993 -12.008  1.00  0.00     0.002 C 
HETATM   36  C18 UNL     1     -49.456   9.252 -13.263  1.00  0.00     0.002 C 
HETATM   37  C19 UNL     1     -49.578  10.357 -14.311  1.00  0.00     0.026 C 
ENDBRANCH  31  33
ENDBRANCH  24  31
ENDBRANCH  17  19
ENDBRANCH   7  17
ENDBRANCH   1   5
TORSDOF 7
ENDMDL
MODEL 5
REMARK VINA RESULT: -8.460715071      1.726      5.596
REMARK  7 active torsions:
REMARK  status: ('A' for Active; 'I' for Inactive)
REMARK    1  A    between atoms: C3_3  and  C4_4 
REMARK    2  A    between atoms: C5_5  and  N1_6 
REMARK    3  A    between atoms: N1_6  and  C6_8 
REMARK    4  A    between atoms: C7_9  and  O1_10 
REMARK    5  A    between atoms: C8_12  and  C9_13 
REMARK    6  A    between atoms: C14_26  and  N6_27 
REMARK    7  A    between atoms: N6_27  and  C15_29 
ROOT
HETATM    1  C9  UNL     1     -42.218  16.618 -13.400  1.00  0.00     0.126 C 
HETATM    2  C10 UNL     1     -41.225  16.540 -14.512  1.00  0.00     0.031 C 
HETATM    3  C11 UNL     1     -42.675  17.961 -13.121  1.00  0.00     0.068 C 
HETATM    4  N2  UNL     1     -43.047  19.031 -12.917  1.00  0.00    -0.197 NA
ENDROOT
BRANCH   1   5
HETATM    5  C8  UNL     1     -43.308  15.683 -13.613  1.00  0.00     0.010 A 
HETATM    6  C7  UNL     1     -43.901  14.938 -12.619  1.00  0.00     0.105 A 
HETATM    7  C6  UNL     1     -44.913  14.093 -12.929  1.00  0.00     0.112 A 
HETATM    8  C13 UNL     1     -45.374  13.950 -14.209  1.00  0.00     0.129 A 
HETATM    9  N3  UNL     1     -44.795  14.678 -15.180  1.00  0.00    -0.350 N 
HETATM   10  N4  UNL     1     -46.331  13.160 -14.539  1.00  0.00    -0.384 N 
HETATM   11  C12 UNL     1     -43.799  15.512 -14.890  1.00  0.00     0.101 A 
ATOM     12  H3  UNL     1     -45.120  14.590 -16.143  1.00  0.00     0.166 HD
ATOM     13  H42 UNL     1     -46.771  12.608 -13.802  1.00  0.00     0.157 HD
ATOM     14  H41 UNL     1     -46.675  13.054 -15.494  1.00  0.00     0.157 HD
BRANCH   6  15
HETATM   15  O1  UNL     1     -43.444  15.079 -11.345  1.00  0.00    -0.358 OA
ATOM     16  H1  UNL     1     -43.540  15.892 -10.863  1.00  0.00     0.217 HD
ENDBRANCH   6  15
BRANCH   7  17
HETATM   17  N1  UNL     1     -45.540  13.310 -11.899  1.00  0.00    -0.336 N 
ATOM     18  H1  UNL     1     -45.356  12.308 -11.848  1.00  0.00     0.168 HD
BRANCH  17  19
HETATM   19  C5  UNL     1     -46.406  13.908 -10.960  1.00  0.00     0.137 A 
HETATM   20  C4  UNL     1     -47.774  13.681 -10.971  1.00  0.00     0.077 A 
HETATM   21  C20 UNL     1     -48.514  14.330  -9.991  1.00  0.00     0.273 A 
HETATM   22  N7  UNL     1     -47.906  15.143  -9.078  1.00  0.00    -0.155 N 
HETATM   23  O2  UNL     1     -49.752  14.197  -9.909  1.00  0.00    -0.267 OA
HETATM   24  C14 UNL     1     -46.589  15.342  -9.093  1.00  0.00     0.682 A 
ATOM     25  H7  UNL     1     -48.472  15.608  -8.369  1.00  0.00     0.187 HD
HETATM   26  N5  UNL     1     -45.884  14.724 -10.025  1.00  0.00    -0.176 N 
ATOM     27  H5  UNL     1     -44.876  14.876 -10.036  1.00  0.00     0.186 HD
BRANCH  20  28
HETATM   28  C3  UNL     1     -48.403  12.822 -11.937  1.00  0.00     0.016 C 
HETATM   29  C2  UNL     1     -48.788  11.589 -11.856  1.00  0.00    -0.030 C 
HETATM   30  C1  UNL     1     -49.438  10.877 -13.015  1.00  0.00     0.036 C 
ENDBRANCH  20  28
BRANCH  24  31
HETATM   31  N6  UNL     1     -46.099  16.130  -8.185  1.00  0.00    -0.221 N 
ATOM     32  H6  UNL     1     -45.127  16.035  -7.893  1.00  0.00     0.178 HD
BRANCH  31  33
HETATM   33  C15 UNL     1     -46.927  17.128  -7.598  1.00  0.00     0.099 C 
HETATM   34  C16 UNL     1     -46.533  18.516  -8.077  1.00  0.00     0.026 C 
HETATM   35  C17 UNL     1     -45.875  19.207  -6.902  1.00  0.00     0.002 C 
HETATM   36  C18 UNL     1     -45.428  18.063  -6.044  1.00  0.00     0.002 C 
HETATM   37  C19 UNL     1     -46.652  17.150  -6.094  1.00  0.00     0.026 C 
ENDBRANCH  31  33
ENDBRANCH  24  31
ENDBRANCH  17  19
ENDBRANCH   7  17
ENDBRANCH   1   5
TORSDOF 7
ENDMDL
