MODEL 1
REMARK VINA RESULT: -8.459367915      0.000      0.000
REMARK  10 active torsions:
REMARK  status: ('A' for Active; 'I' for Inactive)
REMARK    1  A    between atoms: C3_3  and  C4_4 
REMARK    2  A    between atoms: C8_10  and  N2_11 
REMARK    3  A    between atoms: C9_16  and  N4_17 
REMARK    4  A    between atoms: N4_17  and  C10_19 
REMARK    5  A    between atoms: C10_19  and  C11_20 
REMARK    6  A    between atoms: C11_20  and  C12_21 
REMARK    7  A    between atoms: C12_21  and  C13_22 
REMARK    8  A    between atoms: C13_22  and  N5_23 
REMARK    9  A    between atoms: C14_24  and  O1_25 
REMARK   10  A    between atoms: C17_29  and  O2_30 
ROOT
HETATM    1  C10 UNL     1     -45.005  14.309 -12.893  1.00  0.00     0.121 C 
ENDROOT
BRANCH   1   2
HETATM    2  N4  UNL     1     -46.385  13.950 -12.880  1.00  0.00    -0.375 N 
ATOM      3  H4  UNL     1     -47.013  14.428 -12.234  1.00  0.00     0.161 HD
BRANCH   2   4
HETATM    4  C9  UNL     1     -46.865  13.040 -13.658  1.00  0.00     0.124 A 
HETATM    5  C2  UNL     1     -47.787  12.135 -13.088  1.00  0.00     0.006 A 
HETATM    6  C1  UNL     1     -48.108  12.300 -11.685  1.00  0.00     0.054 C 
HETATM    7  C3  UNL     1     -48.332  11.149 -13.851  1.00  0.00     0.043 A 
HETATM    8  N1  UNL     1     -47.934  11.105 -15.159  1.00  0.00    -0.194 N 
HETATM    9  C8  UNL     1     -47.069  11.962 -15.674  1.00  0.00     0.677 A 
ATOM     10  H1  UNL     1     -48.321  10.381 -15.762  1.00  0.00     0.184 HD
HETATM   11  N3  UNL     1     -46.515  12.951 -14.930  1.00  0.00    -0.177 N 
ATOM     12  H3  UNL     1     -45.849  13.605 -15.340  1.00  0.00     0.186 HD
BRANCH   7  13
HETATM   13  C4  UNL     1     -49.294  10.207 -13.279  1.00  0.00    -0.007 C 
HETATM   14  C5  UNL     1     -48.679   9.232 -12.316  1.00  0.00     0.021 C 
HETATM   15  C6  UNL     1     -49.774   9.336 -14.466  1.00  0.00     0.021 C 
HETATM   16  C7  UNL     1     -50.568  10.846 -12.777  1.00  0.00     0.021 C 
ENDBRANCH   7  13
BRANCH   9  17
HETATM   17  N2  UNL     1     -46.695  11.916 -16.915  1.00  0.00    -0.234 N 
ATOM     18  H22 UNL     1     -46.509  10.984 -17.286  1.00  0.00     0.174 HD
ATOM     19  H21 UNL     1     -46.591  12.753 -17.489  1.00  0.00     0.174 HD
ENDBRANCH   9  17
ENDBRANCH   2   4
ENDBRANCH   1   2
BRANCH   1  20
HETATM   20  C11 UNL     1     -44.793  15.804 -12.861  1.00  0.00     0.021 C 
BRANCH  20  21
HETATM   21  C12 UNL     1     -45.503  16.458 -11.711  1.00  0.00     0.022 C 
BRANCH  21  22
HETATM   22  C13 UNL     1     -44.688  16.148 -10.453  1.00  0.00     0.133 C 
BRANCH  22  23
HETATM   23  N5  UNL     1     -45.639  16.190  -9.345  1.00  0.00    -0.306 N 
HETATM   24  C14 UNL     1     -46.471  15.152  -9.068  1.00  0.00     0.153 A 
HETATM   25  C15 UNL     1     -47.243  15.481  -7.980  1.00  0.00     0.024 A 
HETATM   26  C16 UNL     1     -46.853  16.761  -7.599  1.00  0.00     0.090 A 
HETATM   27  C21 UNL     1     -48.288  14.633  -7.334  1.00  0.00     0.045 C 
HETATM   28  C17 UNL     1     -45.855  17.176  -8.465  1.00  0.00     0.172 A 
HETATM   29  N6  UNL     1     -47.378  17.517  -6.519  1.00  0.00    -0.386 N 
HETATM   30  C18 UNL     1     -48.634  17.358  -5.870  1.00  0.00     0.120 C 
ATOM     31  H6  UNL     1     -46.782  18.266  -6.165  1.00  0.00     0.159 HD
HETATM   32  C19 UNL     1     -48.936  16.009  -5.320  1.00  0.00     0.020 C 
HETATM   33  C20 UNL     1     -48.118  14.880  -5.833  1.00  0.00     0.006 C 
BRANCH  24  34
HETATM   34  O1  UNL     1     -46.546  13.960  -9.751  1.00  0.00    -0.345 OA
ATOM     35  H1  UNL     1     -47.220  13.296  -9.657  1.00  0.00     0.219 HD
ENDBRANCH  24  34
BRANCH  28  36
HETATM   36  O2  UNL     1     -45.217  18.379  -8.415  1.00  0.00    -0.344 OA
ATOM     37  H2  UNL     1     -45.244  19.009  -7.703  1.00  0.00     0.219 HD
ENDBRANCH  28  36
ENDBRANCH  22  23
ENDBRANCH  21  22
ENDBRANCH  20  21
ENDBRANCH   1  20
TORSDOF 10
ENDMDL
MODEL 2
REMARK VINA RESULT: -8.425100001      2.512      8.226
REMARK  10 active torsions:
REMARK  status: ('A' for Active; 'I' for Inactive)
REMARK    1  A    between atoms: C3_3  and  C4_4 
REMARK    2  A    between atoms: C8_10  and  N2_11 
REMARK    3  A    between atoms: C9_16  and  N4_17 
REMARK    4  A    between atoms: N4_17  and  C10_19 
REMARK    5  A    between atoms: C10_19  and  C11_20 
REMARK    6  A    between atoms: C11_20  and  C12_21 
REMARK    7  A    between atoms: C12_21  and  C13_22 
REMARK    8  A    between atoms: C13_22  and  N5_23 
REMARK    9  A    between atoms: C14_24  and  O1_25 
REMARK   10  A    between atoms: C17_29  and  O2_30 
ROOT
HETATM    1  C10 UNL     1     -48.295  13.284 -11.264  1.00  0.00     0.121 C 
ENDROOT
BRANCH   1   2
HETATM    2  N4  UNL     1     -47.393  13.284 -10.160  1.00  0.00    -0.375 N 
ATOM      3  H4  UNL     1     -47.342  12.457  -9.565  1.00  0.00     0.161 HD
BRANCH   2   4
HETATM    4  C9  UNL     1     -46.639  14.296  -9.889  1.00  0.00     0.124 A 
HETATM    5  C2  UNL     1     -47.042  15.121  -8.816  1.00  0.00     0.006 A 
HETATM    6  C1  UNL     1     -48.263  14.768  -8.120  1.00  0.00     0.054 C 
HETATM    7  C3  UNL     1     -46.295  16.206  -8.475  1.00  0.00     0.043 A 
HETATM    8  N1  UNL     1     -45.170  16.425  -9.221  1.00  0.00    -0.194 N 
HETATM    9  C8  UNL     1     -44.809  15.640 -10.223  1.00  0.00     0.677 A 
ATOM     10  H1  UNL     1     -44.584  17.228  -8.996  1.00  0.00     0.184 HD
HETATM   11  N3  UNL     1     -45.541  14.555 -10.577  1.00  0.00    -0.177 N 
ATOM     12  H3  UNL     1     -45.252  13.957 -11.351  1.00  0.00     0.186 HD
BRANCH   7  13
HETATM   13  C4  UNL     1     -46.693  17.068  -7.362  1.00  0.00    -0.007 C 
HETATM   14  C5  UNL     1     -46.879  18.506  -7.754  1.00  0.00     0.021 C 
HETATM   15  C6  UNL     1     -45.483  17.078  -6.396  1.00  0.00     0.021 C 
HETATM   16  C7  UNL     1     -47.814  16.512  -6.514  1.00  0.00     0.021 C 
ENDBRANCH   7  13
BRANCH   9  17
HETATM   17  N2  UNL     1     -43.742  15.852 -10.927  1.00  0.00    -0.234 N 
ATOM     18  H22 UNL     1     -43.235  15.018 -11.222  1.00  0.00     0.174 HD
ATOM     19  H21 UNL     1     -43.423  16.789 -11.174  1.00  0.00     0.174 HD
ENDBRANCH   9  17
ENDBRANCH   2   4
ENDBRANCH   1   2
BRANCH   1  20
HETATM   20  C11 UNL     1     -48.654  11.891 -11.722  1.00  0.00     0.021 C 
BRANCH  20  21
HETATM   21  C12 UNL     1     -48.935  11.828 -13.197  1.00  0.00     0.022 C 
BRANCH  21  22
HETATM   22  C13 UNL     1     -47.755  11.095 -13.841  1.00  0.00     0.133 C 
BRANCH  22  23
HETATM   23  N5  UNL     1     -47.076  12.088 -14.669  1.00  0.00    -0.306 N 
HETATM   24  C14 UNL     1     -47.331  12.217 -15.997  1.00  0.00     0.153 A 
HETATM   25  C15 UNL     1     -46.546  13.225 -16.504  1.00  0.00     0.024 A 
HETATM   26  C16 UNL     1     -45.799  13.710 -15.435  1.00  0.00     0.090 A 
HETATM   27  C21 UNL     1     -46.506  13.706 -17.916  1.00  0.00     0.045 C 
HETATM   28  C17 UNL     1     -46.149  12.985 -14.308  1.00  0.00     0.172 A 
HETATM   29  N6  UNL     1     -44.845  14.759 -15.479  1.00  0.00    -0.386 N 
HETATM   30  C18 UNL     1     -44.141  15.253 -16.613  1.00  0.00     0.120 C 
ATOM     31  H6  UNL     1     -44.638  15.215 -14.590  1.00  0.00     0.159 HD
HETATM   32  C19 UNL     1     -44.963  15.697 -17.769  1.00  0.00     0.020 C 
HETATM   33  C20 UNL     1     -46.372  15.226 -17.808  1.00  0.00     0.006 C 
BRANCH  24  34
HETATM   34  O1  UNL     1     -48.223  11.472 -16.735  1.00  0.00    -0.345 OA
ATOM     35  H1  UNL     1     -49.169  11.560 -16.735  1.00  0.00     0.219 HD
ENDBRANCH  24  34
BRANCH  28  36
HETATM   36  O2  UNL     1     -45.632  13.166 -13.061  1.00  0.00    -0.344 OA
ATOM     37  H2  UNL     1     -44.715  13.272 -12.834  1.00  0.00     0.219 HD
ENDBRANCH  28  36
ENDBRANCH  22  23
ENDBRANCH  21  22
ENDBRANCH  20  21
ENDBRANCH   1  20
TORSDOF 10
ENDMDL
MODEL 3
REMARK VINA RESULT: -8.384967596      2.828      5.674
REMARK  10 active torsions:
REMARK  status: ('A' for Active; 'I' for Inactive)
REMARK    1  A    between atoms: C3_3  and  C4_4 
REMARK    2  A    between atoms: C8_10  and  N2_11 
REMARK    3  A    between atoms: C9_16  and  N4_17 
REMARK    4  A    between atoms: N4_17  and  C10_19 
REMARK    5  A    between atoms: C10_19  and  C11_20 
REMARK    6  A    between atoms: C11_20  and  C12_21 
REMARK    7  A    between atoms: C12_21  and  C13_22 
REMARK    8  A    between atoms: C13_22  and  N5_23 
REMARK    9  A    between atoms: C14_24  and  O1_25 
REMARK   10  A    between atoms: C17_29  and  O2_30 
ROOT
HETATM    1  C10 UNL     1     -45.717  13.238 -12.923  1.00  0.00     0.121 C 
ENDROOT
BRANCH   1   2
HETATM    2  N4  UNL     1     -45.364  13.929 -14.120  1.00  0.00    -0.375 N 
ATOM      3  H4  UNL     1     -45.824  13.669 -14.993  1.00  0.00     0.161 HD
BRANCH   2   4
HETATM    4  C9  UNL     1     -44.482  14.870 -14.135  1.00  0.00     0.124 A 
HETATM    5  C2  UNL     1     -44.226  15.484 -15.381  1.00  0.00     0.006 A 
HETATM    6  C1  UNL     1     -44.964  15.002 -16.530  1.00  0.00     0.054 C 
HETATM    7  C3  UNL     1     -43.307  16.484 -15.469  1.00  0.00     0.043 A 
HETATM    8  N1  UNL     1     -42.679  16.834 -14.306  1.00  0.00    -0.194 N 
HETATM    9  C8  UNL     1     -42.933  16.247 -13.149  1.00  0.00     0.677 A 
ATOM     10  H1  UNL     1     -41.985  17.580 -14.333  1.00  0.00     0.184 HD
HETATM   11  N3  UNL     1     -43.844  15.249 -13.041  1.00  0.00    -0.177 N 
ATOM     12  H3  UNL     1     -44.031  14.804 -12.142  1.00  0.00     0.186 HD
BRANCH   7  13
HETATM   13  C4  UNL     1     -43.034  17.136 -16.751  1.00  0.00    -0.007 C 
HETATM   14  C5  UNL     1     -42.275  16.268 -17.714  1.00  0.00     0.021 C 
HETATM   15  C6  UNL     1     -42.064  18.298 -16.423  1.00  0.00     0.021 C 
HETATM   16  C7  UNL     1     -44.226  17.836 -17.360  1.00  0.00     0.021 C 
ENDBRANCH   7  13
BRANCH   9  17
HETATM   17  N2  UNL     1     -42.334  16.583 -12.049  1.00  0.00    -0.234 N 
ATOM     18  H22 UNL     1     -41.776  15.851 -11.609  1.00  0.00     0.174 HD
ATOM     19  H21 UNL     1     -42.412  17.516 -11.643  1.00  0.00     0.174 HD
ENDBRANCH   9  17
ENDBRANCH   2   4
ENDBRANCH   1   2
BRANCH   1  20
HETATM   20  C11 UNL     1     -47.202  13.262 -12.655  1.00  0.00     0.021 C 
BRANCH  20  21
HETATM   21  C12 UNL     1     -47.548  14.038 -11.416  1.00  0.00     0.022 C 
BRANCH  21  22
HETATM   22  C13 UNL     1     -46.384  13.854 -10.439  1.00  0.00     0.133 C 
BRANCH  22  23
HETATM   23  N5  UNL     1     -46.559  14.883  -9.416  1.00  0.00    -0.306 N 
HETATM   24  C14 UNL     1     -45.744  15.967  -9.335  1.00  0.00     0.153 A 
HETATM   25  C15 UNL     1     -46.150  16.749  -8.282  1.00  0.00     0.024 A 
HETATM   26  C16 UNL     1     -47.247  16.104  -7.718  1.00  0.00     0.090 A 
HETATM   27  C21 UNL     1     -45.541  18.036  -7.834  1.00  0.00     0.045 C 
HETATM   28  C17 UNL     1     -47.477  14.946  -8.444  1.00  0.00     0.172 A 
HETATM   29  N6  UNL     1     -48.002  16.542  -6.599  1.00  0.00    -0.386 N 
HETATM   30  C18 UNL     1     -47.602  17.449  -5.577  1.00  0.00     0.120 C 
ATOM     31  H6  UNL     1     -48.944  16.160  -6.517  1.00  0.00     0.159 HD
HETATM   32  C19 UNL     1     -47.126  18.786  -6.019  1.00  0.00     0.020 C 
HETATM   33  C20 UNL     1     -46.730  18.917  -7.445  1.00  0.00     0.006 C 
BRANCH  24  34
HETATM   34  O1  UNL     1     -44.681  16.254 -10.161  1.00  0.00    -0.345 OA
ATOM     35  H1  UNL     1     -44.529  17.069 -10.624  1.00  0.00     0.219 HD
ENDBRANCH  24  34
BRANCH  28  36
HETATM   36  O2  UNL     1     -48.469  14.045  -8.197  1.00  0.00    -0.344 OA
ATOM     37  H2  UNL     1     -49.275  13.936  -8.688  1.00  0.00     0.219 HD
ENDBRANCH  28  36
ENDBRANCH  22  23
ENDBRANCH  21  22
ENDBRANCH  20  21
ENDBRANCH   1  20
TORSDOF 10
ENDMDL
MODEL 4
REMARK VINA RESULT: -8.354392129      2.917      5.523
REMARK  10 active torsions:
REMARK  status: ('A' for Active; 'I' for Inactive)
REMARK    1  A    between atoms: C3_3  and  C4_4 
REMARK    2  A    between atoms: C8_10  and  N2_11 
REMARK    3  A    between atoms: C9_16  and  N4_17 
REMARK    4  A    between atoms: N4_17  and  C10_19 
REMARK    5  A    between atoms: C10_19  and  C11_20 
REMARK    6  A    between atoms: C11_20  and  C12_21 
REMARK    7  A    between atoms: C12_21  and  C13_22 
REMARK    8  A    between atoms: C13_22  and  N5_23 
REMARK    9  A    between atoms: C14_24  and  O1_25 
REMARK   10  A    between atoms: C17_29  and  O2_30 
ROOT
HETATM    1  C10 UNL     1     -45.746  13.228 -12.925  1.00  0.00     0.121 C 
ENDROOT
BRANCH   1   2
HETATM    2  N4  UNL     1     -45.481  13.963 -14.119  1.00  0.00    -0.375 N 
ATOM      3  H4  UNL     1     -46.036  13.767 -14.952  1.00  0.00     0.161 HD
BRANCH   2   4
HETATM    4  C9  UNL     1     -44.562  14.866 -14.178  1.00  0.00     0.124 A 
HETATM    5  C2  UNL     1     -44.274  15.400 -15.454  1.00  0.00     0.006 A 
HETATM    6  C1  UNL     1     -45.025  14.885 -16.580  1.00  0.00     0.054 C 
HETATM    7  C3  UNL     1     -43.316  16.356 -15.590  1.00  0.00     0.043 A 
HETATM    8  N1  UNL     1     -42.681  16.745 -14.443  1.00  0.00    -0.194 N 
HETATM    9  C8  UNL     1     -42.965  16.233 -13.258  1.00  0.00     0.677 A 
ATOM     10  H1  UNL     1     -41.957  17.460 -14.505  1.00  0.00     0.184 HD
HETATM   11  N3  UNL     1     -43.915  15.280 -13.101  1.00  0.00    -0.177 N 
ATOM     12  H3  UNL     1     -44.125  14.893 -12.181  1.00  0.00     0.186 HD
BRANCH   7  13
HETATM   13  C4  UNL     1     -43.010  16.925 -16.903  1.00  0.00    -0.007 C 
HETATM   14  C5  UNL     1     -42.371  15.946 -17.846  1.00  0.00     0.021 C 
HETATM   15  C6  UNL     1     -41.917  17.991 -16.645  1.00  0.00     0.021 C 
HETATM   16  C7  UNL     1     -44.138  17.722 -17.515  1.00  0.00     0.021 C 
ENDBRANCH   7  13
BRANCH   9  17
HETATM   17  N2  UNL     1     -42.359  16.605 -12.173  1.00  0.00    -0.234 N 
ATOM     18  H22 UNL     1     -41.563  17.229 -12.304  1.00  0.00     0.174 HD
ATOM     19  H21 UNL     1     -42.653  16.297 -11.246  1.00  0.00     0.174 HD
ENDBRANCH   9  17
ENDBRANCH   2   4
ENDBRANCH   1   2
BRANCH   1  20
HETATM   20  C11 UNL     1     -47.209  13.235 -12.551  1.00  0.00     0.021 C 
BRANCH  20  21
HETATM   21  C12 UNL     1     -47.504  14.165 -11.409  1.00  0.00     0.022 C 
BRANCH  21  22
HETATM   22  C13 UNL     1     -46.531  13.805 -10.283  1.00  0.00     0.133 C 
BRANCH  22  23
HETATM   23  N5  UNL     1     -46.504  14.966  -9.396  1.00  0.00    -0.306 N 
HETATM   24  C14 UNL     1     -47.390  15.117  -8.378  1.00  0.00     0.153 A 
HETATM   25  C15 UNL     1     -47.120  16.297  -7.726  1.00  0.00     0.024 A 
HETATM   26  C16 UNL     1     -46.033  16.864  -8.384  1.00  0.00     0.090 A 
HETATM   27  C21 UNL     1     -47.844  16.855  -6.546  1.00  0.00     0.045 C 
HETATM   28  C17 UNL     1     -45.672  16.015  -9.418  1.00  0.00     0.172 A 
HETATM   29  N6  UNL     1     -45.400  18.093  -8.065  1.00  0.00    -0.386 N 
HETATM   30  C18 UNL     1     -45.937  19.187  -7.328  1.00  0.00     0.120 C 
ATOM     31  H6  UNL     1     -44.445  18.206  -8.404  1.00  0.00     0.159 HD
HETATM   32  C19 UNL     1     -46.460  18.885  -5.970  1.00  0.00     0.020 C 
HETATM   33  C20 UNL     1     -46.748  17.459  -5.665  1.00  0.00     0.006 C 
BRANCH  24  34
HETATM   34  O1  UNL     1     -48.400  14.247  -8.036  1.00  0.00    -0.345 OA
ATOM     35  H1  UNL     1     -48.326  13.304  -7.942  1.00  0.00     0.219 HD
ENDBRANCH  24  34
BRANCH  28  36
HETATM   36  O2  UNL     1     -44.648  16.228 -10.292  1.00  0.00    -0.344 OA
ATOM     37  H2  UNL     1     -44.100  17.002 -10.350  1.00  0.00     0.219 HD
ENDBRANCH  28  36
ENDBRANCH  22  23
ENDBRANCH  21  22
ENDBRANCH  20  21
ENDBRANCH   1  20
TORSDOF 10
ENDMDL
MODEL 5
REMARK VINA RESULT: -8.239483321      3.826      6.791
REMARK  10 active torsions:
REMARK  status: ('A' for Active; 'I' for Inactive)
REMARK    1  A    between atoms: C3_3  and  C4_4 
REMARK    2  A    between atoms: C8_10  and  N2_11 
REMARK    3  A    between atoms: C9_16  and  N4_17 
REMARK    4  A    between atoms: N4_17  and  C10_19 
REMARK    5  A    between atoms: C10_19  and  C11_20 
REMARK    6  A    between atoms: C11_20  and  C12_21 
REMARK    7  A    between atoms: C12_21  and  C13_22 
REMARK    8  A    between atoms: C13_22  and  N5_23 
REMARK    9  A    between atoms: C14_24  and  O1_25 
REMARK   10  A    between atoms: C17_29  and  O2_30 
ROOT
HETATM    1  C10 UNL     1     -43.609  15.658 -11.926  1.00  0.00     0.121 C 
ENDROOT
BRANCH   1   2
HETATM    2  N4  UNL     1     -42.487  15.776 -12.798  1.00  0.00    -0.375 N 
ATOM      3  H4  UNL     1     -42.023  14.928 -13.121  1.00  0.00     0.161 HD
BRANCH   2   4
HETATM    4  C9  UNL     1     -42.039  16.921 -13.190  1.00  0.00     0.124 A 
HETATM    5  C2  UNL     1     -41.866  17.096 -14.580  1.00  0.00     0.006 A 
HETATM    6  C1  UNL     1     -42.196  15.979 -15.442  1.00  0.00     0.054 C 
HETATM    7  C3  UNL     1     -41.397  18.278 -15.063  1.00  0.00     0.043 A 
HETATM    8  N1  UNL     1     -41.120  19.244 -14.136  1.00  0.00    -0.194 N 
HETATM    9  C8  UNL     1     -41.289  19.061 -12.838  1.00  0.00     0.677 A 
ATOM     10  H1  UNL     1     -40.767  20.144 -14.460  1.00  0.00     0.184 HD
HETATM   11  N3  UNL     1     -41.754  17.891 -12.337  1.00  0.00    -0.177 N 
ATOM     12  H3  UNL     1     -41.880  17.762 -11.333  1.00  0.00     0.186 HD
BRANCH   7  13
HETATM   13  C4  UNL     1     -41.218  18.479 -16.502  1.00  0.00    -0.007 C 
HETATM   14  C5  UNL     1     -40.092  17.673 -17.083  1.00  0.00     0.021 C 
HETATM   15  C6  UNL     1     -40.767  19.952 -16.659  1.00  0.00     0.021 C 
HETATM   16  C7  UNL     1     -42.497  18.417 -17.303  1.00  0.00     0.021 C 
ENDBRANCH   7  13
BRANCH   9  17
HETATM   17  N2  UNL     1     -41.024  19.981 -11.962  1.00  0.00    -0.234 N 
ATOM     18  H22 UNL     1     -40.750  20.886 -12.343  1.00  0.00     0.174 HD
ATOM     19  H21 UNL     1     -41.083  19.816 -10.957  1.00  0.00     0.174 HD
ENDBRANCH   9  17
ENDBRANCH   2   4
ENDBRANCH   1   2
BRANCH   1  20
HETATM   20  C11 UNL     1     -44.892  16.139 -12.562  1.00  0.00     0.021 C 
BRANCH  20  21
HETATM   21  C12 UNL     1     -46.110  15.555 -11.906  1.00  0.00     0.022 C 
BRANCH  21  22
HETATM   22  C13 UNL     1     -45.613  14.646 -10.779  1.00  0.00     0.133 C 
BRANCH  22  23
HETATM   23  N5  UNL     1     -46.333  15.072  -9.581  1.00  0.00    -0.306 N 
HETATM   24  C14 UNL     1     -47.413  14.396  -9.109  1.00  0.00     0.153 A 
HETATM   25  C15 UNL     1     -47.874  15.029  -7.980  1.00  0.00     0.024 A 
HETATM   26  C16 UNL     1     -47.035  16.121  -7.777  1.00  0.00     0.090 A 
HETATM   27  C21 UNL     1     -49.038  14.625  -7.138  1.00  0.00     0.045 C 
HETATM   28  C17 UNL     1     -46.087  16.122  -8.787  1.00  0.00     0.172 A 
HETATM   29  N6  UNL     1     -47.125  17.071  -6.727  1.00  0.00    -0.386 N 
HETATM   30  C18 UNL     1     -48.261  17.385  -5.928  1.00  0.00     0.120 C 
ATOM     31  H6  UNL     1     -46.273  17.593  -6.520  1.00  0.00     0.159 HD
HETATM   32  C19 UNL     1     -48.909  16.253  -5.214  1.00  0.00     0.020 C 
HETATM   33  C20 UNL     1     -48.588  14.886  -5.698  1.00  0.00     0.006 C 
BRANCH  24  34
HETATM   34  O1  UNL     1     -47.971  13.262  -9.655  1.00  0.00    -0.345 OA
ATOM     35  H1  UNL     1     -47.573  12.400  -9.695  1.00  0.00     0.219 HD
ENDBRANCH  24  34
BRANCH  28  36
HETATM   36  O2  UNL     1     -45.089  17.038  -8.931  1.00  0.00    -0.344 OA
ATOM     37  H2  UNL     1     -44.492  17.341  -8.256  1.00  0.00     0.219 HD
ENDBRANCH  28  36
ENDBRANCH  22  23
ENDBRANCH  21  22
ENDBRANCH  20  21
ENDBRANCH   1  20
TORSDOF 10
ENDMDL
