MODEL 1
REMARK VINA RESULT: -6.761831073      0.000      0.000
REMARK  2 active torsions:
REMARK  status: ('A' for Active; 'I' for Inactive)
REMARK       I    between atoms: C1_4  and  N3_6 
REMARK    1  A    between atoms: C5_11  and  C6_12 
REMARK       I    between atoms: C6_12  and  N5_14 
REMARK    2  A    between atoms: N5_14  and  N6_16 
ROOT
HETATM    1  N1  UNL     1       7.940 -10.565   6.470  1.00  0.00    -0.374 N 
ATOM      2  H11 UNL     1       8.783 -10.957   6.050  1.00  0.00     0.158 HD
ATOM      3  H12 UNL     1       7.937 -10.186   7.417  1.00  0.00     0.158 HD
HETATM    4  C1  UNL     1       6.861 -10.554   5.774  1.00  0.00     0.185 C 
HETATM    5  N2  UNL     1       5.694 -10.012   6.357  1.00  0.00    -0.064 NA
HETATM    6  N3  UNL     1       6.865 -11.072   4.483  1.00  0.00    -0.342 N 
HETATM    7  C2  UNL     1       7.119 -10.140   3.339  1.00  0.00     0.207 C 
HETATM    8  C3  UNL     1       6.920 -10.842   2.117  1.00  0.00    -0.143 C 
HETATM    9  C4  UNL     1       6.649 -11.859   1.160  1.00  0.00     0.208 C 
HETATM   10  N4  UNL     1       6.304 -13.112   1.857  1.00  0.00    -0.353 N 
HETATM   11  C5  UNL     1       6.660 -14.315   1.356  1.00  0.00     0.167 C 
HETATM   12  C7  UNL     1       5.808 -12.961   3.173  1.00  0.00     0.084 C 
HETATM   13  C8  UNL     1       6.634 -12.491   4.289  1.00  0.00     0.171 C 
ENDROOT
BRANCH  11  14
HETATM   14  C6  UNL     1       6.071 -14.889   0.151  1.00  0.00     0.274 C 
HETATM   15  O1  UNL     1       4.949 -15.458   0.245  1.00  0.00    -0.265 OA
HETATM   16  N5  UNL     1       6.637 -14.877  -1.148  1.00  0.00    -0.272 N 
ATOM     17  H5  UNL     1       7.543 -14.439  -1.318  1.00  0.00     0.189 HD
BRANCH  16  18
HETATM   18  N6  UNL     1       5.925 -15.480  -2.195  1.00  0.00    -0.342 N 
ATOM     19  H62 UNL     1       5.242 -16.209  -1.989  1.00  0.00     0.176 HD
ATOM     20  H61 UNL     1       6.108 -15.172  -3.149  1.00  0.00     0.176 HD
ENDBRANCH  16  18
ENDBRANCH  11  14
TORSDOF 2
ENDMDL
MODEL 2
REMARK VINA RESULT: -6.683979595      2.359      6.452
REMARK  2 active torsions:
REMARK  status: ('A' for Active; 'I' for Inactive)
REMARK       I    between atoms: C1_4  and  N3_6 
REMARK    1  A    between atoms: C5_11  and  C6_12 
REMARK       I    between atoms: C6_12  and  N5_14 
REMARK    2  A    between atoms: N5_14  and  N6_16 
ROOT
HETATM    1  N1  UNL     1       5.427 -16.866  -0.019  1.00  0.00    -0.374 N 
ATOM      2  H11 UNL     1       4.967 -17.094   0.862  1.00  0.00     0.158 HD
ATOM      3  H12 UNL     1       5.572 -17.564  -0.748  1.00  0.00     0.158 HD
HETATM    4  C1  UNL     1       5.827 -15.659  -0.201  1.00  0.00     0.185 C 
HETATM    5  N2  UNL     1       6.466 -15.343  -1.421  1.00  0.00    -0.064 NA
HETATM    6  N3  UNL     1       5.630 -14.707   0.793  1.00  0.00    -0.342 N 
HETATM    7  C2  UNL     1       4.395 -13.863   0.741  1.00  0.00     0.207 C 
HETATM    8  C3  UNL     1       4.476 -12.861   1.749  1.00  0.00    -0.143 C 
HETATM    9  C4  UNL     1       4.915 -12.057   2.836  1.00  0.00     0.208 C 
HETATM   10  N4  UNL     1       6.234 -12.530   3.298  1.00  0.00    -0.353 N 
HETATM   11  C5  UNL     1       6.578 -12.487   4.602  1.00  0.00     0.167 C 
HETATM   12  C7  UNL     1       6.994 -13.242   2.341  1.00  0.00     0.084 C 
HETATM   13  C8  UNL     1       6.618 -14.570   1.847  1.00  0.00     0.171 C 
ENDROOT
BRANCH  11  14
HETATM   14  C6  UNL     1       6.833 -11.246   5.326  1.00  0.00     0.274 C 
HETATM   15  O1  UNL     1       6.054 -10.271   5.137  1.00  0.00    -0.265 OA
HETATM   16  N5  UNL     1       7.887 -11.010   6.243  1.00  0.00    -0.272 N 
ATOM     17  H5  UNL     1       8.566 -11.741   6.457  1.00  0.00     0.189 HD
BRANCH  16  18
HETATM   18  N6  UNL     1       7.978  -9.749   6.849  1.00  0.00    -0.342 N 
ATOM     19  H62 UNL     1       8.769  -9.141   6.638  1.00  0.00     0.176 HD
ATOM     20  H61 UNL     1       7.242  -9.464   7.494  1.00  0.00     0.176 HD
ENDBRANCH  16  18
ENDBRANCH  11  14
TORSDOF 2
ENDMDL
MODEL 3
REMARK VINA RESULT: -6.209812465      2.713      6.908
REMARK  2 active torsions:
REMARK  status: ('A' for Active; 'I' for Inactive)
REMARK       I    between atoms: C1_4  and  N3_6 
REMARK    1  A    between atoms: C5_11  and  C6_12 
REMARK       I    between atoms: C6_12  and  N5_14 
REMARK    2  A    between atoms: N5_14  and  N6_16 
ROOT
HETATM    1  N1  UNL     1       6.294 -18.073  -1.105  1.00  0.00    -0.374 N 
ATOM      2  H11 UNL     1       7.269 -17.792  -1.006  1.00  0.00     0.158 HD
ATOM      3  H12 UNL     1       5.969 -18.617  -1.905  1.00  0.00     0.158 HD
HETATM    4  C1  UNL     1       5.464 -17.728  -0.188  1.00  0.00     0.185 C 
HETATM    5  N2  UNL     1       4.113 -18.117  -0.327  1.00  0.00    -0.064 NA
HETATM    6  N3  UNL     1       5.907 -16.986   0.902  1.00  0.00    -0.342 N 
HETATM    7  C2  UNL     1       6.330 -17.715   2.140  1.00  0.00     0.207 C 
HETATM    8  C3  UNL     1       6.589 -16.768   3.169  1.00  0.00    -0.143 C 
HETATM    9  C4  UNL     1       6.751 -15.554   3.893  1.00  0.00     0.208 C 
HETATM   10  N4  UNL     1       6.416 -14.413   3.021  1.00  0.00    -0.353 N 
HETATM   11  C5  UNL     1       7.072 -13.237   3.120  1.00  0.00     0.167 C 
HETATM   12  C7  UNL     1       5.554 -14.705   1.939  1.00  0.00     0.084 C 
HETATM   13  C8  UNL     1       5.953 -15.540   0.802  1.00  0.00     0.171 C 
ENDROOT
BRANCH  11  14
HETATM   14  C6  UNL     1       6.938 -12.334   4.259  1.00  0.00     0.274 C 
HETATM   15  O1  UNL     1       5.777 -12.011   4.633  1.00  0.00    -0.265 OA
HETATM   16  N5  UNL     1       7.997 -11.768   5.011  1.00  0.00    -0.272 N 
ATOM     17  H5  UNL     1       8.969 -11.974   4.780  1.00  0.00     0.189 HD
BRANCH  16  18
HETATM   18  N6  UNL     1       7.679 -10.918   6.080  1.00  0.00    -0.342 N 
ATOM     19  H62 UNL     1       6.929 -11.172   6.723  1.00  0.00     0.176 HD
ATOM     20  H61 UNL     1       8.211 -10.055   6.191  1.00  0.00     0.176 HD
ENDBRANCH  16  18
ENDBRANCH  11  14
TORSDOF 2
ENDMDL
MODEL 4
REMARK VINA RESULT: -6.197873699      2.460      2.935
REMARK  2 active torsions:
REMARK  status: ('A' for Active; 'I' for Inactive)
REMARK       I    between atoms: C1_4  and  N3_6 
REMARK    1  A    between atoms: C5_11  and  C6_12 
REMARK       I    between atoms: C6_12  and  N5_14 
REMARK    2  A    between atoms: N5_14  and  N6_16 
ROOT
HETATM    1  N1  UNL     1       7.539  -9.789   2.767  1.00  0.00    -0.374 N 
ATOM      2  H11 UNL     1       7.847  -9.996   1.817  1.00  0.00     0.158 HD
ATOM      3  H12 UNL     1       7.883  -8.977   3.279  1.00  0.00     0.158 HD
HETATM    4  C1  UNL     1       6.691 -10.580   3.318  1.00  0.00     0.185 C 
HETATM    5  N2  UNL     1       6.265 -10.293   4.634  1.00  0.00    -0.064 NA
HETATM    6  N3  UNL     1       6.222 -11.688   2.619  1.00  0.00    -0.342 N 
HETATM    7  C2  UNL     1       4.956 -11.553   1.831  1.00  0.00     0.207 C 
HETATM    8  C3  UNL     1       4.582 -12.834   1.335  1.00  0.00    -0.143 C 
HETATM    9  C4  UNL     1       4.562 -14.223   1.030  1.00  0.00     0.208 C 
HETATM   10  N4  UNL     1       5.728 -14.880   1.649  1.00  0.00    -0.353 N 
HETATM   11  C5  UNL     1       6.355 -15.912   1.045  1.00  0.00     0.167 C 
HETATM   12  C7  UNL     1       6.280 -14.213   2.767  1.00  0.00     0.084 C 
HETATM   13  C8  UNL     1       6.976 -12.927   2.668  1.00  0.00     0.171 C 
ENDROOT
BRANCH  11  14
HETATM   14  C6  UNL     1       5.761 -17.236   0.893  1.00  0.00     0.274 C 
HETATM   15  O1  UNL     1       4.956 -17.425  -0.061  1.00  0.00    -0.265 OA
HETATM   16  N5  UNL     1       5.996 -18.362   1.719  1.00  0.00    -0.272 N 
ATOM     17  H5  UNL     1       6.632 -18.301   2.515  1.00  0.00     0.189 HD
BRANCH  16  18
HETATM   18  N6  UNL     1       5.335 -19.562   1.421  1.00  0.00    -0.342 N 
ATOM     19  H62 UNL     1       4.390 -19.720   1.771  1.00  0.00     0.176 HD
ATOM     20  H61 UNL     1       5.819 -20.257   0.853  1.00  0.00     0.176 HD
ENDBRANCH  16  18
ENDBRANCH  11  14
TORSDOF 2
ENDMDL
MODEL 5
REMARK VINA RESULT: -6.120451196      2.551      6.379
REMARK  2 active torsions:
REMARK  status: ('A' for Active; 'I' for Inactive)
REMARK       I    between atoms: C1_4  and  N3_6 
REMARK    1  A    between atoms: C5_11  and  C6_12 
REMARK       I    between atoms: C6_12  and  N5_14 
REMARK    2  A    between atoms: N5_14  and  N6_16 
ROOT
HETATM    1  N1  UNL     1       5.499 -17.020   0.412  1.00  0.00    -0.374 N 
ATOM      2  H11 UNL     1       4.603 -16.688   0.768  1.00  0.00     0.158 HD
ATOM      3  H12 UNL     1       5.591 -17.921  -0.058  1.00  0.00     0.158 HD
HETATM    4  C1  UNL     1       6.529 -16.270   0.563  1.00  0.00     0.185 C 
HETATM    5  N2  UNL     1       7.771 -16.729   0.070  1.00  0.00    -0.064 NA
HETATM    6  N3  UNL     1       6.403 -15.041   1.204  1.00  0.00    -0.342 N 
HETATM    7  C2  UNL     1       6.155 -13.822   0.371  1.00  0.00     0.207 C 
HETATM    8  C3  UNL     1       6.219 -12.671   1.205  1.00  0.00    -0.143 C 
HETATM    9  C4  UNL     1       6.347 -11.811   2.331  1.00  0.00     0.208 C 
HETATM   10  N4  UNL     1       6.632 -12.615   3.535  1.00  0.00    -0.353 N 
HETATM   11  C5  UNL     1       6.150 -12.261   4.745  1.00  0.00     0.167 C 
HETATM   12  C7  UNL     1       7.220 -13.879   3.298  1.00  0.00     0.084 C 
HETATM   13  C8  UNL     1       6.507 -14.984   2.650  1.00  0.00     0.171 C 
ENDROOT
BRANCH  11  14
HETATM   14  C6  UNL     1       6.614 -11.092   5.485  1.00  0.00     0.274 C 
HETATM   15  O1  UNL     1       5.855 -10.086   5.552  1.00  0.00    -0.265 OA
HETATM   16  N5  UNL     1       7.855 -10.960   6.155  1.00  0.00    -0.272 N 
ATOM     17  H5  UNL     1       8.532 -11.723   6.154  1.00  0.00     0.189 HD
BRANCH  16  18
HETATM   18  N6  UNL     1       8.133  -9.757   6.819  1.00  0.00    -0.342 N 
ATOM     19  H62 UNL     1       7.610  -8.915   6.582  1.00  0.00     0.176 HD
ATOM     20  H61 UNL     1       8.860  -9.752   7.534  1.00  0.00     0.176 HD
ENDBRANCH  16  18
ENDBRANCH  11  14
TORSDOF 2
ENDMDL
