MODEL 1
REMARK VINA RESULT: -7.008500692      0.000      0.000
REMARK  5 active torsions:
REMARK  status: ('A' for Active; 'I' for Inactive)
REMARK    1  A    between atoms: N1_1  and  N2_4 
REMARK    2  A    between atoms: N2_4  and  C1_6 
REMARK       I    between atoms: N5_12  and  C3_14 
REMARK    3  A    between atoms: C3_14  and  C4_16 
REMARK    4  A    between atoms: C4_16  and  N6_17 
REMARK    5  A    between atoms: C4_16  and  C5_21 
ROOT
HETATM    1  C1  UNL     1       5.765 -14.468   0.498  1.00  0.00     0.181 A 
HETATM    2  N3  UNL     1       5.473 -13.230   0.896  1.00  0.00    -0.277 N 
ATOM      3  H3  UNL     1       4.989 -12.587   0.269  1.00  0.00     0.189 HD
HETATM    4  N4  UNL     1       5.806 -12.859   2.072  1.00  0.00    -0.277 N 
ATOM      5  H4  UNL     1       5.591 -11.917   2.397  1.00  0.00     0.189 HD
HETATM    6  C2  UNL     1       6.438 -13.719   2.867  1.00  0.00     0.169 A 
HETATM    7  N5  UNL     1       6.865 -13.547   4.095  1.00  0.00    -0.304 N 
ATOM      8  H5  UNL     1       7.339 -14.295   4.602  1.00  0.00     0.171 HD
HETATM    9  C3  UNL     1       6.642 -12.284   4.690  1.00  0.00     0.263 C 
HETATM   10  O1  UNL     1       5.546 -11.951   5.220  1.00  0.00    -0.270 OA
HETATM   11  S1  UNL     1       6.547 -15.107   1.874  1.00  0.00    -0.014 SA
ENDROOT
BRANCH   9  12
HETATM   12  C4  UNL     1       7.748 -11.299   4.695  1.00  0.00     0.363 C 
BRANCH  12  13
HETATM   13  N6  UNL     1       7.625 -10.473   5.863  1.00  0.00    -0.058 N 
ATOM     14  H63 UNL     1       7.870 -10.970   6.719  1.00  0.00     0.275 HD
ATOM     15  H62 UNL     1       8.345  -9.752   5.907  1.00  0.00     0.275 HD
ATOM     16  H61 UNL     1       6.683 -10.084   5.893  1.00  0.00     0.275 HD
ENDBRANCH  12  13
BRANCH  12  17
HETATM   17  C5  UNL     1       7.695 -10.515   3.443  1.00  0.00     0.271 C 
HETATM   18  N7  UNL     1       6.563  -9.750   3.118  1.00  0.00    -0.060 NA
HETATM   19  O2  UNL     1       8.676 -10.538   2.670  1.00  0.00    -0.274 OA
ENDBRANCH  12  17
ENDBRANCH   9  12
BRANCH   1  20
HETATM   20  N2  UNL     1       5.517 -15.048  -0.653  1.00  0.00    -0.285 N 
ATOM     21  H2  UNL     1       4.626 -15.512  -0.827  1.00  0.00     0.188 HD
BRANCH  20  22
HETATM   22  N1  UNL     1       6.497 -15.009  -1.616  1.00  0.00    -0.343 N 
ATOM     23  H12 UNL     1       7.123 -15.804  -1.742  1.00  0.00     0.176 HD
ATOM     24  H11 UNL     1       6.570 -14.167  -2.188  1.00  0.00     0.176 HD
ENDBRANCH  20  22
ENDBRANCH   1  20
TORSDOF 5
ENDMDL
MODEL 2
REMARK VINA RESULT: -6.848572940      1.527      2.378
REMARK  5 active torsions:
REMARK  status: ('A' for Active; 'I' for Inactive)
REMARK    1  A    between atoms: N1_1  and  N2_4 
REMARK    2  A    between atoms: N2_4  and  C1_6 
REMARK       I    between atoms: N5_12  and  C3_14 
REMARK    3  A    between atoms: C3_14  and  C4_16 
REMARK    4  A    between atoms: C4_16  and  N6_17 
REMARK    5  A    between atoms: C4_16  and  C5_21 
ROOT
HETATM    1  C1  UNL     1       5.426 -14.100   0.403  1.00  0.00     0.181 A 
HETATM    2  N3  UNL     1       6.504 -13.324   0.523  1.00  0.00    -0.277 N 
ATOM      3  H3  UNL     1       7.284 -13.421  -0.127  1.00  0.00     0.189 HD
HETATM    4  N4  UNL     1       6.547 -12.459   1.462  1.00  0.00    -0.277 N 
ATOM      5  H4  UNL     1       7.361 -11.855   1.571  1.00  0.00     0.189 HD
HETATM    6  C2  UNL     1       5.515 -12.356   2.296  1.00  0.00     0.169 A 
HETATM    7  N5  UNL     1       5.354 -11.546   3.314  1.00  0.00    -0.304 N 
ATOM      8  H5  UNL     1       4.506 -11.567   3.880  1.00  0.00     0.171 HD
HETATM    9  C3  UNL     1       6.403 -10.642   3.598  1.00  0.00     0.263 C 
HETATM   10  O1  UNL     1       6.559  -9.548   2.988  1.00  0.00    -0.270 OA
HETATM   11  S1  UNL     1       4.452 -13.552   1.693  1.00  0.00    -0.014 SA
ENDROOT
BRANCH   9  12
HETATM   12  C4  UNL     1       7.370 -10.991   4.664  1.00  0.00     0.363 C 
BRANCH  12  13
HETATM   13  N6  UNL     1       7.474 -12.420   4.745  1.00  0.00    -0.058 N 
ATOM     14  H63 UNL     1       6.562 -12.876   4.771  1.00  0.00     0.275 HD
ATOM     15  H62 UNL     1       7.814 -12.836   3.878  1.00  0.00     0.275 HD
ATOM     16  H61 UNL     1       8.055 -12.663   5.548  1.00  0.00     0.275 HD
ENDBRANCH  12  13
BRANCH  12  17
HETATM   17  C5  UNL     1       6.920 -10.386   5.935  1.00  0.00     0.271 C 
HETATM   18  N7  UNL     1       7.824 -10.159   6.986  1.00  0.00    -0.060 NA
HETATM   19  O2  UNL     1       5.718 -10.075   6.068  1.00  0.00    -0.274 OA
ENDBRANCH  12  17
ENDBRANCH   9  12
BRANCH   1  20
HETATM   20  N2  UNL     1       5.177 -15.040  -0.478  1.00  0.00    -0.285 N 
ATOM     21  H2  UNL     1       4.371 -15.657  -0.375  1.00  0.00     0.188 HD
BRANCH  20  22
HETATM   22  N1  UNL     1       6.037 -15.166  -1.543  1.00  0.00    -0.343 N 
ATOM     23  H12 UNL     1       6.622 -14.379  -1.825  1.00  0.00     0.176 HD
ATOM     24  H11 UNL     1       6.064 -16.062  -2.029  1.00  0.00     0.176 HD
ENDBRANCH  20  22
ENDBRANCH   1  20
TORSDOF 5
ENDMDL
MODEL 3
REMARK VINA RESULT: -6.642430015      2.489      5.814
REMARK  5 active torsions:
REMARK  status: ('A' for Active; 'I' for Inactive)
REMARK    1  A    between atoms: N1_1  and  N2_4 
REMARK    2  A    between atoms: N2_4  and  C1_6 
REMARK       I    between atoms: N5_12  and  C3_14 
REMARK    3  A    between atoms: C3_14  and  C4_16 
REMARK    4  A    between atoms: C4_16  and  N6_17 
REMARK    5  A    between atoms: C4_16  and  C5_21 
ROOT
HETATM    1  C1  UNL     1       7.339 -11.201   4.874  1.00  0.00     0.181 A 
HETATM    2  N3  UNL     1       6.941 -12.472   4.825  1.00  0.00    -0.277 N 
ATOM      3  H3  UNL     1       7.074 -13.086   5.629  1.00  0.00     0.189 HD
HETATM    4  N4  UNL     1       6.391 -12.911   3.759  1.00  0.00    -0.277 N 
ATOM      5  H4  UNL     1       6.078 -13.880   3.701  1.00  0.00     0.189 HD
HETATM    6  C2  UNL     1       6.231 -12.088   2.726  1.00  0.00     0.169 A 
HETATM    7  N5  UNL     1       5.698 -12.330   1.553  1.00  0.00    -0.304 N 
ATOM      8  H5  UNL     1       5.634 -11.603   0.840  1.00  0.00     0.171 HD
HETATM    9  C3  UNL     1       5.215 -13.636   1.315  1.00  0.00     0.263 C 
HETATM   10  O1  UNL     1       4.085 -14.040   1.707  1.00  0.00    -0.270 OA
HETATM   11  S1  UNL     1       6.900 -10.633   3.326  1.00  0.00    -0.014 SA
ENDROOT
BRANCH   9  12
HETATM   12  C4  UNL     1       6.074 -14.584   0.567  1.00  0.00     0.363 C 
BRANCH  12  13
HETATM   13  N6  UNL     1       5.458 -14.868  -0.697  1.00  0.00    -0.058 N 
ATOM     14  H63 UNL     1       4.978 -15.768  -0.702  1.00  0.00     0.275 HD
ATOM     15  H62 UNL     1       4.649 -14.275  -0.878  1.00  0.00     0.275 HD
ATOM     16  H61 UNL     1       6.164 -14.798  -1.430  1.00  0.00     0.275 HD
ENDBRANCH  12  13
BRANCH  12  17
HETATM   17  C5  UNL     1       6.269 -15.799   1.385  1.00  0.00     0.271 C 
HETATM   18  N7  UNL     1       5.685 -17.021   1.012  1.00  0.00    -0.060 NA
HETATM   19  O2  UNL     1       6.964 -15.731   2.420  1.00  0.00    -0.274 OA
ENDBRANCH  12  17
ENDBRANCH   9  12
BRANCH   1  20
HETATM   20  N2  UNL     1       7.918 -10.552   5.858  1.00  0.00    -0.285 N 
ATOM     21  H2  UNL     1       8.932 -10.452   5.897  1.00  0.00     0.188 HD
BRANCH  20  22
HETATM   22  N1  UNL     1       7.113 -10.012   6.833  1.00  0.00    -0.343 N 
ATOM     23  H12 UNL     1       6.269 -10.503   7.130  1.00  0.00     0.176 HD
ATOM     24  H11 UNL     1       7.391  -9.119   7.239  1.00  0.00     0.176 HD
ENDBRANCH  20  22
ENDBRANCH   1  20
TORSDOF 5
ENDMDL
MODEL 4
REMARK VINA RESULT: -6.589193179      2.986      5.982
REMARK  5 active torsions:
REMARK  status: ('A' for Active; 'I' for Inactive)
REMARK    1  A    between atoms: N1_1  and  N2_4 
REMARK    2  A    between atoms: N2_4  and  C1_6 
REMARK       I    between atoms: N5_12  and  C3_14 
REMARK    3  A    between atoms: C3_14  and  C4_16 
REMARK    4  A    between atoms: C4_16  and  N6_17 
REMARK    5  A    between atoms: C4_16  and  C5_21 
ROOT
HETATM    1  C1  UNL     1       7.444 -12.390   4.237  1.00  0.00     0.181 A 
HETATM    2  N3  UNL     1       7.149 -13.660   3.964  1.00  0.00    -0.277 N 
ATOM      3  H3  UNL     1       7.290 -14.387   4.667  1.00  0.00     0.189 HD
HETATM    4  N4  UNL     1       6.685 -13.958   2.811  1.00  0.00    -0.277 N 
ATOM      5  H4  UNL     1       6.452 -14.924   2.582  1.00  0.00     0.189 HD
HETATM    6  C2  UNL     1       6.512 -12.990   1.914  1.00  0.00     0.169 A 
HETATM    7  N5  UNL     1       6.055 -13.075   0.688  1.00  0.00    -0.304 N 
ATOM      8  H5  UNL     1       5.969 -12.248   0.096  1.00  0.00     0.171 HD
HETATM    9  C3  UNL     1       5.687 -14.355   0.217  1.00  0.00     0.263 C 
HETATM   10  O1  UNL     1       4.574 -14.894   0.472  1.00  0.00    -0.270 OA
HETATM   11  S1  UNL     1       7.036 -11.610   2.775  1.00  0.00    -0.014 SA
ENDROOT
BRANCH   9  12
HETATM   12  C4  UNL     1       6.651 -15.107  -0.619  1.00  0.00     0.363 C 
BRANCH  12  13
HETATM   13  N6  UNL     1       6.123 -15.218  -1.948  1.00  0.00    -0.058 N 
ATOM     14  H63 UNL     1       6.418 -16.076  -2.414  1.00  0.00     0.275 HD
ATOM     15  H62 UNL     1       5.118 -15.391  -1.955  1.00  0.00     0.275 HD
ATOM     16  H61 UNL     1       6.378 -14.382  -2.474  1.00  0.00     0.275 HD
ENDBRANCH  12  13
BRANCH  12  17
HETATM   17  C5  UNL     1       6.895 -16.427   0.002  1.00  0.00     0.271 C 
HETATM   18  N7  UNL     1       7.542 -16.531   1.244  1.00  0.00    -0.060 NA
HETATM   19  O2  UNL     1       6.516 -17.457  -0.592  1.00  0.00    -0.274 OA
ENDBRANCH  12  17
ENDBRANCH   9  12
BRANCH   1  20
HETATM   20  N2  UNL     1       7.924 -11.871   5.344  1.00  0.00    -0.285 N 
ATOM     21  H2  UNL     1       8.504 -12.423   5.975  1.00  0.00     0.188 HD
BRANCH  20  22
HETATM   22  N1  UNL     1       7.619 -10.560   5.623  1.00  0.00    -0.343 N 
ATOM     23  H12 UNL     1       6.974 -10.045   5.023  1.00  0.00     0.176 HD
ATOM     24  H11 UNL     1       8.055 -10.133   6.440  1.00  0.00     0.176 HD
ENDBRANCH  20  22
ENDBRANCH   1  20
TORSDOF 5
ENDMDL
MODEL 5
REMARK VINA RESULT: -6.487929510      2.679      3.590
REMARK  5 active torsions:
REMARK  status: ('A' for Active; 'I' for Inactive)
REMARK    1  A    between atoms: N1_1  and  N2_4 
REMARK    2  A    between atoms: N2_4  and  C1_6 
REMARK       I    between atoms: N5_12  and  C3_14 
REMARK    3  A    between atoms: C3_14  and  C4_16 
REMARK    4  A    between atoms: C4_16  and  N6_17 
REMARK    5  A    between atoms: C4_16  and  C5_21 
ROOT
HETATM    1  C1  UNL     1       7.211 -15.725  -2.577  1.00  0.00     0.181 A 
HETATM    2  N3  UNL     1       6.274 -15.018  -1.947  1.00  0.00    -0.277 N 
ATOM      3  H3  UNL     1       5.557 -14.521  -2.476  1.00  0.00     0.189 HD
HETATM    4  N4  UNL     1       6.285 -14.969  -0.670  1.00  0.00    -0.277 N 
ATOM      5  H4  UNL     1       5.576 -14.434  -0.167  1.00  0.00     0.189 HD
HETATM    6  C2  UNL     1       7.232 -15.625  -0.005  1.00  0.00     0.169 A 
HETATM    7  N5  UNL     1       7.425 -15.708   1.289  1.00  0.00    -0.304 N 
ATOM      8  H5  UNL     1       8.197 -16.251   1.677  1.00  0.00     0.171 HD
HETATM    9  C3  UNL     1       6.523 -15.015   2.127  1.00  0.00     0.263 C 
HETATM   10  O1  UNL     1       5.391 -15.470   2.453  1.00  0.00    -0.270 OA
HETATM   11  S1  UNL     1       8.130 -16.335  -1.275  1.00  0.00    -0.014 SA
ENDROOT
BRANCH   9  12
HETATM   12  C4  UNL     1       6.919 -13.689   2.653  1.00  0.00     0.363 C 
BRANCH  12  13
HETATM   13  N6  UNL     1       7.050 -13.777   4.079  1.00  0.00    -0.058 N 
ATOM     14  H63 UNL     1       6.336 -14.371   4.500  1.00  0.00     0.275 HD
ATOM     15  H62 UNL     1       7.868 -14.317   4.363  1.00  0.00     0.275 HD
ATOM     16  H61 UNL     1       7.052 -12.834   4.468  1.00  0.00     0.275 HD
ENDBRANCH  12  13
BRANCH  12  17
HETATM   17  C5  UNL     1       5.910 -12.690   2.241  1.00  0.00     0.271 C 
HETATM   18  N7  UNL     1       5.128 -12.019   3.195  1.00  0.00    -0.060 NA
HETATM   19  O2  UNL     1       5.758 -12.445   1.026  1.00  0.00    -0.274 OA
ENDBRANCH  12  17
ENDBRANCH   9  12
BRANCH   1  20
HETATM   20  N2  UNL     1       7.383 -15.908  -3.866  1.00  0.00    -0.285 N 
ATOM     21  H2  UNL     1       8.071 -15.365  -4.387  1.00  0.00     0.188 HD
BRANCH  20  22
HETATM   22  N1  UNL     1       6.605 -16.855  -4.490  1.00  0.00    -0.343 N 
ATOM     23  H12 UNL     1       5.931 -17.399  -3.951  1.00  0.00     0.176 HD
ATOM     24  H11 UNL     1       6.729 -16.988  -5.493  1.00  0.00     0.176 HD
ENDBRANCH  20  22
ENDBRANCH   1  20
TORSDOF 5
ENDMDL
