MODEL 1
REMARK VINA RESULT: -8.424812149      0.000      0.000
REMARK  4 active torsions:
REMARK  status: ('A' for Active; 'I' for Inactive)
REMARK    1  A    between atoms: C3_3  and  C4_4 
REMARK    2  A    between atoms: C4_4  and  N1_5 
REMARK    3  A    between atoms: C7_12  and  N4_13 
REMARK    4  A    between atoms: C8_18  and  N6_19 
ROOT
HETATM    1  C1  UNL     1       7.440  -9.723   7.162  1.00  0.00     0.017 C 
HETATM    2  C2  UNL     1       7.401 -10.218   6.054  1.00  0.00    -0.051 C 
HETATM    3  C3  UNL     1       7.336 -10.805   4.689  1.00  0.00     0.258 A 
HETATM    4  N7  UNL     1       8.319 -10.630   3.763  1.00  0.00    -0.249 N 
ATOM      5  H7  UNL     1       8.670 -10.076   2.982  1.00  0.00     0.192 HD
HETATM    6  O1  UNL     1       8.509 -11.673   4.567  1.00  0.00    -0.231 OA
ENDROOT
BRANCH   3   7
HETATM    7  C4  UNL     1       6.067 -11.617   4.383  1.00  0.00     0.210 C 
BRANCH   7   8
HETATM    8  N1  UNL     1       5.931 -11.961   3.028  1.00  0.00    -0.331 N 
HETATM    9  C5  UNL     1       5.408 -11.162   2.084  1.00  0.00     0.185 A 
HETATM   10  N2  UNL     1       5.438 -11.768   0.892  1.00  0.00    -0.336 N 
HETATM   11  C6  UNL     1       5.996 -13.004   1.056  1.00  0.00     0.152 A 
ATOM     12  H2  UNL     1       5.102 -11.376   0.012  1.00  0.00     0.168 HD
HETATM   13  N3  UNL     1       6.250 -13.997   0.192  1.00  0.00    -0.174 N 
HETATM   14  C9  UNL     1       6.297 -13.094   2.424  1.00  0.00     0.125 A 
HETATM   15  C7  UNL     1       6.812 -15.121   0.651  1.00  0.00     0.679 A 
ATOM     16  H3  UNL     1       6.018 -13.898  -0.796  1.00  0.00     0.186 HD
HETATM   17  N5  UNL     1       7.125 -15.277   1.942  1.00  0.00    -0.175 N 
HETATM   18  C8  UNL     1       6.873 -14.285   2.814  1.00  0.00     0.145 A 
ATOM     19  H5  UNL     1       7.553 -16.145   2.263  1.00  0.00     0.186 HD
BRANCH  15  20
HETATM   20  N4  UNL     1       7.064 -16.092  -0.171  1.00  0.00    -0.234 N 
ATOM     21  H42 UNL     1       7.250 -17.020   0.210  1.00  0.00     0.174 HD
ATOM     22  H41 UNL     1       7.073 -15.911  -1.175  1.00  0.00     0.174 HD
ENDBRANCH  15  20
BRANCH  18  23
HETATM   23  N6  UNL     1       7.163 -14.438   4.054  1.00  0.00    -0.383 N 
ATOM     24  H62 UNL     1       7.657 -15.287   4.331  1.00  0.00     0.157 HD
ATOM     25  H61 UNL     1       6.905 -13.718   4.728  1.00  0.00     0.157 HD
ENDBRANCH  18  23
ENDBRANCH   7   8
ENDBRANCH   3   7
TORSDOF 4
ENDMDL
MODEL 2
REMARK VINA RESULT: -7.643531627      2.235      5.129
REMARK  4 active torsions:
REMARK  status: ('A' for Active; 'I' for Inactive)
REMARK    1  A    between atoms: C3_3  and  C4_4 
REMARK    2  A    between atoms: C4_4  and  N1_5 
REMARK    3  A    between atoms: C7_12  and  N4_13 
REMARK    4  A    between atoms: C8_18  and  N6_19 
ROOT
HETATM    1  C1  UNL     1       7.808 -16.899   1.428  1.00  0.00     0.017 C 
HETATM    2  C2  UNL     1       7.129 -15.970   1.041  1.00  0.00    -0.051 C 
HETATM    3  C3  UNL     1       6.312 -14.815   0.581  1.00  0.00     0.258 A 
HETATM    4  N7  UNL     1       6.495 -14.216  -0.628  1.00  0.00    -0.249 N 
ATOM      5  H7  UNL     1       6.958 -13.476  -1.155  1.00  0.00     0.192 HD
HETATM    6  O1  UNL     1       5.658 -15.250  -0.655  1.00  0.00    -0.231 OA
ENDROOT
BRANCH   3   7
HETATM    7  C4  UNL     1       5.247 -14.326   1.576  1.00  0.00     0.210 C 
BRANCH   7   8
HETATM    8  N1  UNL     1       5.401 -12.982   1.953  1.00  0.00    -0.331 N 
HETATM    9  C5  UNL     1       4.853 -11.939   1.308  1.00  0.00     0.185 A 
HETATM   10  N2  UNL     1       5.167 -10.794   1.924  1.00  0.00    -0.336 N 
HETATM   11  C6  UNL     1       5.945 -11.092   3.007  1.00  0.00     0.152 A 
ATOM     12  H2  UNL     1       4.876  -9.860   1.635  1.00  0.00     0.168 HD
HETATM   13  N3  UNL     1       6.519 -10.320   3.940  1.00  0.00    -0.174 N 
HETATM   14  C9  UNL     1       6.074 -12.489   2.995  1.00  0.00     0.125 A 
HETATM   15  C7  UNL     1       7.245 -10.903   4.900  1.00  0.00     0.679 A 
ATOM     16  H3  UNL     1       6.404  -9.306   3.919  1.00  0.00     0.186 HD
HETATM   17  N5  UNL     1       7.412 -12.229   4.950  1.00  0.00    -0.175 N 
HETATM   18  C8  UNL     1       6.839 -13.010   4.017  1.00  0.00     0.145 A 
ATOM     19  H5  UNL     1       7.971 -12.646   5.694  1.00  0.00     0.186 HD
BRANCH  15  20
HETATM   20  N4  UNL     1       7.807 -10.171   5.811  1.00  0.00    -0.234 N 
ATOM     21  H42 UNL     1       7.529 -10.302   6.784  1.00  0.00     0.174 HD
ATOM     22  H41 UNL     1       8.511  -9.483   5.540  1.00  0.00     0.174 HD
ENDBRANCH  15  20
BRANCH  18  23
HETATM   23  N6  UNL     1       7.008 -14.280   4.059  1.00  0.00    -0.383 N 
ATOM     24  H62 UNL     1       7.761 -14.646   4.643  1.00  0.00     0.157 HD
ATOM     25  H61 UNL     1       6.393 -14.891   3.523  1.00  0.00     0.157 HD
ENDBRANCH  18  23
ENDBRANCH   7   8
ENDBRANCH   3   7
TORSDOF 4
ENDMDL
MODEL 3
REMARK VINA RESULT: -7.181635917      1.367      1.768
REMARK  4 active torsions:
REMARK  status: ('A' for Active; 'I' for Inactive)
REMARK    1  A    between atoms: C3_3  and  C4_4 
REMARK    2  A    between atoms: C4_4  and  N1_5 
REMARK    3  A    between atoms: C7_12  and  N4_13 
REMARK    4  A    between atoms: C8_18  and  N6_19 
ROOT
HETATM    1  C1  UNL     1       8.458 -10.472   2.055  1.00  0.00     0.017 C 
HETATM    2  C2  UNL     1       8.030 -10.944   3.088  1.00  0.00    -0.051 C 
HETATM    3  C3  UNL     1       7.510 -11.548   4.344  1.00  0.00     0.258 A 
HETATM    4  N7  UNL     1       8.266 -11.678   5.469  1.00  0.00    -0.249 N 
ATOM      5  H7  UNL     1       8.892 -12.268   6.016  1.00  0.00     0.192 HD
HETATM    6  O1  UNL     1       7.634 -10.512   5.371  1.00  0.00    -0.231 OA
ENDROOT
BRANCH   3   7
HETATM    7  C4  UNL     1       6.054 -12.036   4.284  1.00  0.00     0.210 C 
BRANCH   7   8
HETATM    8  N1  UNL     1       5.638 -12.419   2.998  1.00  0.00    -0.331 N 
HETATM    9  C5  UNL     1       4.966 -11.629   2.145  1.00  0.00     0.185 A 
HETATM   10  N2  UNL     1       4.736 -12.276   0.996  1.00  0.00    -0.336 N 
HETATM   11  C6  UNL     1       5.273 -13.528   1.097  1.00  0.00     0.152 A 
ATOM     12  H2  UNL     1       4.246 -11.899   0.185  1.00  0.00     0.168 HD
HETATM   13  N3  UNL     1       5.314 -14.559   0.242  1.00  0.00    -0.174 N 
HETATM   14  C9  UNL     1       5.837 -13.585   2.381  1.00  0.00     0.125 A 
HETATM   15  C7  UNL     1       5.916 -15.690   0.627  1.00  0.00     0.679 A 
ATOM     16  H3  UNL     1       4.894 -14.483  -0.684  1.00  0.00     0.186 HD
HETATM   17  N5  UNL     1       6.474 -15.816   1.835  1.00  0.00    -0.175 N 
HETATM   18  C8  UNL     1       6.437 -14.786   2.699  1.00  0.00     0.145 A 
ATOM     19  H5  UNL     1       6.927 -16.691   2.101  1.00  0.00     0.186 HD
BRANCH  15  20
HETATM   20  N4  UNL     1       5.966 -16.698  -0.189  1.00  0.00    -0.234 N 
ATOM     21  H42 UNL     1       5.117 -17.241  -0.346  1.00  0.00     0.174 HD
ATOM     22  H41 UNL     1       6.845 -16.927  -0.652  1.00  0.00     0.174 HD
ENDBRANCH  15  20
BRANCH  18  23
HETATM   23  N6  UNL     1       6.962 -14.910   3.862  1.00  0.00    -0.383 N 
ATOM     24  H62 UNL     1       7.966 -15.080   3.921  1.00  0.00     0.157 HD
ATOM     25  H61 UNL     1       6.376 -14.832   4.693  1.00  0.00     0.157 HD
ENDBRANCH  18  23
ENDBRANCH   7   8
ENDBRANCH   3   7
TORSDOF 4
ENDMDL
MODEL 4
REMARK VINA RESULT: -6.935694763      2.389      5.998
REMARK  4 active torsions:
REMARK  status: ('A' for Active; 'I' for Inactive)
REMARK    1  A    between atoms: C3_3  and  C4_4 
REMARK    2  A    between atoms: C4_4  and  N1_5 
REMARK    3  A    between atoms: C7_12  and  N4_13 
REMARK    4  A    between atoms: C8_18  and  N6_19 
ROOT
HETATM    1  C1  UNL     1       4.888 -18.273  -0.259  1.00  0.00     0.017 C 
HETATM    2  C2  UNL     1       5.419 -17.181  -0.242  1.00  0.00    -0.051 C 
HETATM    3  C3  UNL     1       6.080 -15.850  -0.196  1.00  0.00     0.258 A 
HETATM    4  N7  UNL     1       7.241 -15.579  -0.854  1.00  0.00    -0.249 N 
ATOM      5  H7  UNL     1       8.259 -15.547  -0.815  1.00  0.00     0.192 HD
HETATM    6  O1  UNL     1       6.144 -15.384  -1.582  1.00  0.00    -0.231 OA
ENDROOT
BRANCH   3   7
HETATM    7  C4  UNL     1       5.369 -14.793   0.665  1.00  0.00     0.210 C 
BRANCH   7   8
HETATM    8  N1  UNL     1       5.977 -14.580   1.913  1.00  0.00    -0.331 N 
HETATM    9  C5  UNL     1       6.311 -15.551   2.778  1.00  0.00     0.185 A 
HETATM   10  N2  UNL     1       6.891 -15.028   3.864  1.00  0.00    -0.336 N 
HETATM   11  C6  UNL     1       6.940 -13.672   3.710  1.00  0.00     0.152 A 
ATOM     12  H2  UNL     1       7.237 -15.551   4.668  1.00  0.00     0.168 HD
HETATM   13  N3  UNL     1       7.411 -12.694   4.497  1.00  0.00    -0.174 N 
HETATM   14  C9  UNL     1       6.351 -13.421   2.461  1.00  0.00     0.125 A 
HETATM   15  C7  UNL     1       7.316 -11.428   4.077  1.00  0.00     0.679 A 
ATOM     16  H3  UNL     1       7.833 -12.912   5.399  1.00  0.00     0.186 HD
HETATM   17  N5  UNL     1       6.766 -11.115   2.899  1.00  0.00    -0.175 N 
HETATM   18  C8  UNL     1       6.291 -12.090   2.103  1.00  0.00     0.145 A 
ATOM     19  H5  UNL     1       6.708 -10.140   2.604  1.00  0.00     0.186 HD
BRANCH  15  20
HETATM   20  N4  UNL     1       7.767 -10.470   4.826  1.00  0.00    -0.234 N 
ATOM     21  H42 UNL     1       8.730 -10.522   5.159  1.00  0.00     0.174 HD
ATOM     22  H41 UNL     1       7.156  -9.689   5.066  1.00  0.00     0.174 HD
ENDBRANCH  15  20
BRANCH  18  23
HETATM   23  N6  UNL     1       5.754 -11.789   0.979  1.00  0.00    -0.383 N 
ATOM     24  H62 UNL     1       5.854 -10.833   0.638  1.00  0.00     0.157 HD
ATOM     25  H61 UNL     1       5.250 -12.502   0.451  1.00  0.00     0.157 HD
ENDBRANCH  18  23
ENDBRANCH   7   8
ENDBRANCH   3   7
TORSDOF 4
ENDMDL
MODEL 5
REMARK VINA RESULT: -6.901036226      2.487      5.790
REMARK  4 active torsions:
REMARK  status: ('A' for Active; 'I' for Inactive)
REMARK    1  A    between atoms: C3_3  and  C4_4 
REMARK    2  A    between atoms: C4_4  and  N1_5 
REMARK    3  A    between atoms: C7_12  and  N4_13 
REMARK    4  A    between atoms: C8_18  and  N6_19 
ROOT
HETATM    1  C1  UNL     1       8.870 -16.876   0.172  1.00  0.00     0.017 C 
HETATM    2  C2  UNL     1       7.877 -16.233  -0.104  1.00  0.00    -0.051 C 
HETATM    3  C3  UNL     1       6.671 -15.425  -0.426  1.00  0.00     0.258 A 
HETATM    4  N7  UNL     1       6.525 -14.753  -1.601  1.00  0.00    -0.249 N 
ATOM      5  H7  UNL     1       6.651 -13.877  -2.107  1.00  0.00     0.192 HD
HETATM    6  O1  UNL     1       6.104 -16.014  -1.641  1.00  0.00    -0.231 OA
ENDROOT
BRANCH   3   7
HETATM    7  C4  UNL     1       5.595 -15.385   0.671  1.00  0.00     0.210 C 
BRANCH   7   8
HETATM    8  N1  UNL     1       6.087 -15.008   1.932  1.00  0.00    -0.331 N 
HETATM    9  C5  UNL     1       6.565 -15.860   2.853  1.00  0.00     0.185 A 
HETATM   10  N2  UNL     1       6.976 -15.191   3.936  1.00  0.00    -0.336 N 
HETATM   11  C6  UNL     1       6.762 -13.860   3.722  1.00  0.00     0.152 A 
ATOM     12  H2  UNL     1       7.380 -15.605   4.777  1.00  0.00     0.168 HD
HETATM   13  N3  UNL     1       6.991 -12.779   4.482  1.00  0.00    -0.174 N 
HETATM   14  C9  UNL     1       6.197 -13.778   2.440  1.00  0.00     0.125 A 
HETATM   15  C7  UNL     1       6.667 -11.574   4.000  1.00  0.00     0.679 A 
ATOM     16  H3  UNL     1       7.404 -12.875   5.409  1.00  0.00     0.186 HD
HETATM   17  N5  UNL     1       6.124 -11.421   2.789  1.00  0.00    -0.175 N 
HETATM   18  C8  UNL     1       5.891 -12.501   2.020  1.00  0.00     0.145 A 
ATOM     19  H5  UNL     1       5.887 -10.490   2.448  1.00  0.00     0.186 HD
BRANCH  15  20
HETATM   20  N4  UNL     1       6.882 -10.518   4.722  1.00  0.00    -0.234 N 
ATOM     21  H42 UNL     1       7.837 -10.168   4.803  1.00  0.00     0.174 HD
ATOM     22  H41 UNL     1       6.100 -10.062   5.192  1.00  0.00     0.174 HD
ENDBRANCH  15  20
BRANCH  18  23
HETATM   23  N6  UNL     1       5.359 -12.355   0.863  1.00  0.00    -0.383 N 
ATOM     24  H62 UNL     1       5.369 -11.426   0.442  1.00  0.00     0.157 HD
ATOM     25  H61 UNL     1       4.950 -13.160   0.388  1.00  0.00     0.157 HD
ENDBRANCH  18  23
ENDBRANCH   7   8
ENDBRANCH   3   7
TORSDOF 4
ENDMDL
