MODEL 1
REMARK VINA RESULT: -7.856418337      0.000      0.000
REMARK  3 active torsions:
REMARK  status: ('A' for Active; 'I' for Inactive)
REMARK    1  A    between atoms: O1_2  and  C2_3 
REMARK    2  A    between atoms: C2_3  and  N1_4 
REMARK    3  A    between atoms: C5_14  and  N5_15 
ROOT
HETATM    1  N1  UNL     1       7.217 -11.369   4.436  1.00  0.00    -0.231 N 
HETATM    2  N2  UNL     1       7.400 -12.641   4.713  1.00  0.00    -0.277 N 
ATOM      3  H2  UNL     1       7.926 -12.892   5.550  1.00  0.00     0.189 HD
HETATM    4  C3  UNL     1       6.910 -13.640   3.918  1.00  0.00     0.142 A 
HETATM    5  N3  UNL     1       7.108 -14.861   4.221  1.00  0.00    -0.383 N 
ATOM      6  H31 UNL     1       6.743 -15.606   3.628  1.00  0.00     0.157 HD
ATOM      7  H32 UNL     1       7.627 -15.155   5.048  1.00  0.00     0.157 HD
HETATM    8  C4  UNL     1       6.209 -13.244   2.802  1.00  0.00     0.115 A 
HETATM    9  N4  UNL     1       5.680 -14.131   1.947  1.00  0.00    -0.187 N 
ATOM     10  H4  UNL     1       5.793 -15.130   2.117  1.00  0.00     0.184 HD
HETATM   11  C5  UNL     1       4.999 -13.707   0.863  1.00  0.00     0.679 A 
HETATM   12  N6  UNL     1       4.811 -12.389   0.581  1.00  0.00    -0.155 N 
ATOM     13  H6  UNL     1       4.289 -12.112  -0.251  1.00  0.00     0.187 HD
HETATM   14  C6  UNL     1       5.316 -11.459   1.400  1.00  0.00     0.277 A 
HETATM   15  O2  UNL     1       5.153 -10.231   1.152  1.00  0.00    -0.266 OA
HETATM   16  C7  UNL     1       6.015 -11.887   2.510  1.00  0.00     0.133 A 
HETATM   17  C8  UNL     1       6.540 -10.951   3.361  1.00  0.00     0.282 A 
HETATM   18  O3  UNL     1       6.366  -9.719   3.097  1.00  0.00    -0.265 OA
ENDROOT
BRANCH   1  19
HETATM   19  C2  UNL     1       7.759 -10.346   5.315  1.00  0.00     0.319 C 
BRANCH  19  20
HETATM   20  O1  UNL     1       6.822 -10.093   6.300  1.00  0.00    -0.375 OA
HETATM   21  C1  UNL     1       7.452  -9.594   7.457  1.00  0.00     0.203 C 
ENDBRANCH  19  20
ENDBRANCH   1  19
BRANCH  11  22
HETATM   22  N5  UNL     1       4.495 -14.590   0.048  1.00  0.00    -0.234 N 
ATOM     23  H52 UNL     1       5.049 -15.419  -0.168  1.00  0.00     0.174 HD
ATOM     24  H51 UNL     1       3.570 -14.426  -0.349  1.00  0.00     0.174 HD
ENDBRANCH  11  22
TORSDOF 3
ENDMDL
MODEL 2
REMARK VINA RESULT: -7.567925142      1.829      4.953
REMARK  3 active torsions:
REMARK  status: ('A' for Active; 'I' for Inactive)
REMARK    1  A    between atoms: O1_2  and  C2_3 
REMARK    2  A    between atoms: C2_3  and  N1_4 
REMARK    3  A    between atoms: C5_14  and  N5_15 
ROOT
HETATM    1  N1  UNL     1       5.514 -14.094   1.501  1.00  0.00    -0.231 N 
HETATM    2  N2  UNL     1       6.020 -14.956   2.354  1.00  0.00    -0.277 N 
ATOM      3  H2  UNL     1       5.935 -15.953   2.154  1.00  0.00     0.189 HD
HETATM    4  C3  UNL     1       6.655 -14.566   3.500  1.00  0.00     0.142 A 
HETATM    5  N3  UNL     1       7.132 -15.433   4.301  1.00  0.00    -0.383 N 
ATOM      6  H31 UNL     1       7.606 -15.141   5.156  1.00  0.00     0.157 HD
ATOM      7  H32 UNL     1       7.070 -16.438   4.139  1.00  0.00     0.157 HD
HETATM    8  C4  UNL     1       6.739 -13.210   3.719  1.00  0.00     0.115 A 
HETATM    9  N4  UNL     1       7.339 -12.704   4.807  1.00  0.00    -0.187 N 
ATOM     10  H4  UNL     1       7.748 -13.332   5.499  1.00  0.00     0.184 HD
HETATM   11  C5  UNL     1       7.403 -11.370   4.989  1.00  0.00     0.679 A 
HETATM   12  N6  UNL     1       6.878 -10.480   4.103  1.00  0.00    -0.155 N 
ATOM     13  H6  UNL     1       6.949  -9.478   4.280  1.00  0.00     0.187 HD
HETATM   14  C6  UNL     1       6.269 -10.927   2.999  1.00  0.00     0.277 A 
HETATM   15  O2  UNL     1       5.775 -10.115   2.167  1.00  0.00    -0.266 OA
HETATM   16  C7  UNL     1       6.200 -12.292   2.808  1.00  0.00     0.133 A 
HETATM   17  C8  UNL     1       5.579 -12.770   1.684  1.00  0.00     0.282 A 
HETATM   18  O3  UNL     1       5.088 -11.939   0.856  1.00  0.00    -0.265 OA
ENDROOT
BRANCH   1  19
HETATM   19  C2  UNL     1       4.848 -14.563   0.296  1.00  0.00     0.319 C 
BRANCH  19  20
HETATM   20  O1  UNL     1       5.503 -15.702  -0.133  1.00  0.00    -0.375 OA
HETATM   21  C1  UNL     1       6.395 -15.387  -1.178  1.00  0.00     0.203 C 
ENDBRANCH  19  20
ENDBRANCH   1  19
BRANCH  11  22
HETATM   22  N5  UNL     1       7.990 -10.905   6.055  1.00  0.00    -0.234 N 
ATOM     23  H52 UNL     1       7.739 -11.306   6.959  1.00  0.00     0.174 HD
ATOM     24  H51 UNL     1       8.678 -10.158   5.955  1.00  0.00     0.174 HD
ENDBRANCH  11  22
TORSDOF 3
ENDMDL
MODEL 3
REMARK VINA RESULT: -7.389463010      2.051      2.984
REMARK  3 active torsions:
REMARK  status: ('A' for Active; 'I' for Inactive)
REMARK    1  A    between atoms: O1_2  and  C2_3 
REMARK    2  A    between atoms: C2_3  and  N1_4 
REMARK    3  A    between atoms: C5_14  and  N5_15 
ROOT
HETATM    1  N1  UNL     1       6.336 -11.071   4.093  1.00  0.00    -0.231 N 
HETATM    2  N2  UNL     1       6.208 -10.338   3.010  1.00  0.00    -0.277 N 
ATOM      3  H2  UNL     1       6.121  -9.326   3.108  1.00  0.00     0.189 HD
HETATM    4  C3  UNL     1       6.187 -10.883   1.756  1.00  0.00     0.142 A 
HETATM    5  N3  UNL     1       6.061 -10.138   0.731  1.00  0.00    -0.383 N 
ATOM      6  H31 UNL     1       6.046 -10.544  -0.204  1.00  0.00     0.157 HD
ATOM      7  H32 UNL     1       5.973  -9.123   0.785  1.00  0.00     0.157 HD
HETATM    8  C4  UNL     1       6.307 -12.251   1.684  1.00  0.00     0.115 A 
HETATM    9  N4  UNL     1       6.301 -12.901   0.511  1.00  0.00    -0.187 N 
ATOM     10  H4  UNL     1       6.205 -12.378  -0.359  1.00  0.00     0.184 HD
HETATM   11  C5  UNL     1       6.421 -14.244   0.478  1.00  0.00     0.679 A 
HETATM   12  N6  UNL     1       6.554 -14.999   1.601  1.00  0.00    -0.155 N 
ATOM     13  H6  UNL     1       6.642 -16.013   1.530  1.00  0.00     0.187 HD
HETATM   14  C6  UNL     1       6.568 -14.404   2.800  1.00  0.00     0.277 A 
HETATM   15  O2  UNL     1       6.689 -15.091   3.854  1.00  0.00    -0.266 OA
HETATM   16  C7  UNL     1       6.444 -13.030   2.840  1.00  0.00     0.133 A 
HETATM   17  C8  UNL     1       6.455 -12.403   4.058  1.00  0.00     0.282 A 
HETATM   18  O3  UNL     1       6.579 -13.108   5.109  1.00  0.00    -0.265 OA
ENDROOT
BRANCH   1  19
HETATM   19  C2  UNL     1       6.352 -10.440   5.404  1.00  0.00     0.319 C 
BRANCH  19  20
HETATM   20  O1  UNL     1       7.667 -10.148   5.716  1.00  0.00    -0.375 OA
HETATM   21  C1  UNL     1       7.770  -9.743   7.062  1.00  0.00     0.203 C 
ENDBRANCH  19  20
ENDBRANCH   1  19
BRANCH  11  22
HETATM   22  N5  UNL     1       6.411 -14.851  -0.676  1.00  0.00    -0.234 N 
ATOM     23  H52 UNL     1       7.080 -14.551  -1.385  1.00  0.00     0.174 HD
ATOM     24  H51 UNL     1       5.740 -15.602  -0.834  1.00  0.00     0.174 HD
ENDBRANCH  11  22
TORSDOF 3
ENDMDL
MODEL 4
REMARK VINA RESULT: -6.776323581      3.442      5.369
REMARK  3 active torsions:
REMARK  status: ('A' for Active; 'I' for Inactive)
REMARK    1  A    between atoms: O1_2  and  C2_3 
REMARK    2  A    between atoms: C2_3  and  N1_4 
REMARK    3  A    between atoms: C5_14  and  N5_15 
ROOT
HETATM    1  N1  UNL     1       6.257 -16.367   2.251  1.00  0.00    -0.231 N 
HETATM    2  N2  UNL     1       6.111 -16.229   0.953  1.00  0.00    -0.277 N 
ATOM      3  H2  UNL     1       5.978 -17.063   0.381  1.00  0.00     0.189 HD
HETATM    4  C3  UNL     1       6.131 -15.007   0.340  1.00  0.00     0.142 A 
HETATM    5  N3  UNL     1       5.985 -14.915  -0.922  1.00  0.00    -0.383 N 
ATOM      6  H31 UNL     1       6.000 -14.003  -1.378  1.00  0.00     0.157 HD
ATOM      7  H32 UNL     1       5.848 -15.723  -1.529  1.00  0.00     0.157 HD
HETATM    8  C4  UNL     1       6.314 -13.917   1.160  1.00  0.00     0.115 A 
HETATM    9  N4  UNL     1       6.351 -12.667   0.676  1.00  0.00    -0.187 N 
ATOM     10  H4  UNL     1       6.242 -12.506  -0.325  1.00  0.00     0.184 HD
HETATM   11  C5  UNL     1       6.533 -11.622   1.509  1.00  0.00     0.679 A 
HETATM   12  N6  UNL     1       6.684 -11.769   2.853  1.00  0.00    -0.155 N 
ATOM     13  H6  UNL     1       6.819 -10.950   3.447  1.00  0.00     0.187 HD
HETATM   14  C6  UNL     1       6.654 -12.994   3.391  1.00  0.00     0.277 A 
HETATM   15  O2  UNL     1       6.794 -13.149   4.637  1.00  0.00    -0.266 OA
HETATM   16  C7  UNL     1       6.469 -14.067   2.544  1.00  0.00     0.133 A 
HETATM   17  C8  UNL     1       6.437 -15.329   3.075  1.00  0.00     0.282 A 
HETATM   18  O3  UNL     1       6.579 -15.468   4.332  1.00  0.00    -0.265 OA
ENDROOT
BRANCH   1  19
HETATM   19  C2  UNL     1       6.229 -17.691   2.853  1.00  0.00     0.319 C 
BRANCH  19  20
HETATM   20  O1  UNL     1       7.140 -18.482   2.178  1.00  0.00    -0.375 OA
HETATM   21  C1  UNL     1       8.370 -18.504   2.865  1.00  0.00     0.203 C 
ENDBRANCH  19  20
ENDBRANCH   1  19
BRANCH  11  22
HETATM   22  N5  UNL     1       6.565 -10.417   1.013  1.00  0.00    -0.234 N 
ATOM     23  H52 UNL     1       7.334  -9.803   1.286  1.00  0.00     0.174 HD
ATOM     24  H51 UNL     1       5.826 -10.124   0.374  1.00  0.00     0.174 HD
ENDBRANCH  11  22
TORSDOF 3
ENDMDL
MODEL 5
REMARK VINA RESULT: -6.605930088      3.344      4.851
REMARK  3 active torsions:
REMARK  status: ('A' for Active; 'I' for Inactive)
REMARK    1  A    between atoms: O1_2  and  C2_3 
REMARK    2  A    between atoms: C2_3  and  N1_4 
REMARK    3  A    between atoms: C5_14  and  N5_15 
ROOT
HETATM    1  N1  UNL     1       6.761 -15.824   3.270  1.00  0.00    -0.231 N 
HETATM    2  N2  UNL     1       7.180 -14.892   4.097  1.00  0.00    -0.277 N 
ATOM      3  H2  UNL     1       7.773 -15.161   4.881  1.00  0.00     0.189 HD
HETATM    4  C3  UNL     1       6.848 -13.574   3.942  1.00  0.00     0.142 A 
HETATM    5  N3  UNL     1       7.275 -12.701   4.765  1.00  0.00    -0.383 N 
ATOM      6  H31 UNL     1       7.028 -11.718   4.650  1.00  0.00     0.157 HD
ATOM      7  H32 UNL     1       7.871 -12.928   5.562  1.00  0.00     0.157 HD
HETATM    8  C4  UNL     1       6.045 -13.269   2.867  1.00  0.00     0.115 A 
HETATM    9  N4  UNL     1       5.654 -12.013   2.611  1.00  0.00    -0.187 N 
ATOM     10  H4  UNL     1       5.952 -11.253   3.222  1.00  0.00     0.184 HD
HETATM   11  C5  UNL     1       4.866 -11.750   1.548  1.00  0.00     0.679 A 
HETATM   12  N6  UNL     1       4.435 -12.718   0.695  1.00  0.00    -0.155 N 
ATOM     13  H6  UNL     1       3.840 -12.474  -0.098  1.00  0.00     0.187 HD
HETATM   14  C6  UNL     1       4.795 -13.990   0.901  1.00  0.00     0.277 A 
HETATM   15  O2  UNL     1       4.403 -14.901   0.118  1.00  0.00    -0.266 OA
HETATM   16  C7  UNL     1       5.601 -14.265   1.987  1.00  0.00     0.133 A 
HETATM   17  C8  UNL     1       5.980 -15.561   2.216  1.00  0.00     0.282 A 
HETATM   18  O3  UNL     1       5.577 -16.466   1.419  1.00  0.00    -0.265 OA
ENDROOT
BRANCH   1  19
HETATM   19  C2  UNL     1       7.143 -17.212   3.480  1.00  0.00     0.319 C 
BRANCH  19  20
HETATM   20  O1  UNL     1       8.283 -17.453   2.736  1.00  0.00    -0.375 OA
HETATM   21  C1  UNL     1       8.250 -18.757   2.203  1.00  0.00     0.203 C 
ENDBRANCH  19  20
ENDBRANCH   1  19
BRANCH  11  22
HETATM   22  N5  UNL     1       4.499 -10.520   1.322  1.00  0.00    -0.234 N 
ATOM     23  H52 UNL     1       4.032 -10.010   2.072  1.00  0.00     0.174 HD
ATOM     24  H51 UNL     1       4.688 -10.107   0.409  1.00  0.00     0.174 HD
ENDBRANCH  11  22
TORSDOF 3
ENDMDL
