MODEL 1
REMARK VINA RESULT: -6.501756161      0.000      0.000
REMARK  6 active torsions:
REMARK  status: ('A' for Active; 'I' for Inactive)
REMARK    1  A    between atoms: O1_2  and  C2_3 
REMARK    2  A    between atoms: C3_6  and  N2_7 
REMARK    3  A    between atoms: C7_15  and  O2_16 
REMARK    4  A    between atoms: O2_16  and  C8_17 
REMARK    5  A    between atoms: C8_17  and  N6_21 
REMARK    6  A    between atoms: N6_21  and  N7_23 
ROOT
HETATM    1  C2  UNL     1       6.610 -14.560   3.030  1.00  0.00     0.194 A 
HETATM    2  N1  UNL     1       7.364 -13.865   3.913  1.00  0.00    -0.168 N 
ATOM      3  H1  UNL     1       8.020 -14.372   4.509  1.00  0.00     0.186 HD
HETATM    4  C3  UNL     1       7.279 -12.532   4.031  1.00  0.00     0.680 A 
HETATM    5  N3  UNL     1       6.438 -11.806   3.280  1.00  0.00    -0.175 N 
HETATM    6  C4  UNL     1       6.336 -10.359   3.399  1.00  0.00     0.176 C 
HETATM    7  C5  UNL     1       5.677 -12.495   2.391  1.00  0.00     0.170 A 
HETATM    8  C6  UNL     1       4.772 -11.758   1.574  1.00  0.00     0.121 C 
HETATM    9  N4  UNL     1       4.030 -11.179   0.913  1.00  0.00    -0.190 NA
HETATM   10  C7  UNL     1       5.732 -13.853   2.237  1.00  0.00     0.168 A 
ENDROOT
BRANCH  10  11
HETATM   11  O2  UNL     1       4.949 -14.555   1.324  1.00  0.00    -0.271 OA
BRANCH  11  12
HETATM   12  C8  UNL     1       5.491 -15.239   0.245  1.00  0.00     0.237 C 
HETATM   13  N5  UNL     1       5.276 -16.508   0.201  1.00  0.00    -0.364 N 
ATOM     14  H52 UNL     1       4.739 -17.001   0.915  1.00  0.00     0.159 HD
ATOM     15  H51 UNL     1       5.675 -17.011  -0.592  1.00  0.00     0.159 HD
BRANCH  12  16
HETATM   16  N6  UNL     1       6.240 -14.554  -0.750  1.00  0.00    -0.272 N 
ATOM     17  H6  UNL     1       6.778 -13.735  -0.465  1.00  0.00     0.190 HD
BRANCH  16  18
HETATM   18  N7  UNL     1       6.284 -14.930  -2.086  1.00  0.00    -0.342 N 
ATOM     19  H72 UNL     1       6.568 -15.888  -2.287  1.00  0.00     0.176 HD
ATOM     20  H71 UNL     1       6.051 -14.309  -2.862  1.00  0.00     0.176 HD
ENDBRANCH  16  18
ENDBRANCH  12  16
ENDBRANCH  11  12
ENDBRANCH  10  11
BRANCH   4  21
HETATM   21  N2  UNL     1       8.024 -11.930   4.892  1.00  0.00    -0.234 N 
ATOM     22  H22 UNL     1       8.149 -12.347   5.814  1.00  0.00     0.174 HD
ATOM     23  H21 UNL     1       8.472 -11.051   4.633  1.00  0.00     0.174 HD
ENDBRANCH   4  21
BRANCH   1  24
HETATM   24  O1  UNL     1       6.734 -15.937   2.943  1.00  0.00    -0.338 OA
HETATM   25  C1  UNL     1       5.977 -16.826   3.744  1.00  0.00     0.211 C 
ENDBRANCH   1  24
TORSDOF 6
ENDMDL
MODEL 2
REMARK VINA RESULT: -6.261887171      1.851      5.499
REMARK  6 active torsions:
REMARK  status: ('A' for Active; 'I' for Inactive)
REMARK    1  A    between atoms: O1_2  and  C2_3 
REMARK    2  A    between atoms: C3_6  and  N2_7 
REMARK    3  A    between atoms: C7_15  and  O2_16 
REMARK    4  A    between atoms: O2_16  and  C8_17 
REMARK    5  A    between atoms: C8_17  and  N6_21 
REMARK    6  A    between atoms: N6_21  and  N7_23 
ROOT
HETATM    1  C2  UNL     1       6.107 -14.183   0.635  1.00  0.00     0.194 A 
HETATM    2  N1  UNL     1       6.379 -14.222  -0.691  1.00  0.00    -0.168 N 
ATOM      3  H1  UNL     1       6.506 -13.344  -1.195  1.00  0.00     0.186 HD
HETATM    4  C3  UNL     1       6.488 -15.377  -1.364  1.00  0.00     0.680 A 
HETATM    5  N3  UNL     1       6.333 -16.566  -0.762  1.00  0.00    -0.175 N 
HETATM    6  C4  UNL     1       6.448 -17.826  -1.482  1.00  0.00     0.176 C 
HETATM    7  C5  UNL     1       6.059 -16.537   0.567  1.00  0.00     0.170 A 
HETATM    8  C6  UNL     1       5.887 -17.780   1.241  1.00  0.00     0.121 C 
HETATM    9  N4  UNL     1       5.738 -18.774   1.799  1.00  0.00    -0.190 NA
HETATM   10  C7  UNL     1       5.939 -15.383   1.293  1.00  0.00     0.168 A 
ENDROOT
BRANCH  10  11
HETATM   11  O2  UNL     1       5.658 -15.358   2.657  1.00  0.00    -0.271 OA
BRANCH  11  12
HETATM   12  C8  UNL     1       6.626 -15.092   3.614  1.00  0.00     0.237 C 
HETATM   13  N5  UNL     1       7.317 -16.096   4.030  1.00  0.00    -0.364 N 
ATOM     14  H52 UNL     1       7.171 -17.045   3.685  1.00  0.00     0.159 HD
ATOM     15  H51 UNL     1       8.028 -15.900   4.735  1.00  0.00     0.159 HD
BRANCH  12  16
HETATM   16  N6  UNL     1       6.829 -13.770   4.096  1.00  0.00    -0.272 N 
ATOM     17  H6  UNL     1       6.235 -13.442   4.858  1.00  0.00     0.190 HD
BRANCH  16  18
HETATM   18  N7  UNL     1       7.786 -12.897   3.594  1.00  0.00    -0.342 N 
ATOM     19  H72 UNL     1       8.593 -13.315   3.131  1.00  0.00     0.176 HD
ATOM     20  H71 UNL     1       7.725 -11.881   3.662  1.00  0.00     0.176 HD
ENDBRANCH  16  18
ENDBRANCH  12  16
ENDBRANCH  11  12
ENDBRANCH  10  11
BRANCH   4  21
HETATM   21  N2  UNL     1       6.748 -15.346  -2.625  1.00  0.00    -0.234 N 
ATOM     22  H22 UNL     1       6.569 -16.179  -3.185  1.00  0.00     0.174 HD
ATOM     23  H21 UNL     1       7.123 -14.491  -3.034  1.00  0.00     0.174 HD
ENDBRANCH   4  21
BRANCH   1  24
HETATM   24  O1  UNL     1       6.005 -12.966   1.287  1.00  0.00    -0.338 OA
HETATM   25  C1  UNL     1       4.778 -12.272   1.426  1.00  0.00     0.211 C 
ENDBRANCH   1  24
TORSDOF 6
ENDMDL
MODEL 3
REMARK VINA RESULT: -6.206054899      1.788      5.263
REMARK  6 active torsions:
REMARK  status: ('A' for Active; 'I' for Inactive)
REMARK    1  A    between atoms: O1_2  and  C2_3 
REMARK    2  A    between atoms: C3_6  and  N2_7 
REMARK    3  A    between atoms: C7_15  and  O2_16 
REMARK    4  A    between atoms: O2_16  and  C8_17 
REMARK    5  A    between atoms: C8_17  and  N6_21 
REMARK    6  A    between atoms: N6_21  and  N7_23 
ROOT
HETATM    1  C2  UNL     1       6.046 -12.764   1.217  1.00  0.00     0.194 A 
HETATM    2  N1  UNL     1       6.228 -13.466   0.073  1.00  0.00    -0.168 N 
ATOM      3  H1  UNL     1       6.135 -12.985  -0.821  1.00  0.00     0.186 HD
HETATM    4  C3  UNL     1       6.528 -14.773   0.078  1.00  0.00     0.680 A 
HETATM    5  N3  UNL     1       6.664 -15.465   1.219  1.00  0.00    -0.175 N 
HETATM    6  C4  UNL     1       6.988 -16.884   1.237  1.00  0.00     0.176 C 
HETATM    7  C5  UNL     1       6.483 -14.770   2.371  1.00  0.00     0.170 A 
HETATM    8  C6  UNL     1       6.619 -15.471   3.604  1.00  0.00     0.121 C 
HETATM    9  N4  UNL     1       6.718 -16.023   4.607  1.00  0.00    -0.190 NA
HETATM   10  C7  UNL     1       6.176 -13.437   2.413  1.00  0.00     0.168 A 
ENDROOT
BRANCH  10  11
HETATM   11  O2  UNL     1       5.991 -12.728   3.597  1.00  0.00    -0.271 OA
BRANCH  11  12
HETATM   12  C8  UNL     1       6.939 -11.847   4.097  1.00  0.00     0.237 C 
HETATM   13  N5  UNL     1       7.798 -12.334   4.925  1.00  0.00    -0.364 N 
ATOM     14  H52 UNL     1       7.793 -13.313   5.210  1.00  0.00     0.159 HD
ATOM     15  H51 UNL     1       8.495 -11.686   5.293  1.00  0.00     0.159 HD
BRANCH  12  16
HETATM   16  N6  UNL     1       6.945 -10.482   3.701  1.00  0.00    -0.272 N 
ATOM     17  H6  UNL     1       6.254  -9.859   4.120  1.00  0.00     0.190 HD
BRANCH  16  18
HETATM   18  N7  UNL     1       7.833  -9.944   2.778  1.00  0.00    -0.342 N 
ATOM     19  H72 UNL     1       8.071  -8.958   2.889  1.00  0.00     0.176 HD
ATOM     20  H71 UNL     1       8.250 -10.472   2.012  1.00  0.00     0.176 HD
ENDBRANCH  16  18
ENDBRANCH  12  16
ENDBRANCH  11  12
ENDBRANCH  10  11
BRANCH   4  21
HETATM   21  N2  UNL     1       6.688 -15.384  -1.044  1.00  0.00    -0.234 N 
ATOM     22  H22 UNL     1       7.509 -15.975  -1.170  1.00  0.00     0.174 HD
ATOM     23  H21 UNL     1       5.991 -15.265  -1.778  1.00  0.00     0.174 HD
ENDBRANCH   4  21
BRANCH   1  24
HETATM   24  O1  UNL     1       5.739 -11.415   1.162  1.00  0.00    -0.338 OA
HETATM   25  C1  UNL     1       4.407 -10.932   1.163  1.00  0.00     0.211 C 
ENDBRANCH   1  24
TORSDOF 6
ENDMDL
MODEL 4
REMARK VINA RESULT: -6.072001465      1.993      5.604
REMARK  6 active torsions:
REMARK  status: ('A' for Active; 'I' for Inactive)
REMARK    1  A    between atoms: O1_2  and  C2_3 
REMARK    2  A    between atoms: C3_6  and  N2_7 
REMARK    3  A    between atoms: C7_15  and  O2_16 
REMARK    4  A    between atoms: O2_16  and  C8_17 
REMARK    5  A    between atoms: C8_17  and  N6_21 
REMARK    6  A    between atoms: N6_21  and  N7_23 
ROOT
HETATM    1  C2  UNL     1       6.303 -12.319   1.772  1.00  0.00     0.194 A 
HETATM    2  N1  UNL     1       6.305 -12.889   0.543  1.00  0.00    -0.168 N 
ATOM      3  H1  UNL     1       6.271 -12.287  -0.280  1.00  0.00     0.186 HD
HETATM    4  C3  UNL     1       6.351 -14.218   0.372  1.00  0.00     0.680 A 
HETATM    5  N3  UNL     1       6.396 -15.065   1.411  1.00  0.00    -0.175 N 
HETATM    6  C4  UNL     1       6.444 -16.510   1.239  1.00  0.00     0.176 C 
HETATM    7  C5  UNL     1       6.394 -14.503   2.647  1.00  0.00     0.170 A 
HETATM    8  C6  UNL     1       6.441 -15.371   3.776  1.00  0.00     0.121 C 
HETATM    9  N4  UNL     1       6.470 -16.058   4.698  1.00  0.00    -0.190 NA
HETATM   10  C7  UNL     1       6.348 -13.154   2.868  1.00  0.00     0.168 A 
ENDROOT
BRANCH  10  11
HETATM   11  O2  UNL     1       6.346 -12.582   4.138  1.00  0.00    -0.271 OA
BRANCH  11  12
HETATM   12  C8  UNL     1       7.335 -11.709   4.566  1.00  0.00     0.237 C 
HETATM   13  N5  UNL     1       8.535 -11.958   4.169  1.00  0.00    -0.364 N 
ATOM     14  H52 UNL     1       8.763 -12.752   3.571  1.00  0.00     0.159 HD
ATOM     15  H51 UNL     1       9.262 -11.315   4.484  1.00  0.00     0.159 HD
BRANCH  12  16
HETATM   16  N6  UNL     1       7.018 -10.602   5.399  1.00  0.00    -0.272 N 
ATOM     17  H6  UNL     1       6.151 -10.096   5.214  1.00  0.00     0.190 HD
BRANCH  16  18
HETATM   18  N7  UNL     1       7.815 -10.166   6.450  1.00  0.00    -0.342 N 
ATOM     19  H72 UNL     1       8.118 -10.870   7.122  1.00  0.00     0.176 HD
ATOM     20  H71 UNL     1       8.107  -9.197   6.582  1.00  0.00     0.176 HD
ENDBRANCH  16  18
ENDBRANCH  12  16
ENDBRANCH  11  12
ENDBRANCH  10  11
BRANCH   4  21
HETATM   21  N2  UNL     1       6.349 -14.697  -0.823  1.00  0.00    -0.234 N 
ATOM     22  H22 UNL     1       5.936 -15.616  -0.985  1.00  0.00     0.174 HD
ATOM     23  H21 UNL     1       6.758 -14.149  -1.579  1.00  0.00     0.174 HD
ENDBRANCH   4  21
BRANCH   1  24
HETATM   24  O1  UNL     1       6.256 -10.941   1.898  1.00  0.00    -0.338 OA
HETATM   25  C1  UNL     1       7.248 -10.088   1.356  1.00  0.00     0.211 C 
ENDBRANCH   1  24
TORSDOF 6
ENDMDL
MODEL 5
REMARK VINA RESULT: -5.882516062      1.490      2.060
REMARK  6 active torsions:
REMARK  status: ('A' for Active; 'I' for Inactive)
REMARK    1  A    between atoms: O1_2  and  C2_3 
REMARK    2  A    between atoms: C3_6  and  N2_7 
REMARK    3  A    between atoms: C7_15  and  O2_16 
REMARK    4  A    between atoms: O2_16  and  C8_17 
REMARK    5  A    between atoms: C8_17  and  N6_21 
REMARK    6  A    between atoms: N6_21  and  N7_23 
ROOT
HETATM    1  C2  UNL     1       6.940 -13.889   3.045  1.00  0.00     0.194 A 
HETATM    2  N1  UNL     1       7.390 -13.491   4.259  1.00  0.00    -0.168 N 
ATOM      3  H1  UNL     1       7.520 -14.190   4.991  1.00  0.00     0.186 HD
HETATM    4  C3  UNL     1       7.671 -12.208   4.531  1.00  0.00     0.680 A 
HETATM    5  N3  UNL     1       7.522 -11.240   3.615  1.00  0.00    -0.175 N 
HETATM    6  C4  UNL     1       7.823  -9.844   3.899  1.00  0.00     0.176 C 
HETATM    7  C5  UNL     1       7.071 -11.629   2.395  1.00  0.00     0.170 A 
HETATM    8  C6  UNL     1       6.900 -10.629   1.395  1.00  0.00     0.121 C 
HETATM    9  N4  UNL     1       6.748  -9.833   0.580  1.00  0.00    -0.190 NA
HETATM   10  C7  UNL     1       6.772 -12.925   2.074  1.00  0.00     0.168 A 
ENDROOT
BRANCH  10  11
HETATM   11  O2  UNL     1       6.310 -13.319   0.821  1.00  0.00    -0.271 OA
BRANCH  11  12
HETATM   12  C8  UNL     1       5.019 -13.784   0.613  1.00  0.00     0.237 C 
HETATM   13  N5  UNL     1       4.906 -14.938   0.051  1.00  0.00    -0.364 N 
ATOM     14  H52 UNL     1       5.714 -15.493  -0.233  1.00  0.00     0.159 HD
ATOM     15  H51 UNL     1       3.957 -15.280  -0.102  1.00  0.00     0.159 HD
BRANCH  12  16
HETATM   16  N6  UNL     1       3.894 -13.011   1.008  1.00  0.00    -0.272 N 
ATOM     17  H6  UNL     1       3.144 -13.482   1.514  1.00  0.00     0.190 HD
BRANCH  16  18
HETATM   18  N7  UNL     1       3.753 -11.654   0.749  1.00  0.00    -0.342 N 
ATOM     19  H72 UNL     1       4.592 -11.080   0.827  1.00  0.00     0.176 HD
ATOM     20  H71 UNL     1       2.872 -11.210   0.489  1.00  0.00     0.176 HD
ENDBRANCH  16  18
ENDBRANCH  12  16
ENDBRANCH  11  12
ENDBRANCH  10  11
BRANCH   4  21
HETATM   21  N2  UNL     1       8.095 -11.894   5.706  1.00  0.00    -0.234 N 
ATOM     22  H22 UNL     1       8.312 -10.919   5.907  1.00  0.00     0.174 HD
ATOM     23  H21 UNL     1       8.201 -12.627   6.408  1.00  0.00     0.174 HD
ENDBRANCH   4  21
BRANCH   1  24
HETATM   24  O1  UNL     1       6.665 -15.225   2.811  1.00  0.00    -0.338 OA
HETATM   25  C1  UNL     1       6.245 -16.111   3.833  1.00  0.00     0.211 C 
ENDBRANCH   1  24
TORSDOF 6
ENDMDL
