MODEL 1
REMARK VINA RESULT: -7.943460331      0.000      0.000
REMARK  7 active torsions:
REMARK  status: ('A' for Active; 'I' for Inactive)
REMARK    1  A    between atoms: C2_2  and  O1_3 
REMARK    2  A    between atoms: C2_2  and  O2_5 
REMARK    3  A    between atoms: O2_5  and  C3_6 
REMARK    4  A    between atoms: C3_6  and  N1_7 
REMARK    5  A    between atoms: N3_10  and  O3_11 
REMARK    6  A    between atoms: C5_16  and  N5_17 
REMARK    7  A    between atoms: C6_22  and  N7_23 
ROOT
HETATM    1  N1  UNL     1       5.957 -12.054   3.549  1.00  0.00    -0.245 N 
HETATM    2  N2  UNL     1       5.542 -11.025   2.826  1.00  0.00    -0.210 N 
ATOM      3  H2  UNL     1       5.257 -10.130   3.223  1.00  0.00     0.211 HD
HETATM    4  N3  UNL     1       5.539 -11.293   1.540  1.00  0.00    -0.128 N 
HETATM    5  C4  UNL     1       5.967 -12.542   1.413  1.00  0.00     0.200 A 
HETATM    6  N4  UNL     1       6.169 -13.343   0.348  1.00  0.00    -0.170 N 
ATOM      7  H4  UNL     1       5.979 -13.003  -0.595  1.00  0.00     0.186 HD
HETATM    8  C5  UNL     1       6.621 -14.589   0.539  1.00  0.00     0.679 A 
HETATM    9  N6  UNL     1       6.878 -15.061   1.769  1.00  0.00    -0.175 N 
ATOM     10  H6  UNL     1       7.221 -16.015   1.881  1.00  0.00     0.186 HD
HETATM   11  C6  UNL     1       6.688 -14.285   2.865  1.00  0.00     0.147 A 
HETATM   12  C7  UNL     1       6.231 -13.021   2.687  1.00  0.00     0.147 A 
ENDROOT
BRANCH   1  13
HETATM   13  C3  UNL     1       6.039 -11.991   4.986  1.00  0.00     0.321 C 
BRANCH  13  14
HETATM   14  O2  UNL     1       6.309 -10.659   5.307  1.00  0.00    -0.341 OA
BRANCH  14  15
HETATM   15  C2  UNL     1       7.602 -10.432   5.691  1.00  0.00     0.255 C 
HETATM   16  C1  UNL     1       7.541  -9.769   7.074  1.00  0.00     0.070 C 
BRANCH  15  17
HETATM   17  O1  UNL     1       8.382 -11.578   5.755  1.00  0.00    -0.372 OA
ATOM     18  H1  UNL     1       9.198 -11.437   5.290  1.00  0.00     0.212 HD
ENDBRANCH  15  17
ENDBRANCH  14  15
ENDBRANCH  13  14
ENDBRANCH   1  13
BRANCH   4  19
HETATM   19  O3  UNL     1       5.171 -10.469   0.497  1.00  0.00    -0.265 OA
ATOM     20  H3  UNL     1       5.368 -10.566  -0.427  1.00  0.00     0.247 HD
ENDBRANCH   4  19
BRANCH  11  21
HETATM   21  N7  UNL     1       6.932 -14.725   4.031  1.00  0.00    -0.383 N 
ATOM     22  H72 UNL     1       6.447 -15.549   4.386  1.00  0.00     0.157 HD
ATOM     23  H71 UNL     1       7.613 -14.266   4.636  1.00  0.00     0.157 HD
ENDBRANCH  11  21
BRANCH   8  24
HETATM   24  N5  UNL     1       6.832 -15.403  -0.447  1.00  0.00    -0.234 N 
ATOM     25  H52 UNL     1       6.521 -15.091  -1.367  1.00  0.00     0.174 HD
ATOM     26  H51 UNL     1       7.285 -16.307  -0.315  1.00  0.00     0.174 HD
ENDBRANCH   8  24
TORSDOF 7
ENDMDL
MODEL 2
REMARK VINA RESULT: -7.671358593      1.322      1.536
REMARK  7 active torsions:
REMARK  status: ('A' for Active; 'I' for Inactive)
REMARK    1  A    between atoms: C2_2  and  O1_3 
REMARK    2  A    between atoms: C2_2  and  O2_5 
REMARK    3  A    between atoms: O2_5  and  C3_6 
REMARK    4  A    between atoms: C3_6  and  N1_7 
REMARK    5  A    between atoms: N3_10  and  O3_11 
REMARK    6  A    between atoms: C5_16  and  N5_17 
REMARK    7  A    between atoms: C6_22  and  N7_23 
ROOT
HETATM    1  N1  UNL     1       7.650 -11.558   3.445  1.00  0.00    -0.245 N 
HETATM    2  N2  UNL     1       7.680 -10.468   2.694  1.00  0.00    -0.210 N 
ATOM      3  H2  UNL     1       8.080  -9.579   2.997  1.00  0.00     0.211 HD
HETATM    4  N3  UNL     1       7.135 -10.664   1.515  1.00  0.00    -0.128 N 
HETATM    5  C4  UNL     1       6.732 -11.928   1.490  1.00  0.00     0.200 A 
HETATM    6  N4  UNL     1       6.115 -12.680   0.558  1.00  0.00    -0.170 N 
ATOM      7  H4  UNL     1       5.869 -12.278  -0.347  1.00  0.00     0.186 HD
HETATM    8  C5  UNL     1       5.830 -13.960   0.830  1.00  0.00     0.679 A 
HETATM    9  N6  UNL     1       6.143 -14.513   2.012  1.00  0.00    -0.175 N 
ATOM     10  H6  UNL     1       5.911 -15.490   2.188  1.00  0.00     0.186 HD
HETATM   11  C6  UNL     1       6.764 -13.788   2.976  1.00  0.00     0.147 A 
HETATM   12  C7  UNL     1       7.059 -12.491   2.714  1.00  0.00     0.147 A 
ENDROOT
BRANCH   1  13
HETATM   13  C3  UNL     1       8.189 -11.576   4.781  1.00  0.00     0.321 C 
BRANCH  13  14
HETATM   14  O2  UNL     1       7.104 -11.760   5.641  1.00  0.00    -0.341 OA
BRANCH  14  15
HETATM   15  C2  UNL     1       6.561 -10.594   6.106  1.00  0.00     0.255 C 
HETATM   16  C1  UNL     1       7.675  -9.860   6.864  1.00  0.00     0.070 C 
BRANCH  15  17
HETATM   17  O1  UNL     1       6.050  -9.772   5.111  1.00  0.00    -0.372 OA
ATOM     18  H1  UNL     1       6.658  -9.735   4.382  1.00  0.00     0.212 HD
ENDBRANCH  15  17
ENDBRANCH  14  15
ENDBRANCH  13  14
ENDBRANCH   1  13
BRANCH   4  19
HETATM   19  O3  UNL     1       6.990  -9.763   0.481  1.00  0.00    -0.265 OA
ATOM     20  H3  UNL     1       6.526  -8.934   0.484  1.00  0.00     0.247 HD
ENDBRANCH   4  19
BRANCH  11  21
HETATM   21  N7  UNL     1       7.065 -14.305   4.096  1.00  0.00    -0.383 N 
ATOM     22  H72 UNL     1       7.636 -13.792   4.767  1.00  0.00     0.157 HD
ATOM     23  H71 UNL     1       6.745 -15.241   4.348  1.00  0.00     0.157 HD
ENDBRANCH  11  21
BRANCH   8  24
HETATM   24  N5  UNL     1       5.238 -14.730  -0.028  1.00  0.00    -0.234 N 
ATOM     25  H52 UNL     1       5.477 -14.585  -1.009  1.00  0.00     0.174 HD
ATOM     26  H51 UNL     1       4.568 -15.444   0.257  1.00  0.00     0.174 HD
ENDBRANCH   8  24
TORSDOF 7
ENDMDL
MODEL 3
REMARK VINA RESULT: -7.365667683      1.548      2.837
REMARK  7 active torsions:
REMARK  status: ('A' for Active; 'I' for Inactive)
REMARK    1  A    between atoms: C2_2  and  O1_3 
REMARK    2  A    between atoms: C2_2  and  O2_5 
REMARK    3  A    between atoms: O2_5  and  C3_6 
REMARK    4  A    between atoms: C3_6  and  N1_7 
REMARK    5  A    between atoms: N3_10  and  O3_11 
REMARK    6  A    between atoms: C5_16  and  N5_17 
REMARK    7  A    between atoms: C6_22  and  N7_23 
ROOT
HETATM    1  N1  UNL     1       6.253 -12.850   3.335  1.00  0.00    -0.245 N 
HETATM    2  N2  UNL     1       6.777 -13.704   4.201  1.00  0.00    -0.210 N 
ATOM      3  H2  UNL     1       7.084 -13.447   5.139  1.00  0.00     0.211 HD
HETATM    4  N3  UNL     1       6.855 -14.921   3.710  1.00  0.00    -0.128 N 
HETATM    5  C4  UNL     1       6.366 -14.864   2.478  1.00  0.00     0.200 A 
HETATM    6  N4  UNL     1       6.195 -15.786   1.511  1.00  0.00    -0.170 N 
ATOM      7  H4  UNL     1       6.470 -16.756   1.670  1.00  0.00     0.186 HD
HETATM    8  C5  UNL     1       5.660 -15.419   0.339  1.00  0.00     0.679 A 
HETATM    9  N6  UNL     1       5.291 -14.150   0.104  1.00  0.00    -0.175 N 
ATOM     10  H6  UNL     1       4.887 -13.903  -0.799  1.00  0.00     0.186 HD
HETATM   11  C6  UNL     1       5.447 -13.193   1.052  1.00  0.00     0.147 A 
HETATM   12  C7  UNL     1       5.987 -13.551   2.243  1.00  0.00     0.147 A 
ENDROOT
BRANCH   1  13
HETATM   13  C3  UNL     1       6.075 -11.457   3.654  1.00  0.00     0.321 C 
BRANCH  13  14
HETATM   14  O2  UNL     1       6.220 -11.348   5.040  1.00  0.00    -0.341 OA
BRANCH  14  15
HETATM   15  C2  UNL     1       7.428 -10.843   5.432  1.00  0.00     0.255 C 
HETATM   16  C1  UNL     1       7.158  -9.950   6.652  1.00  0.00     0.070 C 
BRANCH  15  17
HETATM   17  O1  UNL     1       8.367 -11.811   5.758  1.00  0.00    -0.372 OA
ATOM     18  H1  UNL     1       8.247 -12.574   5.205  1.00  0.00     0.212 HD
ENDBRANCH  15  17
ENDBRANCH  14  15
ENDBRANCH  13  14
ENDBRANCH   1  13
BRANCH   4  19
HETATM   19  O3  UNL     1       7.342 -16.058   4.320  1.00  0.00    -0.265 OA
ATOM     20  H3  UNL     1       6.952 -16.924   4.348  1.00  0.00     0.247 HD
ENDBRANCH   4  19
BRANCH  11  21
HETATM   21  N7  UNL     1       5.097 -11.992   0.837  1.00  0.00    -0.383 N 
ATOM     22  H72 UNL     1       4.686 -11.430   1.583  1.00  0.00     0.157 HD
ATOM     23  H71 UNL     1       5.218 -11.564  -0.081  1.00  0.00     0.157 HD
ENDBRANCH  11  21
BRANCH   8  24
HETATM   24  N5  UNL     1       5.473 -16.263  -0.626  1.00  0.00    -0.234 N 
ATOM     25  H52 UNL     1       6.193 -16.975  -0.753  1.00  0.00     0.174 HD
ATOM     26  H51 UNL     1       4.651 -16.223  -1.228  1.00  0.00     0.174 HD
ENDBRANCH   8  24
TORSDOF 7
ENDMDL
MODEL 4
REMARK VINA RESULT: -7.355921561      1.607      2.866
REMARK  7 active torsions:
REMARK  status: ('A' for Active; 'I' for Inactive)
REMARK    1  A    between atoms: C2_2  and  O1_3 
REMARK    2  A    between atoms: C2_2  and  O2_5 
REMARK    3  A    between atoms: O2_5  and  C3_6 
REMARK    4  A    between atoms: C3_6  and  N1_7 
REMARK    5  A    between atoms: N3_10  and  O3_11 
REMARK    6  A    between atoms: C5_16  and  N5_17 
REMARK    7  A    between atoms: C6_22  and  N7_23 
ROOT
HETATM    1  N1  UNL     1       7.084 -12.501   3.643  1.00  0.00    -0.245 N 
HETATM    2  N2  UNL     1       7.041 -13.516   4.493  1.00  0.00    -0.210 N 
ATOM      3  H2  UNL     1       7.274 -13.439   5.483  1.00  0.00     0.211 HD
HETATM    4  N3  UNL     1       6.662 -14.632   3.912  1.00  0.00    -0.128 N 
HETATM    5  C4  UNL     1       6.450 -14.340   2.636  1.00  0.00     0.200 A 
HETATM    6  N4  UNL     1       6.053 -15.073   1.577  1.00  0.00    -0.170 N 
ATOM      7  H4  UNL     1       5.852 -16.068   1.686  1.00  0.00     0.186 HD
HETATM    8  C5  UNL     1       5.925 -14.485   0.381  1.00  0.00     0.679 A 
HETATM    9  N6  UNL     1       6.183 -13.179   0.210  1.00  0.00    -0.175 N 
ATOM     10  H6  UNL     1       6.077 -12.761  -0.713  1.00  0.00     0.186 HD
HETATM   11  C6  UNL     1       6.584 -12.408   1.251  1.00  0.00     0.147 A 
HETATM   12  C7  UNL     1       6.719 -12.990   2.468  1.00  0.00     0.147 A 
ENDROOT
BRANCH   1  13
HETATM   13  C3  UNL     1       7.477 -11.178   4.058  1.00  0.00     0.321 C 
BRANCH  13  14
HETATM   14  O2  UNL     1       7.728 -11.253   5.430  1.00  0.00    -0.341 OA
BRANCH  14  15
HETATM   15  C2  UNL     1       6.853 -10.531   6.193  1.00  0.00     0.255 C 
HETATM   16  C1  UNL     1       7.699  -9.659   7.130  1.00  0.00     0.070 C 
BRANCH  15  17
HETATM   17  O1  UNL     1       5.990  -9.729   5.458  1.00  0.00    -0.372 OA
ATOM     18  H1  UNL     1       5.516 -10.260   4.829  1.00  0.00     0.212 HD
ENDBRANCH  15  17
ENDBRANCH  14  15
ENDBRANCH  13  14
ENDBRANCH   1  13
BRANCH   4  19
HETATM   19  O3  UNL     1       6.505 -15.879   4.480  1.00  0.00    -0.265 OA
ATOM     20  H3  UNL     1       6.264 -16.693   4.053  1.00  0.00     0.247 HD
ENDBRANCH   4  19
BRANCH  11  21
HETATM   21  N7  UNL     1       6.828 -11.171   1.098  1.00  0.00    -0.383 N 
ATOM     22  H72 UNL     1       6.075 -10.485   1.142  1.00  0.00     0.157 HD
ATOM     23  H71 UNL     1       7.777 -10.838   0.926  1.00  0.00     0.157 HD
ENDBRANCH  11  21
BRANCH   8  24
HETATM   24  N5  UNL     1       5.548 -15.140  -0.672  1.00  0.00    -0.234 N 
ATOM     25  H52 UNL     1       4.727 -15.736  -0.566  1.00  0.00     0.174 HD
ATOM     26  H51 UNL     1       6.042 -15.067  -1.561  1.00  0.00     0.174 HD
ENDBRANCH   8  24
TORSDOF 7
ENDMDL
MODEL 5
REMARK VINA RESULT: -7.353746611      2.295      5.225
REMARK  7 active torsions:
REMARK  status: ('A' for Active; 'I' for Inactive)
REMARK    1  A    between atoms: C2_2  and  O1_3 
REMARK    2  A    between atoms: C2_2  and  O2_5 
REMARK    3  A    between atoms: O2_5  and  C3_6 
REMARK    4  A    between atoms: C3_6  and  N1_7 
REMARK    5  A    between atoms: N3_10  and  O3_11 
REMARK    6  A    between atoms: C5_16  and  N5_17 
REMARK    7  A    between atoms: C6_22  and  N7_23 
ROOT
HETATM    1  N1  UNL     1       5.640 -13.523   1.489  1.00  0.00    -0.245 N 
HETATM    2  N2  UNL     1       5.072 -12.491   0.885  1.00  0.00    -0.210 N 
ATOM      3  H2  UNL     1       4.572 -12.555  -0.002  1.00  0.00     0.211 HD
HETATM    4  N3  UNL     1       5.228 -11.375   1.562  1.00  0.00    -0.128 N 
HETATM    5  C4  UNL     1       5.923 -11.685   2.648  1.00  0.00     0.200 A 
HETATM    6  N4  UNL     1       6.375 -10.961   3.691  1.00  0.00    -0.170 N 
ATOM      7  H4  UNL     1       6.191  -9.959   3.739  1.00  0.00     0.186 HD
HETATM    8  C5  UNL     1       7.066 -11.569   4.663  1.00  0.00     0.679 A 
HETATM    9  N6  UNL     1       7.322 -12.886   4.623  1.00  0.00    -0.175 N 
ATOM     10  H6  UNL     1       7.852 -13.319   5.379  1.00  0.00     0.186 HD
HETATM   11  C6  UNL     1       6.885 -13.649   3.590  1.00  0.00     0.147 A 
HETATM   12  C7  UNL     1       6.183 -13.046   2.599  1.00  0.00     0.147 A 
ENDROOT
BRANCH   1  13
HETATM   13  C3  UNL     1       5.599 -14.849   0.928  1.00  0.00     0.321 C 
BRANCH  13  14
HETATM   14  O2  UNL     1       6.804 -15.024   0.242  1.00  0.00    -0.341 OA
BRANCH  14  15
HETATM   15  C2  UNL     1       6.680 -15.725  -0.926  1.00  0.00     0.255 C 
HETATM   16  C1  UNL     1       5.800 -16.944  -0.618  1.00  0.00     0.070 C 
BRANCH  15  17
HETATM   17  O1  UNL     1       6.123 -14.995  -1.967  1.00  0.00    -0.372 OA
ATOM     18  H1  UNL     1       6.715 -14.991  -2.709  1.00  0.00     0.212 HD
ENDBRANCH  15  17
ENDBRANCH  14  15
ENDBRANCH  13  14
ENDBRANCH   1  13
BRANCH   4  19
HETATM   19  O3  UNL     1       4.775 -10.112   1.241  1.00  0.00    -0.265 OA
ATOM     20  H3  UNL     1       4.874  -9.308   1.738  1.00  0.00     0.247 HD
ENDBRANCH   4  19
BRANCH  11  21
HETATM   21  N7  UNL     1       7.122 -14.895   3.547  1.00  0.00    -0.383 N 
ATOM     22  H72 UNL     1       7.313 -15.416   4.403  1.00  0.00     0.157 HD
ATOM     23  H71 UNL     1       7.126 -15.401   2.661  1.00  0.00     0.157 HD
ENDBRANCH  11  21
BRANCH   8  24
HETATM   24  N5  UNL     1       7.524 -10.923   5.688  1.00  0.00    -0.234 N 
ATOM     25  H52 UNL     1       7.498  -9.905   5.633  1.00  0.00     0.174 HD
ATOM     26  H51 UNL     1       7.892 -11.403   6.510  1.00  0.00     0.174 HD
ENDBRANCH   8  24
TORSDOF 7
ENDMDL
