MODEL 1
REMARK VINA RESULT: -9.409750557      0.000      0.000
REMARK  11 active torsions:
REMARK  status: ('A' for Active; 'I' for Inactive)
REMARK    1  A    between atoms: C2_2  and  O1_4 
REMARK    2  A    between atoms: O1_4  and  C4_5 
REMARK    3  A    between atoms: C5_7  and  C6_8 
REMARK    4  A    between atoms: C6_8  and  O3_9 
REMARK    5  A    between atoms: O3_9  and  C7_10 
REMARK    6  A    between atoms: C7_10  and  C8_12 
REMARK    7  A    between atoms: C9_13  and  C10_14 
REMARK    8  A    between atoms: C15_19  and  C16_20 
REMARK    9  A    between atoms: C20_27  and  C21_28 
REMARK   10  A    between atoms: C21_28  and  O8_29 
REMARK   11  A    between atoms: C22_31  and  O9_32 
ROOT
HETATM    1  O3  UNL     1      27.787  25.723  22.509  1.00  0.00    -0.313 OA
ENDROOT
BRANCH   1   2
HETATM    2  C6  UNL     1      28.342  24.920  21.546  1.00  0.00     0.240 C 
BRANCH   2   3
HETATM    3  C5  UNL     1      27.573  23.666  21.276  1.00  0.00     0.288 C 
HETATM    4  O2  UNL     1      28.505  22.586  21.382  1.00  0.00    -0.327 OA
HETATM    5  C4  UNL     1      27.914  21.527  20.709  1.00  0.00     0.294 C 
HETATM    6  C22 UNL     1      26.741  21.079  21.549  1.00  0.00     0.204 C 
HETATM    7  C20 UNL     1      26.227  22.169  22.449  1.00  0.00     0.181 C 
HETATM    8  O7  UNL     1      26.459  23.435  21.988  1.00  0.00    -0.349 OA
BRANCH   5   9
HETATM    9  O1  UNL     1      28.796  20.476  20.478  1.00  0.00    -0.354 OA
BRANCH   9  10
HETATM   10  C2  UNL     1      29.448  20.598  19.277  1.00  0.00     0.116 C 
HETATM   11  C1  UNL     1      28.528  20.445  18.087  1.00  0.00     0.039 C 
HETATM   12  C3  UNL     1      30.537  19.569  19.187  1.00  0.00     0.039 C 
ENDBRANCH   9  10
ENDBRANCH   5   9
BRANCH   6  13
HETATM   13  O9  UNL     1      25.727  20.566  20.727  1.00  0.00    -0.388 OA
ATOM     14  H9  UNL     1      24.917  21.039  20.874  1.00  0.00     0.210 HD
ENDBRANCH   6  13
BRANCH   7  15
HETATM   15  C21 UNL     1      26.778  21.986  23.868  1.00  0.00     0.199 C 
BRANCH  15  16
HETATM   16  O8  UNL     1      27.612  20.886  23.944  1.00  0.00    -0.398 OA
ATOM     17  H8  UNL     1      27.496  20.421  24.764  1.00  0.00     0.209 HD
ENDBRANCH  15  16
ENDBRANCH   7  15
ENDBRANCH   2   3
ENDBRANCH   1   2
BRANCH   1  18
HETATM   18  C7  UNL     1      28.348  26.047  23.773  1.00  0.00     0.283 C 
HETATM   19  O4  UNL     1      28.389  25.074  24.545  1.00  0.00    -0.260 OA
BRANCH  18  20
HETATM   20  C8  UNL     1      28.788  27.398  24.018  1.00  0.00     0.083 C 
HETATM   21  C9  UNL     1      28.419  28.334  24.764  1.00  0.00     0.018 C 
BRANCH  21  22
HETATM   22  C10 UNL     1      27.429  28.650  25.763  1.00  0.00    -0.026 A 
HETATM   23  C11 UNL     1      26.419  27.797  26.104  1.00  0.00     0.051 A 
HETATM   24  C12 UNL     1      25.400  28.117  27.026  1.00  0.00     0.105 A 
HETATM   25  C13 UNL     1      25.434  29.359  27.611  1.00  0.00     0.105 A 
HETATM   26  O6  UNL     1      24.294  27.411  27.508  1.00  0.00    -0.323 OA
HETATM   27  C14 UNL     1      26.448  30.218  27.272  1.00  0.00     0.048 A 
HETATM   28  O5  UNL     1      24.319  29.390  28.463  1.00  0.00    -0.323 OA
HETATM   29  C15 UNL     1      27.443  29.920  26.377  1.00  0.00    -0.042 A 
HETATM   30  C19 UNL     1      23.391  28.401  28.024  1.00  0.00     0.352 C 
BRANCH  29  31
HETATM   31  C16 UNL     1      28.494  30.923  26.053  1.00  0.00     0.011 C 
HETATM   32  C17 UNL     1      29.689  30.749  26.993  1.00  0.00     0.015 C 
HETATM   33  C18 UNL     1      27.918  32.319  26.201  1.00  0.00     0.015 C 
ENDBRANCH  29  31
ENDBRANCH  21  22
ENDBRANCH  18  20
ENDBRANCH   1  18
TORSDOF 11
ENDMDL
MODEL 2
REMARK VINA RESULT: -9.392519217      1.394      3.209
REMARK  11 active torsions:
REMARK  status: ('A' for Active; 'I' for Inactive)
REMARK    1  A    between atoms: C2_2  and  O1_4 
REMARK    2  A    between atoms: O1_4  and  C4_5 
REMARK    3  A    between atoms: C5_7  and  C6_8 
REMARK    4  A    between atoms: C6_8  and  O3_9 
REMARK    5  A    between atoms: O3_9  and  C7_10 
REMARK    6  A    between atoms: C7_10  and  C8_12 
REMARK    7  A    between atoms: C9_13  and  C10_14 
REMARK    8  A    between atoms: C15_19  and  C16_20 
REMARK    9  A    between atoms: C20_27  and  C21_28 
REMARK   10  A    between atoms: C21_28  and  O8_29 
REMARK   11  A    between atoms: C22_31  and  O9_32 
ROOT
HETATM    1  O3  UNL     1      27.011  25.496  21.852  1.00  0.00    -0.313 OA
ENDROOT
BRANCH   1   2
HETATM    2  C6  UNL     1      27.794  24.631  21.132  1.00  0.00     0.240 C 
BRANCH   2   3
HETATM    3  C5  UNL     1      27.883  23.256  21.713  1.00  0.00     0.288 C 
HETATM    4  O2  UNL     1      26.555  22.724  21.707  1.00  0.00    -0.327 OA
HETATM    5  C4  UNL     1      26.574  21.685  22.626  1.00  0.00     0.294 C 
HETATM    6  C22 UNL     1      27.410  20.583  22.020  1.00  0.00     0.204 C 
HETATM    7  C20 UNL     1      28.386  21.097  20.996  1.00  0.00     0.181 C 
HETATM    8  O7  UNL     1      28.767  22.396  21.185  1.00  0.00    -0.349 OA
BRANCH   5   9
HETATM    9  O1  UNL     1      25.300  21.229  22.949  1.00  0.00    -0.354 OA
BRANCH   9  10
HETATM   10  C2  UNL     1      24.554  22.180  23.596  1.00  0.00     0.116 C 
HETATM   11  C1  UNL     1      24.948  22.356  25.045  1.00  0.00     0.039 C 
HETATM   12  C3  UNL     1      23.100  21.815  23.526  1.00  0.00     0.039 C 
ENDBRANCH   9  10
ENDBRANCH   5   9
BRANCH   6  13
HETATM   13  O9  UNL     1      28.057  19.857  23.029  1.00  0.00    -0.388 OA
ATOM     14  H9  UNL     1      28.487  20.449  23.635  1.00  0.00     0.210 HD
ENDBRANCH   6  13
BRANCH   7  15
HETATM   15  C21 UNL     1      27.829  20.884  19.583  1.00  0.00     0.199 C 
BRANCH  15  16
HETATM   16  O8  UNL     1      26.556  20.347  19.621  1.00  0.00    -0.398 OA
ATOM     17  H8  UNL     1      25.942  20.945  20.030  1.00  0.00     0.209 HD
ENDBRANCH  15  16
ENDBRANCH   7  15
ENDBRANCH   2   3
ENDBRANCH   1   2
BRANCH   1  18
HETATM   18  C7  UNL     1      27.175  25.861  23.214  1.00  0.00     0.283 C 
HETATM   19  O4  UNL     1      26.264  25.429  23.942  1.00  0.00    -0.260 OA
BRANCH  18  20
HETATM   20  C8  UNL     1      28.320  26.651  23.594  1.00  0.00     0.083 C 
HETATM   21  C9  UNL     1      28.533  27.571  24.417  1.00  0.00     0.018 C 
BRANCH  21  22
HETATM   22  C10 UNL     1      27.862  28.359  25.421  1.00  0.00    -0.026 A 
HETATM   23  C11 UNL     1      26.742  27.931  26.074  1.00  0.00     0.051 A 
HETATM   24  C12 UNL     1      26.030  28.716  27.006  1.00  0.00     0.105 A 
HETATM   25  C13 UNL     1      26.499  29.980  27.268  1.00  0.00     0.105 A 
HETATM   26  O6  UNL     1      24.883  28.483  27.770  1.00  0.00    -0.323 OA
HETATM   27  C14 UNL     1      27.625  30.412  26.615  1.00  0.00     0.048 A 
HETATM   28  O5  UNL     1      25.607  30.510  28.213  1.00  0.00    -0.323 OA
HETATM   29  C15 UNL     1      28.325  29.660  25.706  1.00  0.00    -0.042 A 
HETATM   30  C19 UNL     1      24.385  29.778  28.136  1.00  0.00     0.352 C 
BRANCH  29  31
HETATM   31  C16 UNL     1      29.528  30.218  25.030  1.00  0.00     0.011 C 
HETATM   32  C17 UNL     1      30.767  29.992  25.898  1.00  0.00     0.015 C 
HETATM   33  C18 UNL     1      29.325  31.703  24.792  1.00  0.00     0.015 C 
ENDBRANCH  29  31
ENDBRANCH  21  22
ENDBRANCH  18  20
ENDBRANCH   1  18
TORSDOF 11
ENDMDL
MODEL 3
REMARK VINA RESULT: -9.381393787      0.991      1.245
REMARK  11 active torsions:
REMARK  status: ('A' for Active; 'I' for Inactive)
REMARK    1  A    between atoms: C2_2  and  O1_4 
REMARK    2  A    between atoms: O1_4  and  C4_5 
REMARK    3  A    between atoms: C5_7  and  C6_8 
REMARK    4  A    between atoms: C6_8  and  O3_9 
REMARK    5  A    between atoms: O3_9  and  C7_10 
REMARK    6  A    between atoms: C7_10  and  C8_12 
REMARK    7  A    between atoms: C9_13  and  C10_14 
REMARK    8  A    between atoms: C15_19  and  C16_20 
REMARK    9  A    between atoms: C20_27  and  C21_28 
REMARK   10  A    between atoms: C21_28  and  O8_29 
REMARK   11  A    between atoms: C22_31  and  O9_32 
ROOT
HETATM    1  O3  UNL     1      27.271  25.303  21.844  1.00  0.00    -0.313 OA
ENDROOT
BRANCH   1   2
HETATM    2  C6  UNL     1      28.089  24.397  21.221  1.00  0.00     0.240 C 
BRANCH   2   3
HETATM    3  C5  UNL     1      27.478  23.044  21.037  1.00  0.00     0.288 C 
HETATM    4  O2  UNL     1      28.494  22.091  21.360  1.00  0.00    -0.327 OA
HETATM    5  C4  UNL     1      28.082  20.905  20.771  1.00  0.00     0.294 C 
HETATM    6  C22 UNL     1      26.877  20.430  21.546  1.00  0.00     0.204 C 
HETATM    7  C20 UNL     1      26.167  21.552  22.254  1.00  0.00     0.181 C 
HETATM    8  O7  UNL     1      26.323  22.775  21.665  1.00  0.00    -0.349 OA
BRANCH   5   9
HETATM    9  O1  UNL     1      29.082  19.937  20.752  1.00  0.00    -0.354 OA
BRANCH   9  10
HETATM   10  C2  UNL     1      29.695  19.844  19.529  1.00  0.00     0.116 C 
HETATM   11  C1  UNL     1      31.023  20.564  19.477  1.00  0.00     0.039 C 
HETATM   12  C3  UNL     1      28.793  20.406  18.469  1.00  0.00     0.039 C 
ENDBRANCH   9  10
ENDBRANCH   5   9
BRANCH   6  13
HETATM   13  O9  UNL     1      26.009  19.721  20.703  1.00  0.00    -0.388 OA
ATOM     14  H9  UNL     1      25.256  19.413  21.193  1.00  0.00     0.210 HD
ENDBRANCH   6  13
BRANCH   7  15
HETATM   15  C21 UNL     1      26.581  21.590  23.730  1.00  0.00     0.199 C 
BRANCH  15  16
HETATM   16  O8  UNL     1      27.616  20.709  23.984  1.00  0.00    -0.398 OA
ATOM     17  H8  UNL     1      28.389  21.164  24.295  1.00  0.00     0.209 HD
ENDBRANCH  15  16
ENDBRANCH   7  15
ENDBRANCH   2   3
ENDBRANCH   1   2
BRANCH   1  18
HETATM   18  C7  UNL     1      27.374  25.763  23.184  1.00  0.00     0.283 C 
HETATM   19  O4  UNL     1      26.457  25.340  23.910  1.00  0.00    -0.260 OA
BRANCH  18  20
HETATM   20  C8  UNL     1      28.471  26.625  23.546  1.00  0.00     0.083 C 
HETATM   21  C9  UNL     1      28.634  27.566  24.357  1.00  0.00     0.018 C 
BRANCH  21  22
HETATM   22  C10 UNL     1      27.923  28.323  25.357  1.00  0.00    -0.026 A 
HETATM   23  C11 UNL     1      26.827  27.841  26.014  1.00  0.00     0.051 A 
HETATM   24  C12 UNL     1      26.076  28.593  26.942  1.00  0.00     0.105 A 
HETATM   25  C13 UNL     1      26.479  29.881  27.197  1.00  0.00     0.105 A 
HETATM   26  O6  UNL     1      24.943  28.305  27.709  1.00  0.00    -0.323 OA
HETATM   27  C14 UNL     1      27.580  30.367  26.540  1.00  0.00     0.048 A 
HETATM   28  O5  UNL     1      25.561  30.369  28.140  1.00  0.00    -0.323 OA
HETATM   29  C15 UNL     1      28.318  29.648  25.635  1.00  0.00    -0.042 A 
HETATM   30  C19 UNL     1      24.379  29.575  28.068  1.00  0.00     0.352 C 
BRANCH  29  31
HETATM   31  C16 UNL     1      29.489  30.264  24.955  1.00  0.00     0.011 C 
HETATM   32  C17 UNL     1      30.764  29.984  25.753  1.00  0.00     0.015 C 
HETATM   33  C18 UNL     1      29.271  31.761  24.837  1.00  0.00     0.015 C 
ENDBRANCH  29  31
ENDBRANCH  21  22
ENDBRANCH  18  20
ENDBRANCH   1  18
TORSDOF 11
ENDMDL
MODEL 4
REMARK VINA RESULT: -9.329917776      1.113      1.197
REMARK  11 active torsions:
REMARK  status: ('A' for Active; 'I' for Inactive)
REMARK    1  A    between atoms: C2_2  and  O1_4 
REMARK    2  A    between atoms: O1_4  and  C4_5 
REMARK    3  A    between atoms: C5_7  and  C6_8 
REMARK    4  A    between atoms: C6_8  and  O3_9 
REMARK    5  A    between atoms: O3_9  and  C7_10 
REMARK    6  A    between atoms: C7_10  and  C8_12 
REMARK    7  A    between atoms: C9_13  and  C10_14 
REMARK    8  A    between atoms: C15_19  and  C16_20 
REMARK    9  A    between atoms: C20_27  and  C21_28 
REMARK   10  A    between atoms: C21_28  and  O8_29 
REMARK   11  A    between atoms: C22_31  and  O9_32 
ROOT
HETATM    1  O3  UNL     1      27.392  24.739  23.192  1.00  0.00    -0.313 OA
ENDROOT
BRANCH   1   2
HETATM    2  C6  UNL     1      27.731  24.213  21.973  1.00  0.00     0.240 C 
BRANCH   2   3
HETATM    3  C5  UNL     1      26.959  22.987  21.598  1.00  0.00     0.288 C 
HETATM    4  O2  UNL     1      27.919  22.015  21.178  1.00  0.00    -0.327 OA
HETATM    5  C4  UNL     1      27.201  21.091  20.432  1.00  0.00     0.294 C 
HETATM    6  C22 UNL     1      26.321  20.339  21.402  1.00  0.00     0.204 C 
HETATM    7  C20 UNL     1      26.039  21.126  22.654  1.00  0.00     0.181 C 
HETATM    8  O7  UNL     1      26.093  22.482  22.490  1.00  0.00    -0.349 OA
BRANCH   5   9
HETATM    9  O1  UNL     1      28.019  20.222  19.719  1.00  0.00    -0.354 OA
BRANCH   9  10
HETATM   10  C2  UNL     1      29.351  20.454  19.947  1.00  0.00     0.116 C 
HETATM   11  C1  UNL     1      30.100  20.874  18.703  1.00  0.00     0.039 C 
HETATM   12  C3  UNL     1      29.991  19.217  20.508  1.00  0.00     0.039 C 
ENDBRANCH   9  10
ENDBRANCH   5   9
BRANCH   6  13
HETATM   13  O9  UNL     1      25.137  19.937  20.768  1.00  0.00    -0.388 OA
ATOM     14  H9  UNL     1      24.596  19.440  21.370  1.00  0.00     0.210 HD
ENDBRANCH   6  13
BRANCH   7  15
HETATM   15  C21 UNL     1      26.966  20.667  23.785  1.00  0.00     0.199 C 
BRANCH  15  16
HETATM   16  O8  UNL     1      28.030  19.933  23.295  1.00  0.00    -0.398 OA
ATOM     17  H8  UNL     1      28.618  19.670  23.993  1.00  0.00     0.209 HD
ENDBRANCH  15  16
ENDBRANCH   7  15
ENDBRANCH   2   3
ENDBRANCH   1   2
BRANCH   1  18
HETATM   18  C7  UNL     1      28.141  25.676  23.953  1.00  0.00     0.283 C 
HETATM   19  O4  UNL     1      28.625  25.182  24.985  1.00  0.00    -0.260 OA
BRANCH  18  20
HETATM   20  C8  UNL     1      28.258  27.031  23.475  1.00  0.00     0.083 C 
HETATM   21  C9  UNL     1      28.000  28.165  23.940  1.00  0.00     0.018 C 
BRANCH  21  22
HETATM   22  C10 UNL     1      27.483  28.802  25.126  1.00  0.00    -0.026 A 
HETATM   23  C11 UNL     1      26.363  28.366  25.774  1.00  0.00     0.051 A 
HETATM   24  C12 UNL     1      25.800  29.019  26.892  1.00  0.00     0.105 A 
HETATM   25  C13 UNL     1      26.423  30.153  27.350  1.00  0.00     0.105 A 
HETATM   26  O6  UNL     1      24.682  28.753  27.688  1.00  0.00    -0.323 OA
HETATM   27  C14 UNL     1      27.549  30.592  26.703  1.00  0.00     0.048 A 
HETATM   28  O5  UNL     1      25.654  30.571  28.447  1.00  0.00    -0.323 OA
HETATM   29  C15 UNL     1      28.106  29.969  25.615  1.00  0.00    -0.042 A 
HETATM   30  C19 UNL     1      24.356  29.994  28.332  1.00  0.00     0.352 C 
BRANCH  29  31
HETATM   31  C16 UNL     1      29.320  30.528  24.963  1.00  0.00     0.011 C 
HETATM   32  C17 UNL     1      30.571  30.106  25.737  1.00  0.00     0.015 C 
HETATM   33  C18 UNL     1      29.220  32.042  24.928  1.00  0.00     0.015 C 
ENDBRANCH  29  31
ENDBRANCH  21  22
ENDBRANCH  18  20
ENDBRANCH   1  18
TORSDOF 11
ENDMDL
MODEL 5
REMARK VINA RESULT: -9.129795574      1.561      2.810
REMARK  11 active torsions:
REMARK  status: ('A' for Active; 'I' for Inactive)
REMARK    1  A    between atoms: C2_2  and  O1_4 
REMARK    2  A    between atoms: O1_4  and  C4_5 
REMARK    3  A    between atoms: C5_7  and  C6_8 
REMARK    4  A    between atoms: C6_8  and  O3_9 
REMARK    5  A    between atoms: O3_9  and  C7_10 
REMARK    6  A    between atoms: C7_10  and  C8_12 
REMARK    7  A    between atoms: C9_13  and  C10_14 
REMARK    8  A    between atoms: C15_19  and  C16_20 
REMARK    9  A    between atoms: C20_27  and  C21_28 
REMARK   10  A    between atoms: C21_28  and  O8_29 
REMARK   11  A    between atoms: C22_31  and  O9_32 
ROOT
HETATM    1  O3  UNL     1      27.419  25.113  24.392  1.00  0.00    -0.313 OA
ENDROOT
BRANCH   1   2
HETATM    2  C6  UNL     1      26.507  24.108  24.198  1.00  0.00     0.240 C 
BRANCH   2   3
HETATM    3  C5  UNL     1      27.091  22.849  23.640  1.00  0.00     0.288 C 
HETATM    4  O2  UNL     1      25.995  22.081  23.137  1.00  0.00    -0.327 OA
HETATM    5  C4  UNL     1      26.472  20.781  23.046  1.00  0.00     0.294 C 
HETATM    6  C22 UNL     1      27.477  20.765  21.918  1.00  0.00     0.204 C 
HETATM    7  C20 UNL     1      28.071  22.122  21.655  1.00  0.00     0.181 C 
HETATM    8  O7  UNL     1      28.084  22.950  22.742  1.00  0.00    -0.349 OA
BRANCH   5   9
HETATM    9  O1  UNL     1      25.461  19.850  22.831  1.00  0.00    -0.354 OA
BRANCH   9  10
HETATM   10  C2  UNL     1      24.437  20.358  22.074  1.00  0.00     0.116 C 
HETATM   11  C1  UNL     1      23.139  20.475  22.839  1.00  0.00     0.039 C 
HETATM   12  C3  UNL     1      24.218  19.487  20.872  1.00  0.00     0.039 C 
ENDBRANCH   9  10
ENDBRANCH   5   9
BRANCH   6  13
HETATM   13  O9  UNL     1      28.470  19.808  22.170  1.00  0.00    -0.388 OA
ATOM     14  H9  UNL     1      28.100  19.068  22.637  1.00  0.00     0.210 HD
ENDBRANCH   6  13
BRANCH   7  15
HETATM   15  C21 UNL     1      27.368  22.783  20.463  1.00  0.00     0.199 C 
BRANCH  15  16
HETATM   16  O8  UNL     1      27.015  21.849  19.507  1.00  0.00    -0.398 OA
ATOM     17  H8  UNL     1      26.411  22.215  18.873  1.00  0.00     0.209 HD
ENDBRANCH  15  16
ENDBRANCH   7  15
ENDBRANCH   2   3
ENDBRANCH   1   2
BRANCH   1  18
HETATM   18  C7  UNL     1      27.641  26.235  23.550  1.00  0.00     0.283 C 
HETATM   19  O4  UNL     1      27.095  26.119  22.439  1.00  0.00    -0.260 OA
BRANCH  18  20
HETATM   20  C8  UNL     1      28.433  27.335  24.042  1.00  0.00     0.083 C 
HETATM   21  C9  UNL     1      28.283  28.218  24.918  1.00  0.00     0.018 C 
BRANCH  21  22
HETATM   22  C10 UNL     1      27.336  28.670  25.906  1.00  0.00    -0.026 A 
HETATM   23  C11 UNL     1      26.283  27.911  26.328  1.00  0.00     0.051 A 
HETATM   24  C12 UNL     1      25.306  28.364  27.240  1.00  0.00     0.105 A 
HETATM   25  C13 UNL     1      25.430  29.641  27.729  1.00  0.00     0.105 A 
HETATM   26  O6  UNL     1      24.168  27.768  27.793  1.00  0.00    -0.323 OA
HETATM   27  C14 UNL     1      26.488  30.405  27.309  1.00  0.00     0.048 A 
HETATM   28  O5  UNL     1      24.338  29.806  28.595  1.00  0.00    -0.323 OA
HETATM   29  C15 UNL     1      27.444  29.979  26.422  1.00  0.00    -0.042 A 
HETATM   30  C19 UNL     1      23.340  28.849  28.247  1.00  0.00     0.352 C 
BRANCH  29  31
HETATM   31  C16 UNL     1      28.548  30.885  26.006  1.00  0.00     0.011 C 
HETATM   32  C17 UNL     1      29.730  30.744  26.967  1.00  0.00     0.015 C 
HETATM   33  C18 UNL     1      28.048  32.318  26.008  1.00  0.00     0.015 C 
ENDBRANCH  29  31
ENDBRANCH  21  22
ENDBRANCH  18  20
ENDBRANCH   1  18
TORSDOF 11
ENDMDL
