MODEL 1
REMARK VINA RESULT: -7.955943783      0.000      0.000
REMARK  10 active torsions:
REMARK  status: ('A' for Active; 'I' for Inactive)
REMARK    1  A    between atoms: C2_2  and  O1_3 
REMARK    2  A    between atoms: O1_3  and  C3_4 
REMARK    3  A    between atoms: C5_6  and  C6_7 
REMARK    4  A    between atoms: C6_7  and  O2_8 
REMARK    5  A    between atoms: C6_7  and  N1_16 
REMARK    6  A    between atoms: O2_8  and  C7_9 
REMARK    7  A    between atoms: N3_25  and  C19_26 
REMARK    8  A    between atoms: C19_26  and  C20_27 
REMARK    9  A    between atoms: C20_27  and  O4_28 
REMARK   10  A    between atoms: N4_30  and  O5_32 
ROOT
HETATM    1  C3  UNL     1      25.621  23.024  23.271  1.00  0.00     0.140 A 
HETATM    2  C4  UNL     1      25.827  24.339  23.634  1.00  0.00     0.073 A 
HETATM    3  C5  UNL     1      25.133  24.902  24.705  1.00  0.00     0.087 A 
HETATM    4  N2  UNL     1      24.271  24.077  25.334  1.00  0.00    -0.295 N 
ATOM      5  H2  UNL     1      23.746  24.455  26.122  1.00  0.00     0.187 HD
HETATM    6  N3  UNL     1      24.060  22.834  25.011  1.00  0.00    -0.247 N 
HETATM    7  C21 UNL     1      24.717  22.274  23.985  1.00  0.00     0.295 A 
HETATM    8  O6  UNL     1      24.505  21.072  23.680  1.00  0.00    -0.263 OA
ENDROOT
BRANCH   3   9
HETATM    9  C6  UNL     1      25.332  26.316  25.121  1.00  0.00     0.412 C 
BRANCH   9  10
HETATM   10  O2  UNL     1      24.977  26.486  26.448  1.00  0.00    -0.347 OA
BRANCH  10  11
HETATM   11  C7  UNL     1      24.010  27.432  26.659  1.00  0.00     0.124 C 
HETATM   12  C8  UNL     1      22.699  26.685  26.938  1.00  0.00     0.032 C 
HETATM   13  C9  UNL     1      22.587  26.432  28.443  1.00  0.00     0.007 C 
HETATM   14  C10 UNL     1      22.181  27.724  29.075  1.00  0.00    -0.019 C 
HETATM   15  C11 UNL     1      22.352  27.745  30.573  1.00  0.00     0.010 C 
HETATM   16  C12 UNL     1      22.973  28.840  28.442  1.00  0.00     0.007 C 
HETATM   17  C13 UNL     1      24.269  28.333  27.831  1.00  0.00     0.032 C 
ENDBRANCH  10  11
ENDBRANCH   9  10
BRANCH   9  18
HETATM   18  N1  UNL     1      26.611  26.854  24.797  1.00  0.00     0.131 N 
HETATM   19  C14 UNL     1      27.639  26.153  25.544  1.00  0.00     0.303 C 
HETATM   20  C15 UNL     1      28.937  26.340  24.745  1.00  0.00     0.198 C 
HETATM   21  O3  UNL     1      28.888  27.537  24.039  1.00  0.00    -0.387 OA
HETATM   22  C16 UNL     1      28.271  28.553  24.740  1.00  0.00     0.203 C 
HETATM   23  C17 UNL     1      26.785  28.250  24.986  1.00  0.00     0.246 C 
HETATM   24  C18 UNL     1      25.993  29.100  24.023  1.00  0.00     0.045 C 
ENDBRANCH   9  18
ENDBRANCH   3   9
BRANCH   1  25
HETATM   25  O1  UNL     1      26.333  22.486  22.191  1.00  0.00    -0.346 OA
BRANCH  25  26
HETATM   26  C2  UNL     1      27.697  22.213  22.285  1.00  0.00     0.171 C 
HETATM   27  C1  UNL     1      28.382  22.790  21.061  1.00  0.00     0.034 C 
ENDBRANCH  25  26
ENDBRANCH   1  25
BRANCH   6  28
HETATM   28  C19 UNL     1      23.103  22.012  25.753  1.00  0.00     0.238 C 
BRANCH  28  29
HETATM   29  C20 UNL     1      21.719  22.474  25.588  1.00  0.00     0.155 C 
HETATM   30  N4  UNL     1      21.052  22.132  24.555  1.00  0.00    -0.250 N 
ATOM     31  H4  UNL     1      21.525  21.536  23.875  1.00  0.00     0.196 HD
BRANCH  29  32
HETATM   32  O4  UNL     1      21.138  23.276  26.544  1.00  0.00    -0.347 OA
ATOM     33  H4  UNL     1      21.427  24.174  26.653  1.00  0.00     0.219 HD
ENDBRANCH  29  32
BRANCH  30  34
HETATM   34  O5  UNL     1      19.772  22.487  24.278  1.00  0.00    -0.288 OA
ATOM     35  H5  UNL     1      19.365  22.482  23.419  1.00  0.00     0.244 HD
ENDBRANCH  30  34
ENDBRANCH  28  29
ENDBRANCH   6  28
TORSDOF 10
ENDMDL
MODEL 2
REMARK VINA RESULT: -7.629822448      2.496      5.881
REMARK  10 active torsions:
REMARK  status: ('A' for Active; 'I' for Inactive)
REMARK    1  A    between atoms: C2_2  and  O1_3 
REMARK    2  A    between atoms: O1_3  and  C3_4 
REMARK    3  A    between atoms: C5_6  and  C6_7 
REMARK    4  A    between atoms: C6_7  and  O2_8 
REMARK    5  A    between atoms: C6_7  and  N1_16 
REMARK    6  A    between atoms: O2_8  and  C7_9 
REMARK    7  A    between atoms: N3_25  and  C19_26 
REMARK    8  A    between atoms: C19_26  and  C20_27 
REMARK    9  A    between atoms: C20_27  and  O4_28 
REMARK   10  A    between atoms: N4_30  and  O5_32 
ROOT
HETATM    1  C3  UNL     1      25.757  23.235  24.383  1.00  0.00     0.140 A 
HETATM    2  C4  UNL     1      25.779  24.499  24.934  1.00  0.00     0.073 A 
HETATM    3  C5  UNL     1      26.621  25.488  24.425  1.00  0.00     0.087 A 
HETATM    4  N2  UNL     1      27.387  25.113  23.381  1.00  0.00    -0.295 N 
ATOM      5  H2  UNL     1      28.016  25.810  22.983  1.00  0.00     0.187 HD
HETATM    6  N3  UNL     1      27.386  23.928  22.843  1.00  0.00    -0.247 N 
HETATM    7  C21 UNL     1      26.583  22.964  23.318  1.00  0.00     0.295 A 
HETATM    8  O6  UNL     1      26.589  21.821  22.792  1.00  0.00    -0.263 OA
ENDROOT
BRANCH   3   9
HETATM    9  C6  UNL     1      26.666  26.860  24.997  1.00  0.00     0.412 C 
BRANCH   9  10
HETATM   10  O2  UNL     1      26.735  27.804  23.988  1.00  0.00    -0.347 OA
BRANCH  10  11
HETATM   11  C7  UNL     1      28.001  28.247  23.711  1.00  0.00     0.124 C 
HETATM   12  C8  UNL     1      27.923  29.771  23.556  1.00  0.00     0.032 C 
HETATM   13  C9  UNL     1      28.145  30.417  24.926  1.00  0.00     0.007 C 
HETATM   14  C10 UNL     1      29.611  30.352  25.208  1.00  0.00    -0.019 C 
HETATM   15  C11 UNL     1      29.963  30.632  26.648  1.00  0.00     0.010 C 
HETATM   16  C12 UNL     1      30.120  28.994  24.800  1.00  0.00     0.007 C 
HETATM   17  C13 UNL     1      29.009  27.957  24.784  1.00  0.00     0.032 C 
ENDBRANCH  10  11
ENDBRANCH   9  10
BRANCH   9  18
HETATM   18  N1  UNL     1      25.659  27.130  25.968  1.00  0.00     0.131 N 
HETATM   19  C14 UNL     1      24.350  26.889  25.393  1.00  0.00     0.303 C 
HETATM   20  C15 UNL     1      23.415  26.616  26.580  1.00  0.00     0.198 C 
HETATM   21  O3  UNL     1      23.877  27.284  27.708  1.00  0.00    -0.387 OA
HETATM   22  C16 UNL     1      24.402  28.528  27.422  1.00  0.00     0.203 C 
HETATM   23  C17 UNL     1      25.666  28.423  26.554  1.00  0.00     0.246 C 
HETATM   24  C18 UNL     1      26.847  28.678  27.458  1.00  0.00     0.045 C 
ENDBRANCH   9  18
ENDBRANCH   3   9
BRANCH   1  25
HETATM   25  O1  UNL     1      24.901  22.263  24.916  1.00  0.00    -0.346 OA
BRANCH  25  26
HETATM   26  C2  UNL     1      23.517  22.430  24.903  1.00  0.00     0.171 C 
HETATM   27  C1  UNL     1      22.977  21.824  23.621  1.00  0.00     0.034 C 
ENDBRANCH  25  26
ENDBRANCH   1  25
BRANCH   6  28
HETATM   28  C19 UNL     1      28.254  23.610  21.709  1.00  0.00     0.238 C 
BRANCH  28  29
HETATM   29  C20 UNL     1      28.306  24.697  20.721  1.00  0.00     0.155 C 
HETATM   30  N4  UNL     1      29.432  25.189  20.375  1.00  0.00    -0.250 N 
ATOM     31  H4  UNL     1      30.264  24.794  20.812  1.00  0.00     0.196 HD
BRANCH  29  32
HETATM   32  O4  UNL     1      27.145  25.185  20.168  1.00  0.00    -0.347 OA
ATOM     33  H4  UNL     1      27.152  25.556  19.294  1.00  0.00     0.219 HD
ENDBRANCH  29  32
BRANCH  30  34
HETATM   34  O5  UNL     1      29.623  26.191  19.480  1.00  0.00    -0.288 OA
ATOM     35  H5  UNL     1      30.451  26.433  19.081  1.00  0.00     0.244 HD
ENDBRANCH  30  34
ENDBRANCH  28  29
ENDBRANCH   6  28
TORSDOF 10
ENDMDL
MODEL 3
REMARK VINA RESULT: -7.610488478      1.636      4.302
REMARK  10 active torsions:
REMARK  status: ('A' for Active; 'I' for Inactive)
REMARK    1  A    between atoms: C2_2  and  O1_3 
REMARK    2  A    between atoms: O1_3  and  C3_4 
REMARK    3  A    between atoms: C5_6  and  C6_7 
REMARK    4  A    between atoms: C6_7  and  O2_8 
REMARK    5  A    between atoms: C6_7  and  N1_16 
REMARK    6  A    between atoms: O2_8  and  C7_9 
REMARK    7  A    between atoms: N3_25  and  C19_26 
REMARK    8  A    between atoms: C19_26  and  C20_27 
REMARK    9  A    between atoms: C20_27  and  O4_28 
REMARK   10  A    between atoms: N4_30  and  O5_32 
ROOT
HETATM    1  C3  UNL     1      26.607  24.007  22.589  1.00  0.00     0.140 A 
HETATM    2  C4  UNL     1      26.782  25.251  23.158  1.00  0.00     0.073 A 
HETATM    3  C5  UNL     1      26.297  25.527  24.437  1.00  0.00     0.087 A 
HETATM    4  N2  UNL     1      25.663  24.506  25.048  1.00  0.00    -0.295 N 
ATOM      5  H2  UNL     1      25.295  24.672  25.984  1.00  0.00     0.187 HD
HETATM    6  N3  UNL     1      25.485  23.324  24.532  1.00  0.00    -0.247 N 
HETATM    7  C21 UNL     1      25.944  23.039  23.305  1.00  0.00     0.295 A 
HETATM    8  O6  UNL     1      25.768  21.894  22.815  1.00  0.00    -0.263 OA
ENDROOT
BRANCH   3   9
HETATM    9  C6  UNL     1      26.469  26.858  25.078  1.00  0.00     0.412 C 
BRANCH   9  10
HETATM   10  O2  UNL     1      26.585  27.847  24.116  1.00  0.00    -0.347 OA
BRANCH  10  11
HETATM   11  C7  UNL     1      27.873  28.145  23.762  1.00  0.00     0.124 C 
HETATM   12  C8  UNL     1      27.950  29.666  23.572  1.00  0.00     0.032 C 
HETATM   13  C9  UNL     1      28.314  30.312  24.911  1.00  0.00     0.007 C 
HETATM   14  C10 UNL     1      29.778  30.096  25.117  1.00  0.00    -0.019 C 
HETATM   15  C11 UNL     1      30.236  30.365  26.528  1.00  0.00     0.010 C 
HETATM   16  C12 UNL     1      30.117  28.682  24.718  1.00  0.00     0.007 C 
HETATM   17  C13 UNL     1      28.902  27.771  24.788  1.00  0.00     0.032 C 
ENDBRANCH  10  11
ENDBRANCH   9  10
BRANCH   9  18
HETATM   18  N1  UNL     1      25.515  27.155  26.093  1.00  0.00     0.131 N 
HETATM   19  C14 UNL     1      24.178  26.880  25.602  1.00  0.00     0.303 C 
HETATM   20  C15 UNL     1      23.315  26.641  26.849  1.00  0.00     0.198 C 
HETATM   21  O3  UNL     1      23.832  27.355  27.925  1.00  0.00    -0.387 OA
HETATM   22  C16 UNL     1      24.326  28.592  27.565  1.00  0.00     0.203 C 
HETATM   23  C17 UNL     1      25.540  28.468  26.632  1.00  0.00     0.246 C 
HETATM   24  C18 UNL     1      26.767  28.767  27.457  1.00  0.00     0.045 C 
ENDBRANCH   9  18
ENDBRANCH   3   9
BRANCH   1  25
HETATM   25  O1  UNL     1      27.105  23.759  21.303  1.00  0.00    -0.346 OA
BRANCH  25  26
HETATM   26  C2  UNL     1      28.474  23.631  21.068  1.00  0.00     0.171 C 
HETATM   27  C1  UNL     1      28.774  22.169  20.799  1.00  0.00     0.034 C 
ENDBRANCH  25  26
ENDBRANCH   1  25
BRANCH   6  28
HETATM   28  C19 UNL     1      24.784  22.274  25.272  1.00  0.00     0.238 C 
BRANCH  28  29
HETATM   29  C20 UNL     1      23.352  22.561  25.431  1.00  0.00     0.155 C 
HETATM   30  N4  UNL     1      22.511  22.090  24.596  1.00  0.00    -0.250 N 
ATOM     31  H4  UNL     1      22.882  21.520  23.836  1.00  0.00     0.196 HD
BRANCH  29  32
HETATM   32  O4  UNL     1      22.915  23.337  26.481  1.00  0.00    -0.347 OA
ATOM     33  H4  UNL     1      23.510  23.944  26.905  1.00  0.00     0.219 HD
ENDBRANCH  29  32
BRANCH  30  34
HETATM   34  O5  UNL     1      21.167  22.277  24.624  1.00  0.00    -0.288 OA
ATOM     35  H5  UNL     1      20.507  21.595  24.569  1.00  0.00     0.244 HD
ENDBRANCH  30  34
ENDBRANCH  28  29
ENDBRANCH   6  28
TORSDOF 10
ENDMDL
MODEL 4
REMARK VINA RESULT: -7.589422173      2.001      7.326
REMARK  10 active torsions:
REMARK  status: ('A' for Active; 'I' for Inactive)
REMARK    1  A    between atoms: C2_2  and  O1_3 
REMARK    2  A    between atoms: O1_3  and  C3_4 
REMARK    3  A    between atoms: C5_6  and  C6_7 
REMARK    4  A    between atoms: C6_7  and  O2_8 
REMARK    5  A    between atoms: C6_7  and  N1_16 
REMARK    6  A    between atoms: O2_8  and  C7_9 
REMARK    7  A    between atoms: N3_25  and  C19_26 
REMARK    8  A    between atoms: C19_26  and  C20_27 
REMARK    9  A    between atoms: C20_27  and  O4_28 
REMARK   10  A    between atoms: N4_30  and  O5_32 
ROOT
HETATM    1  C3  UNL     1      26.861  26.117  25.064  1.00  0.00     0.140 A 
HETATM    2  C4  UNL     1      26.611  24.880  24.507  1.00  0.00     0.073 A 
HETATM    3  C5  UNL     1      25.332  24.325  24.541  1.00  0.00     0.087 A 
HETATM    4  N2  UNL     1      24.391  25.079  25.146  1.00  0.00    -0.295 N 
ATOM      5  H2  UNL     1      23.444  24.704  25.190  1.00  0.00     0.187 HD
HETATM    6  N3  UNL     1      24.601  26.248  25.679  1.00  0.00    -0.247 N 
HETATM    7  C21 UNL     1      25.824  26.798  25.656  1.00  0.00     0.295 A 
HETATM    8  O6  UNL     1      26.017  27.928  26.173  1.00  0.00    -0.263 OA
ENDROOT
BRANCH   3   9
HETATM    9  C6  UNL     1      25.031  22.994  23.951  1.00  0.00     0.412 C 
BRANCH   9  10
HETATM   10  O2  UNL     1      26.179  22.427  23.425  1.00  0.00    -0.347 OA
BRANCH  10  11
HETATM   11  C7  UNL     1      26.057  21.999  22.130  1.00  0.00     0.124 C 
HETATM   12  C8  UNL     1      27.050  22.813  21.290  1.00  0.00     0.032 C 
HETATM   13  C9  UNL     1      28.392  22.078  21.263  1.00  0.00     0.007 C 
HETATM   14  C10 UNL     1      28.251  20.944  20.300  1.00  0.00    -0.019 C 
HETATM   15  C11 UNL     1      29.355  19.922  20.403  1.00  0.00     0.010 C 
HETATM   16  C12 UNL     1      26.910  20.290  20.521  1.00  0.00     0.007 C 
HETATM   17  C13 UNL     1      26.382  20.548  21.922  1.00  0.00     0.032 C 
ENDBRANCH  10  11
ENDBRANCH   9  10
BRANCH   9  18
HETATM   18  N1  UNL     1      24.298  22.119  24.803  1.00  0.00     0.131 N 
HETATM   19  C14 UNL     1      25.217  21.360  25.629  1.00  0.00     0.303 C 
HETATM   20  C15 UNL     1      24.412  20.929  26.863  1.00  0.00     0.198 C 
HETATM   21  O3  UNL     1      23.068  20.804  26.531  1.00  0.00    -0.387 OA
HETATM   22  C16 UNL     1      22.871  20.278  25.270  1.00  0.00     0.203 C 
HETATM   23  C17 UNL     1      23.400  21.216  24.175  1.00  0.00     0.246 C 
HETATM   24  C18 UNL     1      22.203  21.885  23.546  1.00  0.00     0.045 C 
ENDBRANCH   9  18
ENDBRANCH   3   9
BRANCH   1  25
HETATM   25  O1  UNL     1      28.156  26.649  25.014  1.00  0.00    -0.346 OA
BRANCH  25  26
HETATM   26  C2  UNL     1      28.598  27.380  23.912  1.00  0.00     0.171 C 
HETATM   27  C1  UNL     1      28.925  28.786  24.375  1.00  0.00     0.034 C 
ENDBRANCH  25  26
ENDBRANCH   1  25
BRANCH   6  28
HETATM   28  C19 UNL     1      23.516  26.995  26.315  1.00  0.00     0.238 C 
BRANCH  28  29
HETATM   29  C20 UNL     1      22.874  26.239  27.399  1.00  0.00     0.155 C 
HETATM   30  N4  UNL     1      22.680  26.792  28.533  1.00  0.00    -0.250 N 
ATOM     31  H4  UNL     1      22.987  27.759  28.635  1.00  0.00     0.196 HD
BRANCH  29  32
HETATM   32  O4  UNL     1      22.481  24.936  27.194  1.00  0.00    -0.347 OA
ATOM     33  H4  UNL     1      22.584  24.293  27.885  1.00  0.00     0.219 HD
ENDBRANCH  29  32
BRANCH  30  34
HETATM   34  O5  UNL     1      22.102  26.211  29.614  1.00  0.00    -0.288 OA
ATOM     35  H5  UNL     1      21.373  26.561  30.113  1.00  0.00     0.244 HD
ENDBRANCH  30  34
ENDBRANCH  28  29
ENDBRANCH   6  28
TORSDOF 10
ENDMDL
MODEL 5
REMARK VINA RESULT: -7.554868447      1.897      4.096
REMARK  10 active torsions:
REMARK  status: ('A' for Active; 'I' for Inactive)
REMARK    1  A    between atoms: C2_2  and  O1_3 
REMARK    2  A    between atoms: O1_3  and  C3_4 
REMARK    3  A    between atoms: C5_6  and  C6_7 
REMARK    4  A    between atoms: C6_7  and  O2_8 
REMARK    5  A    between atoms: C6_7  and  N1_16 
REMARK    6  A    between atoms: O2_8  and  C7_9 
REMARK    7  A    between atoms: N3_25  and  C19_26 
REMARK    8  A    between atoms: C19_26  and  C20_27 
REMARK    9  A    between atoms: C20_27  and  O4_28 
REMARK   10  A    between atoms: N4_30  and  O5_32 
ROOT
HETATM    1  C3  UNL     1      24.855  23.116  24.201  1.00  0.00     0.140 A 
HETATM    2  C4  UNL     1      24.813  24.401  24.702  1.00  0.00     0.073 A 
HETATM    3  C5  UNL     1      25.738  25.360  24.289  1.00  0.00     0.087 A 
HETATM    4  N2  UNL     1      26.647  24.936  23.387  1.00  0.00    -0.295 N 
ATOM      5  H2  UNL     1      27.339  25.611  23.063  1.00  0.00     0.187 HD
HETATM    6  N3  UNL     1      26.707  23.731  22.900  1.00  0.00    -0.247 N 
HETATM    7  C21 UNL     1      25.827  22.795  23.284  1.00  0.00     0.295 A 
HETATM    8  O6  UNL     1      25.893  21.633  22.807  1.00  0.00    -0.263 OA
ENDROOT
BRANCH   3   9
HETATM    9  C6  UNL     1      25.719  26.752  24.810  1.00  0.00     0.412 C 
BRANCH   9  10
HETATM   10  O2  UNL     1      25.310  26.770  26.133  1.00  0.00    -0.347 OA
BRANCH  10  11
HETATM   11  C7  UNL     1      24.368  27.720  26.422  1.00  0.00     0.124 C 
HETATM   12  C8  UNL     1      23.031  26.990  26.608  1.00  0.00     0.032 C 
HETATM   13  C9  UNL     1      22.886  26.595  28.080  1.00  0.00     0.007 C 
HETATM   14  C10 UNL     1      22.507  27.831  28.829  1.00  0.00    -0.019 C 
HETATM   15  C11 UNL     1      22.654  27.701  30.324  1.00  0.00     0.010 C 
HETATM   16  C12 UNL     1      23.342  28.979  28.319  1.00  0.00     0.007 C 
HETATM   17  C13 UNL     1      24.633  28.495  27.680  1.00  0.00     0.032 C 
ENDBRANCH  10  11
ENDBRANCH   9  10
BRANCH   9  18
HETATM   18  N1  UNL     1      26.914  27.491  24.571  1.00  0.00     0.131 N 
HETATM   19  C14 UNL     1      27.948  27.058  25.492  1.00  0.00     0.303 C 
HETATM   20  C15 UNL     1      29.282  27.418  24.822  1.00  0.00     0.198 C 
HETATM   21  O3  UNL     1      29.112  28.522  23.995  1.00  0.00    -0.387 OA
HETATM   22  C16 UNL     1      28.244  29.459  24.517  1.00  0.00     0.203 C 
HETATM   23  C17 UNL     1      26.816  28.906  24.632  1.00  0.00     0.246 C 
HETATM   24  C18 UNL     1      26.012  29.511  23.507  1.00  0.00     0.045 C 
ENDBRANCH   9  18
ENDBRANCH   3   9
BRANCH   1  25
HETATM   25  O1  UNL     1      23.913  22.175  24.634  1.00  0.00    -0.346 OA
BRANCH  25  26
HETATM   26  C2  UNL     1      23.676  21.957  25.991  1.00  0.00     0.171 C 
HETATM   27  C1  UNL     1      24.692  20.952  26.496  1.00  0.00     0.034 C 
ENDBRANCH  25  26
ENDBRANCH   1  25
BRANCH   6  28
HETATM   28  C19 UNL     1      27.731  23.361  21.922  1.00  0.00     0.238 C 
BRANCH  28  29
HETATM   29  C20 UNL     1      27.971  24.420  20.932  1.00  0.00     0.155 C 
HETATM   30  N4  UNL     1      29.162  24.810  20.693  1.00  0.00    -0.250 N 
ATOM     31  H4  UNL     1      29.912  24.355  21.213  1.00  0.00     0.196 HD
BRANCH  29  32
HETATM   32  O4  UNL     1      26.913  24.992  20.262  1.00  0.00    -0.347 OA
ATOM     33  H4  UNL     1      26.907  25.017  19.313  1.00  0.00     0.219 HD
ENDBRANCH  29  32
BRANCH  30  34
HETATM   34  O5  UNL     1      29.523  25.774  19.809  1.00  0.00    -0.288 OA
ATOM     35  H5  UNL     1      29.378  25.754  18.870  1.00  0.00     0.244 HD
ENDBRANCH  30  34
ENDBRANCH  28  29
ENDBRANCH   6  28
TORSDOF 10
ENDMDL
