MODEL 1
REMARK VINA RESULT: -7.456763743      0.000      0.000
REMARK  4 active torsions:
REMARK  status: ('A' for Active; 'I' for Inactive)
REMARK    1  A    between atoms: O1_2  and  C2_3 
REMARK    2  A    between atoms: C2_3  and  C5_6 
REMARK    3  A    between atoms: C6_9  and  O2_10 
REMARK    4  A    between atoms: C8_13  and  C9_14 
ROOT
HETATM    1  C5  UNL     1      11.050   5.372  21.756  1.00  0.00     0.052 A 
HETATM    2  N1  UNL     1      12.184   5.960  21.296  1.00  0.00    -0.338 N 
ATOM      3  H1  UNL     1      12.594   5.791  20.378  1.00  0.00     0.168 HD
HETATM    4  C6  UNL     1      12.691   6.792  22.217  1.00  0.00     0.140 A 
HETATM    5  C7  UNL     1      11.866   6.746  23.312  1.00  0.00     0.065 A 
HETATM    6  C8  UNL     1      10.831   5.848  23.018  1.00  0.00    -0.024 A 
ENDROOT
BRANCH   6   7
HETATM    7  C9  UNL     1       9.738   5.552  23.976  1.00  0.00     0.021 C 
HETATM    8  C10 UNL     1      10.353   5.712  25.382  1.00  0.00     0.009 C 
HETATM    9  C11 UNL     1       9.409   5.268  26.451  1.00  0.00     0.001 C 
HETATM   10  C12 UNL     1       8.190   6.171  26.381  1.00  0.00     0.000 C 
HETATM   11  C13 UNL     1       8.319   7.189  25.288  1.00  0.00     0.001 C 
HETATM   12  C14 UNL     1       8.634   6.598  23.933  1.00  0.00     0.009 C 
ENDBRANCH   6   7
BRANCH   1  13
HETATM   13  C2  UNL     1      10.264   4.344  21.028  1.00  0.00     0.095 C 
HETATM   14  C3  UNL     1      10.665   2.961  21.600  1.00  0.00     0.052 C 
HETATM   15  C4  UNL     1       8.794   4.464  21.058  1.00  0.00     0.052 C 
BRANCH  13  16
HETATM   16  O1  UNL     1      10.743   4.293  19.708  1.00  0.00    -0.379 OA
HETATM   17  C1  UNL     1      11.280   3.094  19.338  1.00  0.00     0.203 C 
ENDBRANCH  13  16
ENDBRANCH   1  13
BRANCH   4  18
HETATM   18  O2  UNL     1      13.843   7.553  22.071  1.00  0.00    -0.346 OA
ATOM     19  H2  UNL     1      14.026   8.370  22.520  1.00  0.00     0.219 HD
ENDBRANCH   4  18
TORSDOF 4
ENDMDL
MODEL 2
REMARK VINA RESULT: -7.398612936      1.295      1.383
REMARK  4 active torsions:
REMARK  status: ('A' for Active; 'I' for Inactive)
REMARK    1  A    between atoms: O1_2  and  C2_3 
REMARK    2  A    between atoms: C2_3  and  C5_6 
REMARK    3  A    between atoms: C6_9  and  O2_10 
REMARK    4  A    between atoms: C8_13  and  C9_14 
ROOT
HETATM    1  C5  UNL     1       9.941   5.562  22.142  1.00  0.00     0.052 A 
HETATM    2  N1  UNL     1      11.107   5.883  21.526  1.00  0.00    -0.338 N 
ATOM      3  H1  UNL     1      11.299   5.738  20.535  1.00  0.00     0.168 HD
HETATM    4  C6  UNL     1      11.972   6.417  22.401  1.00  0.00     0.140 A 
HETATM    5  C7  UNL     1      11.354   6.444  23.626  1.00  0.00     0.065 A 
HETATM    6  C8  UNL     1      10.072   5.903  23.459  1.00  0.00    -0.024 A 
ENDROOT
BRANCH   6   7
HETATM    7  C9  UNL     1       9.107   5.782  24.579  1.00  0.00     0.021 C 
HETATM    8  C10 UNL     1       9.957   5.557  25.847  1.00  0.00     0.009 C 
HETATM    9  C11 UNL     1       9.107   5.237  27.032  1.00  0.00     0.001 C 
HETATM   10  C12 UNL     1       8.217   6.441  27.287  1.00  0.00     0.000 C 
HETATM   11  C13 UNL     1       8.467   7.534  26.292  1.00  0.00     0.001 C 
HETATM   12  C14 UNL     1       8.372   7.085  24.851  1.00  0.00     0.009 C 
ENDBRANCH   6   7
BRANCH   1  13
HETATM   13  C2  UNL     1       8.787   4.890  21.492  1.00  0.00     0.095 C 
HETATM   14  C3  UNL     1       8.538   3.560  22.248  1.00  0.00     0.052 C 
HETATM   15  C4  UNL     1       7.519   5.639  21.413  1.00  0.00     0.052 C 
BRANCH  13  16
HETATM   16  O1  UNL     1       9.202   4.460  20.221  1.00  0.00    -0.379 OA
HETATM   17  C1  UNL     1       8.411   3.504  19.652  1.00  0.00     0.203 C 
ENDBRANCH  13  16
ENDBRANCH   1  13
BRANCH   4  18
HETATM   18  O2  UNL     1      13.255   6.856  22.103  1.00  0.00    -0.346 OA
ATOM     19  H2  UNL     1      13.572   7.089  21.238  1.00  0.00     0.219 HD
ENDBRANCH   4  18
TORSDOF 4
ENDMDL
MODEL 3
REMARK VINA RESULT: -7.387331198      0.672      1.335
REMARK  4 active torsions:
REMARK  status: ('A' for Active; 'I' for Inactive)
REMARK    1  A    between atoms: O1_2  and  C2_3 
REMARK    2  A    between atoms: C2_3  and  C5_6 
REMARK    3  A    between atoms: C6_9  and  O2_10 
REMARK    4  A    between atoms: C8_13  and  C9_14 
ROOT
HETATM    1  C5  UNL     1      11.076   5.345  21.816  1.00  0.00     0.052 A 
HETATM    2  N1  UNL     1      12.202   5.942  21.349  1.00  0.00    -0.338 N 
ATOM      3  H1  UNL     1      12.617   5.766  20.434  1.00  0.00     0.168 HD
HETATM    4  C6  UNL     1      12.695   6.797  22.258  1.00  0.00     0.140 A 
HETATM    5  C7  UNL     1      11.867   6.755  23.352  1.00  0.00     0.065 A 
HETATM    6  C8  UNL     1      10.847   5.838  23.069  1.00  0.00    -0.024 A 
ENDROOT
BRANCH   6   7
HETATM    7  C9  UNL     1       9.755   5.541  24.029  1.00  0.00     0.021 C 
HETATM    8  C10 UNL     1      10.367   5.718  25.434  1.00  0.00     0.009 C 
HETATM    9  C11 UNL     1       9.427   5.275  26.506  1.00  0.00     0.001 C 
HETATM   10  C12 UNL     1       8.200   6.167  26.427  1.00  0.00     0.000 C 
HETATM   11  C13 UNL     1       8.321   7.176  25.325  1.00  0.00     0.001 C 
HETATM   12  C14 UNL     1       8.643   6.576  23.975  1.00  0.00     0.009 C 
ENDBRANCH   6   7
BRANCH   1  13
HETATM   13  C2  UNL     1      10.308   4.294  21.102  1.00  0.00     0.095 C 
HETATM   14  C3  UNL     1      10.823   4.252  19.641  1.00  0.00     0.052 C 
HETATM   15  C4  UNL     1      10.342   2.929  21.660  1.00  0.00     0.052 C 
BRANCH  13  16
HETATM   16  O1  UNL     1       8.986   4.750  20.960  1.00  0.00    -0.379 OA
HETATM   17  C1  UNL     1       8.026   3.824  21.245  1.00  0.00     0.203 C 
ENDBRANCH  13  16
ENDBRANCH   1  13
BRANCH   4  18
HETATM   18  O2  UNL     1      13.835   7.573  22.103  1.00  0.00    -0.346 OA
ATOM     19  H2  UNL     1      13.872   8.520  22.162  1.00  0.00     0.219 HD
ENDBRANCH   4  18
TORSDOF 4
ENDMDL
MODEL 4
REMARK VINA RESULT: -7.253329212      3.010      5.278
REMARK  4 active torsions:
REMARK  status: ('A' for Active; 'I' for Inactive)
REMARK    1  A    between atoms: O1_2  and  C2_3 
REMARK    2  A    between atoms: C2_3  and  C5_6 
REMARK    3  A    between atoms: C6_9  and  O2_10 
REMARK    4  A    between atoms: C8_13  and  C9_14 
ROOT
HETATM    1  C5  UNL     1       8.719   7.106  24.134  1.00  0.00     0.052 A 
HETATM    2  N1  UNL     1       8.186   6.658  25.299  1.00  0.00    -0.338 N 
ATOM      3  H1  UNL     1       7.366   7.058  25.756  1.00  0.00     0.168 HD
HETATM    4  C6  UNL     1       8.886   5.615  25.768  1.00  0.00     0.140 A 
HETATM    5  C7  UNL     1       9.908   5.375  24.884  1.00  0.00     0.065 A 
HETATM    6  C8  UNL     1       9.799   6.319  23.854  1.00  0.00    -0.024 A 
ENDROOT
BRANCH   6   7
HETATM    7  C9  UNL     1      10.739   6.357  22.707  1.00  0.00     0.021 C 
HETATM    8  C10 UNL     1      12.154   6.403  23.320  1.00  0.00     0.009 C 
HETATM    9  C11 UNL     1      13.200   6.626  22.278  1.00  0.00     0.001 C 
HETATM   10  C12 UNL     1      13.153   5.440  21.330  1.00  0.00     0.000 C 
HETATM   11  C13 UNL     1      12.096   4.455  21.730  1.00  0.00     0.001 C 
HETATM   12  C14 UNL     1      10.724   5.065  21.906  1.00  0.00     0.009 C 
ENDBRANCH   6   7
BRANCH   1  13
HETATM   13  C2  UNL     1       8.239   8.288  23.374  1.00  0.00     0.095 C 
HETATM   14  C3  UNL     1       6.931   8.775  24.047  1.00  0.00     0.052 C 
HETATM   15  C4  UNL     1       9.161   9.432  23.242  1.00  0.00     0.052 C 
BRANCH  13  16
HETATM   16  O1  UNL     1       7.802   7.842  22.116  1.00  0.00    -0.379 OA
HETATM   17  C1  UNL     1       6.478   8.051  21.861  1.00  0.00     0.203 C 
ENDBRANCH  13  16
ENDBRANCH   1  13
BRANCH   4  18
HETATM   18  O2  UNL     1       8.612   4.917  26.937  1.00  0.00    -0.346 OA
ATOM     19  H2  UNL     1       7.952   4.241  27.035  1.00  0.00     0.219 HD
ENDBRANCH   4  18
TORSDOF 4
ENDMDL
MODEL 5
REMARK VINA RESULT: -7.066082248      2.715      5.066
REMARK  4 active torsions:
REMARK  status: ('A' for Active; 'I' for Inactive)
REMARK    1  A    between atoms: O1_2  and  C2_3 
REMARK    2  A    between atoms: C2_3  and  C5_6 
REMARK    3  A    between atoms: C6_9  and  O2_10 
REMARK    4  A    between atoms: C8_13  and  C9_14 
ROOT
HETATM    1  C5  UNL     1       9.637   7.191  23.874  1.00  0.00     0.052 A 
HETATM    2  N1  UNL     1       9.139   8.446  23.733  1.00  0.00    -0.338 N 
ATOM      3  H1  UNL     1       8.310   8.799  24.211  1.00  0.00     0.168 HD
HETATM    4  C6  UNL     1       9.887   9.158  22.878  1.00  0.00     0.140 A 
HETATM    5  C7  UNL     1      10.904   8.344  22.445  1.00  0.00     0.065 A 
HETATM    6  C8  UNL     1      10.742   7.102  23.075  1.00  0.00    -0.024 A 
ENDROOT
BRANCH   6   7
HETATM    7  C9  UNL     1      11.672   5.969  22.851  1.00  0.00     0.021 C 
HETATM    8  C10 UNL     1      11.251   5.335  21.509  1.00  0.00     0.009 C 
HETATM    9  C11 UNL     1      11.991   4.065  21.242  1.00  0.00     0.001 C 
HETATM   10  C12 UNL     1      13.465   4.415  21.138  1.00  0.00     0.000 C 
HETATM   11  C13 UNL     1      13.700   5.882  21.336  1.00  0.00     0.001 C 
HETATM   12  C14 UNL     1      13.100   6.434  22.610  1.00  0.00     0.009 C 
ENDBRANCH   6   7
BRANCH   1  13
HETATM   13  C2  UNL     1       9.021   6.113  24.689  1.00  0.00     0.095 C 
HETATM   14  C3  UNL     1       8.587   4.986  23.718  1.00  0.00     0.052 C 
HETATM   15  C4  UNL     1       9.837   5.526  25.768  1.00  0.00     0.052 C 
BRANCH  13  16
HETATM   16  O1  UNL     1       7.797   6.595  25.183  1.00  0.00    -0.379 OA
HETATM   17  C1  UNL     1       7.687   6.591  26.543  1.00  0.00     0.203 C 
ENDBRANCH  13  16
ENDBRANCH   1  13
BRANCH   4  18
HETATM   18  O2  UNL     1       9.660  10.477  22.510  1.00  0.00    -0.346 OA
ATOM     19  H2  UNL     1      10.176  11.225  22.786  1.00  0.00     0.219 HD
ENDBRANCH   4  18
TORSDOF 4
ENDMDL
