MODEL 1
REMARK VINA RESULT: -7.449374805      0.000      0.000
REMARK  3 active torsions:
REMARK  status: ('A' for Active; 'I' for Inactive)
REMARK    1  A    between atoms: C9_9  and  C10_10 
REMARK    2  A    between atoms: C10_10  and  C11_11 
REMARK    3  A    between atoms: C11_11  and  C12_12 
ROOT
HETATM    1  C1  UNL     1       9.151   4.080  22.426  1.00  0.00     0.010 C 
HETATM    2  C2  UNL     1       8.624   5.367  23.087  1.00  0.00    -0.014 C 
HETATM    3  C3  UNL     1       7.948   6.119  22.043  1.00  0.00     0.005 C 
HETATM    4  C4  UNL     1       7.514   7.495  22.253  1.00  0.00     0.011 C 
HETATM    5  C5  UNL     1       8.227   8.347  23.224  1.00  0.00     0.031 C 
HETATM    6  C6  UNL     1       8.164   7.927  24.643  1.00  0.00     0.011 C 
HETATM    7  C7  UNL     1       8.920   6.761  25.060  1.00  0.00     0.006 C 
HETATM    8  C8  UNL     1       9.635   5.973  23.967  1.00  0.00    -0.006 C 
HETATM    9  C9  UNL     1      10.814   6.634  23.445  1.00  0.00    -0.004 C 
HETATM   10  C13 UNL     1      10.634   7.670  22.375  1.00  0.00     0.057 C 
HETATM   11  C14 UNL     1       9.597   8.634  22.731  1.00  0.00    -0.016 C 
HETATM   12  N1  UNL     1       9.937   9.859  22.591  1.00  0.00    -0.405 N 
ATOM     13  H11 UNL     1      10.879  10.056  22.252  1.00  0.00     0.155 HD
ATOM     14  H12 UNL     1       9.211  10.532  22.840  1.00  0.00     0.155 HD
ENDROOT
BRANCH   9  15
HETATM   15  C10 UNL     1      11.973   5.768  23.013  1.00  0.00     0.016 C 
BRANCH  15  16
HETATM   16  C11 UNL     1      12.339   5.901  21.569  1.00  0.00     0.113 C 
BRANCH  16  17
HETATM   17  C12 UNL     1      12.720   4.597  20.963  1.00  0.00     0.172 C 
HETATM   18  O1  UNL     1      13.083   4.590  19.761  1.00  0.00    -0.648 OA
HETATM   19  O2  UNL     1      12.697   3.394  21.650  1.00  0.00    -0.648 OA
ENDBRANCH  16  17
ENDBRANCH  15  16
ENDBRANCH   9  15
TORSDOF 3
ENDMDL
MODEL 2
REMARK VINA RESULT: -7.364439615      0.927      1.214
REMARK  3 active torsions:
REMARK  status: ('A' for Active; 'I' for Inactive)
REMARK    1  A    between atoms: C9_9  and  C10_10 
REMARK    2  A    between atoms: C10_10  and  C11_11 
REMARK    3  A    between atoms: C11_11  and  C12_12 
ROOT
HETATM    1  C1  UNL     1       8.844   3.617  21.791  1.00  0.00     0.010 C 
HETATM    2  C2  UNL     1       8.605   4.825  22.716  1.00  0.00    -0.014 C 
HETATM    3  C3  UNL     1       7.925   5.828  21.915  1.00  0.00     0.005 C 
HETATM    4  C4  UNL     1       7.734   7.190  22.400  1.00  0.00     0.011 C 
HETATM    5  C5  UNL     1       8.684   7.760  23.373  1.00  0.00     0.031 C 
HETATM    6  C6  UNL     1       8.736   7.109  24.704  1.00  0.00     0.011 C 
HETATM    7  C7  UNL     1       9.354   5.801  24.816  1.00  0.00     0.006 C 
HETATM    8  C8  UNL     1       9.799   5.132  23.518  1.00  0.00    -0.006 C 
HETATM    9  C9  UNL     1      10.988   5.718  22.936  1.00  0.00    -0.004 C 
HETATM   10  C13 UNL     1      10.834   6.940  22.080  1.00  0.00     0.057 C 
HETATM   11  C14 UNL     1      10.008   7.951  22.733  1.00  0.00    -0.016 C 
HETATM   12  N1  UNL     1      10.509   9.128  22.736  1.00  0.00    -0.405 N 
ATOM     13  H11 UNL     1      11.420   9.260  22.296  1.00  0.00     0.155 HD
ATOM     14  H12 UNL     1       9.931   9.835  23.192  1.00  0.00     0.155 HD
ENDROOT
BRANCH   9  15
HETATM   15  C10 UNL     1      11.939   4.800  22.206  1.00  0.00     0.016 C 
BRANCH  15  16
HETATM   16  C11 UNL     1      12.523   5.381  20.958  1.00  0.00     0.113 C 
BRANCH  16  17
HETATM   17  C12 UNL     1      12.683   4.363  19.885  1.00  0.00     0.172 C 
HETATM   18  O1  UNL     1      13.114   3.230  20.209  1.00  0.00    -0.648 OA
HETATM   19  O2  UNL     1      12.382   4.596  18.553  1.00  0.00    -0.648 OA
ENDBRANCH  16  17
ENDBRANCH  15  16
ENDBRANCH   9  15
TORSDOF 3
ENDMDL
MODEL 3
REMARK VINA RESULT: -7.174930153      3.711      5.365
REMARK  3 active torsions:
REMARK  status: ('A' for Active; 'I' for Inactive)
REMARK    1  A    between atoms: C9_9  and  C10_10 
REMARK    2  A    between atoms: C10_10  and  C11_11 
REMARK    3  A    between atoms: C11_11  and  C12_12 
ROOT
HETATM    1  C1  UNL     1       9.291   9.476  22.256  1.00  0.00     0.010 C 
HETATM    2  C2  UNL     1       9.687   8.305  23.174  1.00  0.00    -0.014 C 
HETATM    3  C3  UNL     1      10.914   7.751  22.628  1.00  0.00     0.005 C 
HETATM    4  C4  UNL     1      11.463   6.490  23.112  1.00  0.00     0.011 C 
HETATM    5  C5  UNL     1      10.563   5.472  23.687  1.00  0.00     0.031 C 
HETATM    6  C6  UNL     1       9.857   5.845  24.936  1.00  0.00     0.011 C 
HETATM    7  C7  UNL     1       8.776   6.810  24.865  1.00  0.00     0.006 C 
HETATM    8  C8  UNL     1       8.525   7.469  23.512  1.00  0.00    -0.006 C 
HETATM    9  C9  UNL     1       7.898   6.595  22.542  1.00  0.00    -0.004 C 
HETATM   10  C13 UNL     1       8.769   5.659  21.758  1.00  0.00     0.057 C 
HETATM   11  C14 UNL     1       9.683   4.922  22.628  1.00  0.00    -0.016 C 
HETATM   12  N1  UNL     1       9.705   3.659  22.428  1.00  0.00    -0.405 N 
ATOM     13  H11 UNL     1       9.100   3.281  21.699  1.00  0.00     0.155 HD
ATOM     14  H12 UNL     1      10.344   3.145  23.035  1.00  0.00     0.155 HD
ENDROOT
BRANCH   9  15
HETATM   15  C10 UNL     1       6.936   7.213  21.556  1.00  0.00     0.016 C 
BRANCH  15  16
HETATM   16  C11 UNL     1       6.109   8.327  22.114  1.00  0.00     0.113 C 
BRANCH  16  17
HETATM   17  C12 UNL     1       5.695   9.300  21.067  1.00  0.00     0.172 C 
HETATM   18  O1  UNL     1       5.858  10.522  21.303  1.00  0.00    -0.648 OA
HETATM   19  O2  UNL     1       5.142   8.933  19.851  1.00  0.00    -0.648 OA
ENDBRANCH  16  17
ENDBRANCH  15  16
ENDBRANCH   9  15
TORSDOF 3
ENDMDL
MODEL 4
REMARK VINA RESULT: -6.905299197      3.296      4.900
REMARK  3 active torsions:
REMARK  status: ('A' for Active; 'I' for Inactive)
REMARK    1  A    between atoms: C9_9  and  C10_10 
REMARK    2  A    between atoms: C10_10  and  C11_11 
REMARK    3  A    between atoms: C11_11  and  C12_12 
ROOT
HETATM    1  C1  UNL     1       7.595   7.616  25.552  1.00  0.00     0.010 C 
HETATM    2  C2  UNL     1       8.356   6.565  24.723  1.00  0.00    -0.014 C 
HETATM    3  C3  UNL     1       9.644   6.384  25.371  1.00  0.00     0.005 C 
HETATM    4  C4  UNL     1      10.716   5.624  24.737  1.00  0.00     0.011 C 
HETATM    5  C5  UNL     1      10.780   5.534  23.266  1.00  0.00     0.031 C 
HETATM    6  C6  UNL     1       9.655   4.838  22.598  1.00  0.00     0.011 C 
HETATM    7  C7  UNL     1       8.364   5.497  22.536  1.00  0.00     0.006 C 
HETATM    8  C8  UNL     1       8.227   6.822  23.281  1.00  0.00    -0.006 C 
HETATM    9  C9  UNL     1       8.899   7.929  22.632  1.00  0.00    -0.004 C 
HETATM   10  C13 UNL     1      10.368   8.113  22.877  1.00  0.00     0.057 C 
HETATM   11  C14 UNL     1      11.102   6.864  22.694  1.00  0.00    -0.016 C 
HETATM   12  N1  UNL     1      12.139   6.960  21.952  1.00  0.00    -0.405 N 
ATOM     13  H11 UNL     1      12.361   7.874  21.558  1.00  0.00     0.155 HD
ATOM     14  H12 UNL     1      12.652   6.087  21.824  1.00  0.00     0.155 HD
ENDROOT
BRANCH   9  15
HETATM   15  C10 UNL     1       8.271   9.297  22.746  1.00  0.00     0.016 C 
BRANCH  15  16
HETATM   16  C11 UNL     1       7.250   9.599  21.695  1.00  0.00     0.113 C 
BRANCH  16  17
HETATM   17  C12 UNL     1       6.065   8.704  21.790  1.00  0.00     0.172 C 
HETATM   18  O1  UNL     1       5.808   7.963  20.810  1.00  0.00    -0.648 OA
HETATM   19  O2  UNL     1       5.232   8.646  22.895  1.00  0.00    -0.648 OA
ENDBRANCH  16  17
ENDBRANCH  15  16
ENDBRANCH   9  15
TORSDOF 3
ENDMDL
MODEL 5
REMARK VINA RESULT: -6.827297190      1.564      2.602
REMARK  3 active torsions:
REMARK  status: ('A' for Active; 'I' for Inactive)
REMARK    1  A    between atoms: C9_9  and  C10_10 
REMARK    2  A    between atoms: C10_10  and  C11_11 
REMARK    3  A    between atoms: C11_11  and  C12_12 
ROOT
HETATM    1  C1  UNL     1      10.094   5.440  25.105  1.00  0.00     0.010 C 
HETATM    2  C2  UNL     1       9.697   6.812  24.528  1.00  0.00    -0.014 C 
HETATM    3  C3  UNL     1       8.380   7.117  25.060  1.00  0.00     0.005 C 
HETATM    4  C4  UNL     1       7.594   8.237  24.556  1.00  0.00     0.011 C 
HETATM    5  C5  UNL     1       7.791   8.704  23.171  1.00  0.00     0.031 C 
HETATM    6  C6  UNL     1       9.124   9.268  22.847  1.00  0.00     0.011 C 
HETATM    7  C7  UNL     1      10.255   8.366  22.740  1.00  0.00     0.006 C 
HETATM    8  C8  UNL     1      10.009   6.902  23.094  1.00  0.00    -0.006 C 
HETATM    9  C9  UNL     1       9.251   6.178  22.093  1.00  0.00    -0.004 C 
HETATM   10  C13 UNL     1       7.755   6.282  22.120  1.00  0.00     0.057 C 
HETATM   11  C14 UNL     1       7.316   7.671  22.218  1.00  0.00    -0.016 C 
HETATM   12  N1  UNL     1       6.417   8.007  21.373  1.00  0.00    -0.405 N 
ATOM     13  H11 UNL     1       6.090   7.296  20.718  1.00  0.00     0.155 HD
ATOM     14  H12 UNL     1       6.110   8.978  21.442  1.00  0.00     0.155 HD
ENDROOT
BRANCH   9  15
HETATM   15  C10 UNL     1       9.576   4.718  21.886  1.00  0.00     0.016 C 
BRANCH  15  16
HETATM   16  C11 UNL     1      11.023   4.437  21.633  1.00  0.00     0.113 C 
BRANCH  16  17
HETATM   17  C12 UNL     1      11.357   4.467  20.183  1.00  0.00     0.172 C 
HETATM   18  O1  UNL     1      10.441   4.214  19.363  1.00  0.00    -0.648 OA
HETATM   19  O2  UNL     1      12.619   4.759  19.691  1.00  0.00    -0.648 OA
ENDBRANCH  16  17
ENDBRANCH  15  16
ENDBRANCH   9  15
TORSDOF 3
ENDMDL
