MODEL 1
REMARK VINA RESULT: -6.693725709      0.000      0.000
REMARK  5 active torsions:
REMARK  status: ('A' for Active; 'I' for Inactive)
REMARK    1  A    between atoms: C2_2  and  C3_3 
REMARK    2  A    between atoms: C3_3  and  O1_4 
REMARK    3  A    between atoms: C8_10  and  C9_11 
REMARK    4  A    between atoms: C9_11  and  C10_12 
REMARK    5  A    between atoms: C11_13  and  O2_15 
ROOT
HETATM    1  C3  UNL     1       9.178   6.290  24.586  1.00  0.00     0.079 C 
HETATM    2  C4  UNL     1      10.616   6.560  24.323  1.00  0.00     0.051 C 
HETATM    3  C5  UNL     1      11.057   6.647  22.921  1.00  0.00    -0.041 C 
HETATM    4  C6  UNL     1      12.449   6.005  22.816  1.00  0.00     0.015 C 
HETATM    5  C7  UNL     1      11.275   8.097  22.497  1.00  0.00     0.015 C 
HETATM    6  C8  UNL     1      10.163   6.015  21.890  1.00  0.00    -0.003 C 
HETATM    7  C13 UNL     1       8.748   6.392  22.082  1.00  0.00     0.013 C 
HETATM    8  C14 UNL     1       8.244   6.537  23.476  1.00  0.00     0.020 C 
HETATM    9  C15 UNL     1       7.551   7.897  23.668  1.00  0.00     0.013 C 
ENDROOT
BRANCH   6  10
HETATM   10  C9  UNL     1      10.422   4.557  21.693  1.00  0.00     0.035 C 
BRANCH  10  11
HETATM   11  C10 UNL     1      10.129   4.054  20.323  1.00  0.00     0.005 C 
HETATM   12  C11 UNL     1      10.994   4.136  19.332  1.00  0.00     0.035 C 
HETATM   13  C12 UNL     1      10.620   3.613  18.003  1.00  0.00     0.075 C 
BRANCH  12  14
HETATM   14  O2  UNL     1      12.238   4.700  19.513  1.00  0.00    -0.366 OA
ATOM     15  H2  UNL     1      12.769   4.969  18.773  1.00  0.00     0.217 HD
ENDBRANCH  12  14
ENDBRANCH  10  11
ENDBRANCH   6  10
BRANCH   1  16
HETATM   16  C2  UNL     1       8.766   7.121  25.760  1.00  0.00     0.001 C 
HETATM   17  C1  UNL     1       8.634   6.550  26.949  1.00  0.00     0.010 C 
ENDBRANCH   1  16
BRANCH   1  18
HETATM   18  O1  UNL     1       9.008   4.966  25.075  1.00  0.00    -0.385 OA
ATOM     19  H1  UNL     1       9.888   4.736  25.349  1.00  0.00     0.211 HD
ENDBRANCH   1  18
TORSDOF 5
ENDMDL
MODEL 2
REMARK VINA RESULT: -6.489340411      1.734      1.883
REMARK  5 active torsions:
REMARK  status: ('A' for Active; 'I' for Inactive)
REMARK    1  A    between atoms: C2_2  and  C3_3 
REMARK    2  A    between atoms: C3_3  and  O1_4 
REMARK    3  A    between atoms: C8_10  and  C9_11 
REMARK    4  A    between atoms: C9_11  and  C10_12 
REMARK    5  A    between atoms: C11_13  and  O2_15 
ROOT
HETATM    1  C3  UNL     1       9.133   6.224  24.846  1.00  0.00     0.079 C 
HETATM    2  C4  UNL     1      10.541   6.236  24.370  1.00  0.00     0.051 C 
HETATM    3  C5  UNL     1      10.778   6.291  22.918  1.00  0.00    -0.041 C 
HETATM    4  C6  UNL     1      11.995   5.409  22.598  1.00  0.00     0.015 C 
HETATM    5  C7  UNL     1      11.199   7.691  22.478  1.00  0.00     0.015 C 
HETATM    6  C8  UNL     1       9.641   5.872  22.029  1.00  0.00    -0.003 C 
HETATM    7  C13 UNL     1       8.364   6.495  22.438  1.00  0.00     0.013 C 
HETATM    8  C14 UNL     1       8.108   6.679  23.894  1.00  0.00     0.020 C 
HETATM    9  C15 UNL     1       7.717   8.135  24.200  1.00  0.00     0.013 C 
ENDROOT
BRANCH   6  10
HETATM   10  C9  UNL     1       9.590   4.399  21.784  1.00  0.00     0.035 C 
BRANCH  10  11
HETATM   11  C10 UNL     1       9.049   4.011  20.453  1.00  0.00     0.005 C 
HETATM   12  C11 UNL     1       7.833   3.531  20.287  1.00  0.00     0.035 C 
HETATM   13  C12 UNL     1       7.378   3.170  18.930  1.00  0.00     0.075 C 
BRANCH  12  14
HETATM   14  O2  UNL     1       6.981   3.361  21.356  1.00  0.00    -0.366 OA
ATOM     15  H2  UNL     1       7.276   2.954  22.162  1.00  0.00     0.217 HD
ENDBRANCH  12  14
ENDBRANCH  10  11
ENDBRANCH   6  10
BRANCH   1  16
HETATM   16  C2  UNL     1       9.062   7.072  26.077  1.00  0.00     0.001 C 
HETATM   17  C1  UNL     1       8.508   6.582  27.177  1.00  0.00     0.010 C 
ENDBRANCH   1  16
BRANCH   1  18
HETATM   18  O1  UNL     1       8.793   4.936  25.345  1.00  0.00    -0.385 OA
ATOM     19  H1  UNL     1       8.773   4.411  24.553  1.00  0.00     0.211 HD
ENDBRANCH   1  18
TORSDOF 5
ENDMDL
MODEL 3
REMARK VINA RESULT: -6.469418569      2.415      4.767
REMARK  5 active torsions:
REMARK  status: ('A' for Active; 'I' for Inactive)
REMARK    1  A    between atoms: C2_2  and  C3_3 
REMARK    2  A    between atoms: C3_3  and  O1_4 
REMARK    3  A    between atoms: C8_10  and  C9_11 
REMARK    4  A    between atoms: C9_11  and  C10_12 
REMARK    5  A    between atoms: C11_13  and  O2_15 
ROOT
HETATM    1  C3  UNL     1       8.886   7.946  22.871  1.00  0.00     0.079 C 
HETATM    2  C4  UNL     1      10.311   7.804  22.473  1.00  0.00     0.051 C 
HETATM    3  C5  UNL     1      10.962   6.501  22.688  1.00  0.00    -0.041 C 
HETATM    4  C6  UNL     1      12.412   6.757  23.128  1.00  0.00     0.015 C 
HETATM    5  C7  UNL     1      11.094   5.725  21.380  1.00  0.00     0.015 C 
HETATM    6  C8  UNL     1      10.318   5.579  23.686  1.00  0.00    -0.003 C 
HETATM    7  C13 UNL     1       8.859   5.478  23.481  1.00  0.00     0.013 C 
HETATM    8  C14 UNL     1       8.123   6.701  23.056  1.00  0.00     0.020 C 
HETATM    9  C15 UNL     1       7.270   6.419  21.807  1.00  0.00     0.013 C 
ENDROOT
BRANCH   6  10
HETATM   10  C9  UNL     1      10.756   5.828  25.093  1.00  0.00     0.035 C 
BRANCH  10  11
HETATM   11  C10 UNL     1       9.821   5.319  26.132  1.00  0.00     0.005 C 
HETATM   12  C11 UNL     1       8.986   6.101  26.788  1.00  0.00     0.035 C 
HETATM   13  C12 UNL     1       8.093   5.512  27.805  1.00  0.00     0.075 C 
BRANCH  12  14
HETATM   14  O2  UNL     1       8.933   7.456  26.542  1.00  0.00    -0.366 OA
ATOM     15  H2  UNL     1       8.574   7.795  25.730  1.00  0.00     0.217 HD
ENDBRANCH  12  14
ENDBRANCH  10  11
ENDBRANCH   6  10
BRANCH   1  16
HETATM   16  C2  UNL     1       8.205   8.782  21.834  1.00  0.00     0.001 C 
HETATM   17  C1  UNL     1       7.727   9.973  22.167  1.00  0.00     0.010 C 
ENDBRANCH   1  16
BRANCH   1  18
HETATM   18  O1  UNL     1       8.778   8.756  24.035  1.00  0.00    -0.385 OA
ATOM     19  H1  UNL     1       9.423   9.434  23.870  1.00  0.00     0.211 HD
ENDBRANCH   1  18
TORSDOF 5
ENDMDL
MODEL 4
REMARK VINA RESULT: -6.469415452      1.061      1.092
REMARK  5 active torsions:
REMARK  status: ('A' for Active; 'I' for Inactive)
REMARK    1  A    between atoms: C2_2  and  C3_3 
REMARK    2  A    between atoms: C3_3  and  O1_4 
REMARK    3  A    between atoms: C8_10  and  C9_11 
REMARK    4  A    between atoms: C9_11  and  C10_12 
REMARK    5  A    between atoms: C11_13  and  O2_15 
ROOT
HETATM    1  C3  UNL     1       9.170   6.241  24.603  1.00  0.00     0.079 C 
HETATM    2  C4  UNL     1      10.609   6.491  24.327  1.00  0.00     0.051 C 
HETATM    3  C5  UNL     1      11.039   6.568  22.921  1.00  0.00    -0.041 C 
HETATM    4  C6  UNL     1      12.422   5.907  22.807  1.00  0.00     0.015 C 
HETATM    5  C7  UNL     1      11.275   8.014  22.492  1.00  0.00     0.015 C 
HETATM    6  C8  UNL     1      10.129   5.946  21.899  1.00  0.00    -0.003 C 
HETATM    7  C13 UNL     1       8.720   6.343  22.103  1.00  0.00     0.013 C 
HETATM    8  C14 UNL     1       8.230   6.499  23.500  1.00  0.00     0.020 C 
HETATM    9  C15 UNL     1       7.557   7.868  23.694  1.00  0.00     0.013 C 
ENDROOT
BRANCH   6  10
HETATM   10  C9  UNL     1      10.366   4.484  21.705  1.00  0.00     0.035 C 
BRANCH  10  11
HETATM   11  C10 UNL     1      10.576   4.073  20.290  1.00  0.00     0.005 C 
HETATM   12  C11 UNL     1       9.607   3.603  19.530  1.00  0.00     0.035 C 
HETATM   13  C12 UNL     1       9.904   3.218  18.137  1.00  0.00     0.075 C 
BRANCH  12  14
HETATM   14  O2  UNL     1       8.324   3.466  20.012  1.00  0.00    -0.366 OA
ATOM     15  H2  UNL     1       7.654   4.112  19.822  1.00  0.00     0.217 HD
ENDBRANCH  12  14
ENDBRANCH  10  11
ENDBRANCH   6  10
BRANCH   1  16
HETATM   16  C2  UNL     1       8.779   7.081  25.779  1.00  0.00     0.001 C 
HETATM   17  C1  UNL     1       8.674   6.519  26.975  1.00  0.00     0.010 C 
ENDBRANCH   1  16
BRANCH   1  18
HETATM   18  O1  UNL     1       8.986   4.921  25.097  1.00  0.00    -0.385 OA
ATOM     19  H1  UNL     1       9.876   4.651  25.293  1.00  0.00     0.211 HD
ENDBRANCH   1  18
TORSDOF 5
ENDMDL
MODEL 5
REMARK VINA RESULT: -6.436278690      2.362      3.979
REMARK  5 active torsions:
REMARK  status: ('A' for Active; 'I' for Inactive)
REMARK    1  A    between atoms: C2_2  and  C3_3 
REMARK    2  A    between atoms: C3_3  and  O1_4 
REMARK    3  A    between atoms: C8_10  and  C9_11 
REMARK    4  A    between atoms: C9_11  and  C10_12 
REMARK    5  A    between atoms: C11_13  and  O2_15 
ROOT
HETATM    1  C3  UNL     1      10.730   6.481  22.764  1.00  0.00     0.079 C 
HETATM    2  C4  UNL     1      10.287   7.883  22.544  1.00  0.00     0.051 C 
HETATM    3  C5  UNL     1       8.910   8.239  22.925  1.00  0.00    -0.041 C 
HETATM    4  C6  UNL     1       8.364   9.226  21.882  1.00  0.00     0.015 C 
HETATM    5  C7  UNL     1       8.882   9.019  24.237  1.00  0.00     0.015 C 
HETATM    6  C8  UNL     1       7.931   7.106  23.065  1.00  0.00    -0.003 C 
HETATM    7  C13 UNL     1       8.488   5.991  23.858  1.00  0.00     0.013 C 
HETATM    8  C14 UNL     1       9.935   5.675  23.704  1.00  0.00     0.020 C 
HETATM    9  C15 UNL     1      10.634   5.626  25.073  1.00  0.00     0.013 C 
ENDROOT
BRANCH   6  10
HETATM   10  C9  UNL     1       7.283   6.719  21.775  1.00  0.00     0.035 C 
BRANCH  10  11
HETATM   11  C10 UNL     1       7.569   5.328  21.330  1.00  0.00     0.005 C 
HETATM   12  C11 UNL     1       6.730   4.624  20.597  1.00  0.00     0.035 C 
HETATM   13  C12 UNL     1       7.094   3.250  20.201  1.00  0.00     0.075 C 
BRANCH  12  14
HETATM   14  O2  UNL     1       5.520   5.148  20.196  1.00  0.00    -0.366 OA
ATOM     15  H2  UNL     1       5.356   5.369  19.286  1.00  0.00     0.217 HD
ENDBRANCH  12  14
ENDBRANCH  10  11
ENDBRANCH   6  10
BRANCH   1  16
HETATM   16  C2  UNL     1      12.148   6.522  23.240  1.00  0.00     0.001 C 
HETATM   17  C1  UNL     1      13.100   6.947  22.421  1.00  0.00     0.010 C 
ENDBRANCH   1  16
BRANCH   1  18
HETATM   18  O1  UNL     1      10.846   5.801  21.521  1.00  0.00    -0.385 OA
ATOM     19  H1  UNL     1      10.388   4.986  21.691  1.00  0.00     0.211 HD
ENDBRANCH   1  18
TORSDOF 5
ENDMDL
