MODEL 1
REMARK VINA RESULT: -7.428218983      0.000      0.000
REMARK  5 active torsions:
REMARK  status: ('A' for Active; 'I' for Inactive)
REMARK    1  A    between atoms: C2_2  and  C3_3 
REMARK    2  A    between atoms: C3_3  and  C4_4 
REMARK    3  A    between atoms: C4_4  and  C5_5 
REMARK    4  A    between atoms: C5_5  and  C6_6 
REMARK    5  A    between atoms: C7_7  and  O1_8 
ROOT
HETATM    1  C6  UNL     1      10.802   5.396  23.124  1.00  0.00     0.103 C 
HETATM    2  C7  UNL     1      11.837   6.454  22.747  1.00  0.00     0.135 C 
HETATM    3  C8  UNL     1      13.014   5.868  21.949  1.00  0.00     0.037 C 
HETATM    4  C9  UNL     1      12.326   5.055  20.915  1.00  0.00    -0.010 C 
HETATM    5  C10 UNL     1      12.946   4.604  19.686  1.00  0.00     0.008 C 
HETATM    6  C11 UNL     1      11.822   4.623  18.633  1.00  0.00     0.029 C 
HETATM    7  C12 UNL     1      10.717   3.691  18.860  1.00  0.00    -0.010 C 
HETATM    8  C13 UNL     1       9.746   3.833  19.929  1.00  0.00     0.079 C 
HETATM    9  N1  UNL     1       9.831   4.814  20.938  1.00  0.00    -0.393 N 
ATOM     10  H1  UNL     1       9.489   5.769  20.829  1.00  0.00     0.159 HD
HETATM   11  C14 UNL     1      10.470   4.309  22.169  1.00  0.00     0.098 C 
HETATM   12  C15 UNL     1      11.821   3.854  21.685  1.00  0.00     0.031 C 
ENDROOT
BRANCH   1  13
HETATM   13  C5  UNL     1      10.266   5.539  24.279  1.00  0.00    -0.174 C 
BRANCH  13  14
HETATM   14  C4  UNL     1       9.679   5.696  25.549  1.00  0.00     0.080 C 
BRANCH  14  15
HETATM   15  C3  UNL     1       8.697   6.855  25.653  1.00  0.00     0.011 C 
BRANCH  15  16
HETATM   16  C2  UNL     1       7.998   6.892  26.966  1.00  0.00    -0.004 C 
HETATM   17  C1  UNL     1       8.271   5.595  27.712  1.00  0.00     0.005 C 
ENDBRANCH  15  16
ENDBRANCH  14  15
ENDBRANCH  13  14
ENDBRANCH   1  13
BRANCH   2  18
HETATM   18  O1  UNL     1      11.180   7.415  21.996  1.00  0.00    -0.394 OA
ATOM     19  H1  UNL     1      11.646   7.489  21.171  1.00  0.00     0.210 HD
ENDBRANCH   2  18
TORSDOF 5
ENDMDL
MODEL 2
REMARK VINA RESULT: -7.268587224      0.697      1.271
REMARK  5 active torsions:
REMARK  status: ('A' for Active; 'I' for Inactive)
REMARK    1  A    between atoms: C2_2  and  C3_3 
REMARK    2  A    between atoms: C3_3  and  C4_4 
REMARK    3  A    between atoms: C4_4  and  C5_5 
REMARK    4  A    between atoms: C5_5  and  C6_6 
REMARK    5  A    between atoms: C7_7  and  O1_8 
ROOT
HETATM    1  C6  UNL     1      10.776   5.424  23.160  1.00  0.00     0.103 C 
HETATM    2  C7  UNL     1      11.818   6.483  22.803  1.00  0.00     0.135 C 
HETATM    3  C8  UNL     1      13.014   5.896  22.034  1.00  0.00     0.037 C 
HETATM    4  C9  UNL     1      12.351   5.078  20.988  1.00  0.00    -0.010 C 
HETATM    5  C10 UNL     1      12.999   4.623  19.776  1.00  0.00     0.008 C 
HETATM    6  C11 UNL     1      11.900   4.636  18.697  1.00  0.00     0.029 C 
HETATM    7  C12 UNL     1      10.792   3.702  18.902  1.00  0.00    -0.010 C 
HETATM    8  C13 UNL     1       9.796   3.845  19.949  1.00  0.00     0.079 C 
HETATM    9  N1  UNL     1       9.857   4.831  20.955  1.00  0.00    -0.393 N 
ATOM     10  H1  UNL     1       9.515   5.785  20.835  1.00  0.00     0.159 HD
HETATM   11  C14 UNL     1      10.469   4.332  22.202  1.00  0.00     0.098 C 
HETATM   12  C15 UNL     1      11.831   3.878  21.751  1.00  0.00     0.031 C 
ENDROOT
BRANCH   1  13
HETATM   13  C5  UNL     1      10.214   5.570  24.302  1.00  0.00    -0.174 C 
BRANCH  13  14
HETATM   14  C4  UNL     1       9.598   5.732  25.559  1.00  0.00     0.080 C 
BRANCH  14  15
HETATM   15  C3  UNL     1       8.314   6.550  25.533  1.00  0.00     0.011 C 
BRANCH  15  16
HETATM   16  C2  UNL     1       8.533   7.939  25.046  1.00  0.00    -0.004 C 
HETATM   17  C1  UNL     1       7.615   8.203  23.863  1.00  0.00     0.005 C 
ENDBRANCH  15  16
ENDBRANCH  14  15
ENDBRANCH  13  14
ENDBRANCH   1  13
BRANCH   2  18
HETATM   18  O1  UNL     1      11.175   7.439  22.033  1.00  0.00    -0.394 OA
ATOM     19  H1  UNL     1      10.317   7.575  22.417  1.00  0.00     0.210 HD
ENDBRANCH   2  18
TORSDOF 5
ENDMDL
MODEL 3
REMARK VINA RESULT: -7.023305327      1.657      5.885
REMARK  5 active torsions:
REMARK  status: ('A' for Active; 'I' for Inactive)
REMARK    1  A    between atoms: C2_2  and  C3_3 
REMARK    2  A    between atoms: C3_3  and  C4_4 
REMARK    3  A    between atoms: C4_4  and  C5_5 
REMARK    4  A    between atoms: C5_5  and  C6_6 
REMARK    5  A    between atoms: C7_7  and  O1_8 
ROOT
HETATM    1  C6  UNL     1      10.482   5.097  22.677  1.00  0.00     0.103 C 
HETATM    2  C7  UNL     1      11.108   6.468  22.430  1.00  0.00     0.135 C 
HETATM    3  C8  UNL     1      10.068   7.601  22.444  1.00  0.00     0.037 C 
HETATM    4  C9  UNL     1       9.299   7.313  23.681  1.00  0.00    -0.010 C 
HETATM    5  C10 UNL     1       8.460   8.276  24.363  1.00  0.00     0.008 C 
HETATM    6  C11 UNL     1       8.592   7.942  25.860  1.00  0.00     0.029 C 
HETATM    7  C12 UNL     1       8.074   6.636  26.272  1.00  0.00    -0.010 C 
HETATM    8  C13 UNL     1       8.691   5.372  25.914  1.00  0.00     0.079 C 
HETATM    9  N1  UNL     1       9.785   5.258  25.032  1.00  0.00    -0.393 N 
ATOM     10  H1  UNL     1      10.758   5.375  25.318  1.00  0.00     0.159 HD
HETATM   11  C14 UNL     1       9.370   4.953  23.649  1.00  0.00     0.098 C 
HETATM   12  C15 UNL     1       8.465   6.106  23.307  1.00  0.00     0.031 C 
ENDROOT
BRANCH   1  13
HETATM   13  C5  UNL     1      10.994   4.132  22.008  1.00  0.00    -0.174 C 
BRANCH  13  14
HETATM   14  C4  UNL     1      11.554   3.070  21.272  1.00  0.00     0.080 C 
BRANCH  14  15
HETATM   15  C3  UNL     1      12.805   3.437  20.484  1.00  0.00     0.011 C 
BRANCH  15  16
HETATM   16  C2  UNL     1      12.600   4.624  19.612  1.00  0.00    -0.004 C 
HETATM   17  C1  UNL     1      11.711   4.235  18.441  1.00  0.00     0.005 C 
ENDBRANCH  15  16
ENDBRANCH  14  15
ENDBRANCH  13  14
ENDBRANCH   1  13
BRANCH   2  18
HETATM   18  O1  UNL     1      12.051   6.669  23.426  1.00  0.00    -0.394 OA
ATOM     19  H1  UNL     1      12.682   7.294  23.089  1.00  0.00     0.210 HD
ENDBRANCH   2  18
TORSDOF 5
ENDMDL
MODEL 4
REMARK VINA RESULT: -6.893045808      1.431      2.229
REMARK  5 active torsions:
REMARK  status: ('A' for Active; 'I' for Inactive)
REMARK    1  A    between atoms: C2_2  and  C3_3 
REMARK    2  A    between atoms: C3_3  and  C4_4 
REMARK    3  A    between atoms: C4_4  and  C5_5 
REMARK    4  A    between atoms: C5_5  and  C6_6 
REMARK    5  A    between atoms: C7_7  and  O1_8 
ROOT
HETATM    1  C6  UNL     1       9.238   6.918  24.021  1.00  0.00     0.103 C 
HETATM    2  C7  UNL     1       9.775   7.986  23.070  1.00  0.00     0.135 C 
HETATM    3  C8  UNL     1      11.187   7.659  22.555  1.00  0.00     0.037 C 
HETATM    4  C9  UNL     1      11.053   6.242  22.132  1.00  0.00    -0.010 C 
HETATM    5  C10 UNL     1      11.968   5.569  21.234  1.00  0.00     0.008 C 
HETATM    6  C11 UNL     1      11.097   4.589  20.427  1.00  0.00     0.029 C 
HETATM    7  C12 UNL     1      10.465   3.514  21.193  1.00  0.00    -0.010 C 
HETATM    8  C13 UNL     1       9.387   3.723  22.142  1.00  0.00     0.079 C 
HETATM    9  N1  UNL     1       8.913   4.996  22.518  1.00  0.00    -0.393 N 
ATOM     10  H1  UNL     1       8.220   5.523  21.985  1.00  0.00     0.159 HD
HETATM   11  C14 UNL     1       9.528   5.485  23.768  1.00  0.00     0.098 C 
HETATM   12  C15 UNL     1      10.997   5.485  23.442  1.00  0.00     0.031 C 
ENDROOT
BRANCH   1  13
HETATM   13  C5  UNL     1       8.538   7.357  25.000  1.00  0.00    -0.174 C 
BRANCH  13  14
HETATM   14  C4  UNL     1       7.770   7.839  26.078  1.00  0.00     0.080 C 
BRANCH  14  15
HETATM   15  C3  UNL     1       8.105   7.211  27.425  1.00  0.00     0.011 C 
BRANCH  15  16
HETATM   16  C2  UNL     1       7.918   5.734  27.425  1.00  0.00    -0.004 C 
HETATM   17  C1  UNL     1       9.280   5.061  27.504  1.00  0.00     0.005 C 
ENDBRANCH  15  16
ENDBRANCH  14  15
ENDBRANCH  13  14
ENDBRANCH   1  13
BRANCH   2  18
HETATM   18  O1  UNL     1       8.886   8.069  22.010  1.00  0.00    -0.394 OA
ATOM     19  H1  UNL     1       8.021   7.879  22.357  1.00  0.00     0.210 HD
ENDBRANCH   2  18
TORSDOF 5
ENDMDL
MODEL 5
REMARK VINA RESULT: -6.723298612      1.912      2.949
REMARK  5 active torsions:
REMARK  status: ('A' for Active; 'I' for Inactive)
REMARK    1  A    between atoms: C2_2  and  C3_3 
REMARK    2  A    between atoms: C3_3  and  C4_4 
REMARK    3  A    between atoms: C4_4  and  C5_5 
REMARK    4  A    between atoms: C5_5  and  C6_6 
REMARK    5  A    between atoms: C7_7  and  O1_8 
ROOT
HETATM    1  C6  UNL     1       9.452   6.368  23.008  1.00  0.00     0.103 C 
HETATM    2  C7  UNL     1       8.989   5.027  23.574  1.00  0.00     0.135 C 
HETATM    3  C8  UNL     1       9.048   3.897  22.532  1.00  0.00     0.037 C 
HETATM    4  C9  UNL     1      10.405   4.065  21.954  1.00  0.00    -0.010 C 
HETATM    5  C10 UNL     1      11.107   3.042  21.210  1.00  0.00     0.008 C 
HETATM    6  C11 UNL     1      12.594   3.232  21.561  1.00  0.00     0.029 C 
HETATM    7  C12 UNL     1      13.198   4.492  21.126  1.00  0.00    -0.010 C 
HETATM    8  C13 UNL     1      12.875   5.785  21.701  1.00  0.00     0.079 C 
HETATM    9  N1  UNL     1      11.858   5.983  22.658  1.00  0.00    -0.393 N 
ATOM     10  H1  UNL     1      11.987   5.841  23.659  1.00  0.00     0.159 HD
HETATM   11  C14 UNL     1      10.585   6.418  22.050  1.00  0.00     0.098 C 
HETATM   12  C15 UNL     1      10.271   5.302  21.090  1.00  0.00     0.031 C 
ENDROOT
BRANCH   1  13
HETATM   13  C5  UNL     1       8.810   7.393  23.430  1.00  0.00    -0.174 C 
BRANCH  13  14
HETATM   14  C4  UNL     1       8.104   8.519  23.896  1.00  0.00     0.080 C 
BRANCH  14  15
HETATM   15  C3  UNL     1       7.391   8.314  25.226  1.00  0.00     0.011 C 
BRANCH  15  16
HETATM   16  C2  UNL     1       8.284   7.735  26.266  1.00  0.00    -0.004 C 
HETATM   17  C1  UNL     1       7.612   6.514  26.875  1.00  0.00     0.005 C 
ENDBRANCH  15  16
ENDBRANCH  14  15
ENDBRANCH  13  14
ENDBRANCH   1  13
BRANCH   2  18
HETATM   18  O1  UNL     1       9.814   4.733  24.648  1.00  0.00    -0.394 OA
ATOM     19  H1  UNL     1       9.963   5.547  25.115  1.00  0.00     0.210 HD
ENDBRANCH   2  18
TORSDOF 5
ENDMDL
