MODEL 1
REMARK VINA RESULT: -8.435800117      0.000      0.000
REMARK  5 active torsions:
REMARK  status: ('A' for Active; 'I' for Inactive)
REMARK    1  A    between atoms: C4_5  and  N1_6 
REMARK    2  A    between atoms: N1_6  and  C5_8 
REMARK    3  A    between atoms: C5_8  and  C6_9 
REMARK    4  A    between atoms: C5_8  and  C11_16 
REMARK    5  A    between atoms: C11_16  and  C12_17 
ROOT
HETATM    1  C5  UNL     1      -9.254 -16.132   7.289  1.00  0.00     0.102 C 
ENDROOT
BRANCH   1   2
HETATM    2  N1  UNL     1      -8.302 -17.189   6.944  1.00  0.00    -0.384 N 
ATOM      3  H1  UNL     1      -8.529 -17.806   6.164  1.00  0.00     0.160 HD
BRANCH   2   4
HETATM    4  C4  UNL     1      -7.085 -17.403   7.631  1.00  0.00     0.028 A 
HETATM    5  C3  UNL     1      -6.507 -18.635   7.847  1.00  0.00     0.032 A 
HETATM    6  C2  UNL     1      -5.340 -18.796   8.544  1.00  0.00     0.044 A 
HETATM    7  C1  UNL     1      -4.697 -17.692   9.063  1.00  0.00     0.116 A 
HETATM    8  F1  UNL     1      -3.524 -17.849   9.765  1.00  0.00    -0.206 F 
HETATM    9  C17 UNL     1      -5.234 -16.435   8.876  1.00  0.00     0.044 A 
HETATM   10  C16 UNL     1      -6.408 -16.334   8.165  1.00  0.00     0.032 A 
ENDBRANCH   2   4
ENDBRANCH   1   2
BRANCH   1  11
HETATM   11  C6  UNL     1      -9.392 -15.251   6.038  1.00  0.00     0.016 C 
HETATM   12  C7  UNL     1      -8.896 -13.870   6.171  1.00  0.00     0.051 C 
HETATM   13  C8  UNL     1      -8.070 -13.408   4.982  1.00  0.00     0.056 C 
HETATM   14  N2  UNL     1      -8.463 -13.882   3.721  1.00  0.00    -0.402 N 
HETATM   15  C9  UNL     1      -9.343 -14.980   3.655  1.00  0.00     0.119 C 
ATOM     16  H2  UNL     1      -8.119 -13.439   2.869  1.00  0.00     0.158 HD
HETATM   17  C10 UNL     1      -8.957 -15.954   4.781  1.00  0.00     0.026 C 
ENDBRANCH   1  11
BRANCH   1  18
HETATM   18  C11 UNL     1     -10.569 -16.701   7.695  1.00  0.00     0.041 C 
HETATM   19  C13 UNL     1     -11.099 -17.884   6.923  1.00  0.00     0.020 C 
HETATM   20  C14 UNL     1     -12.485 -17.226   6.996  1.00  0.00     0.002 C 
HETATM   21  C15 UNL     1     -11.730 -15.909   7.097  1.00  0.00     0.020 C 
BRANCH  18  22
HETATM   22  C12 UNL     1     -10.819 -16.833   9.151  1.00  0.00     0.120 A 
HETATM   23  N3  UNL     1     -10.021 -17.517  10.015  1.00  0.00    -0.270 N 
HETATM   24  N4  UNL     1     -10.553 -17.417  11.226  1.00  0.00    -0.005 NA
ATOM     25  H3  UNL     1      -9.165 -18.017   9.775  1.00  0.00     0.185 HD
HETATM   26  N5  UNL     1     -11.658 -16.695  11.162  1.00  0.00    -0.225 N 
HETATM   27  N6  UNL     1     -11.797 -16.356   9.904  1.00  0.00    -0.274 N 
ATOM     28  H5  UNL     1     -12.277 -16.451  11.934  1.00  0.00     0.205 HD
ATOM     29  H6  UNL     1     -12.567 -15.790   9.547  1.00  0.00     0.189 HD
ENDBRANCH  18  22
ENDBRANCH   1  18
TORSDOF 5
ENDMDL
MODEL 2
REMARK VINA RESULT: -8.139484783      0.554      1.113
REMARK  5 active torsions:
REMARK  status: ('A' for Active; 'I' for Inactive)
REMARK    1  A    between atoms: C4_5  and  N1_6 
REMARK    2  A    between atoms: N1_6  and  C5_8 
REMARK    3  A    between atoms: C5_8  and  C6_9 
REMARK    4  A    between atoms: C5_8  and  C11_16 
REMARK    5  A    between atoms: C11_16  and  C12_17 
ROOT
HETATM    1  C5  UNL     1      -9.259 -15.890   7.404  1.00  0.00     0.102 C 
ENDROOT
BRANCH   1   2
HETATM    2  N1  UNL     1      -8.148 -16.830   7.249  1.00  0.00    -0.384 N 
ATOM      3  H1  UNL     1      -8.279 -17.634   6.635  1.00  0.00     0.160 HD
BRANCH   2   4
HETATM    4  C4  UNL     1      -6.902 -16.687   7.903  1.00  0.00     0.028 A 
HETATM    5  C3  UNL     1      -6.162 -15.525   7.943  1.00  0.00     0.032 A 
HETATM    6  C2  UNL     1      -4.945 -15.441   8.564  1.00  0.00     0.044 A 
HETATM    7  C1  UNL     1      -4.417 -16.555   9.183  1.00  0.00     0.116 A 
HETATM    8  F1  UNL     1      -3.193 -16.476   9.809  1.00  0.00    -0.206 F 
HETATM    9  C17 UNL     1      -5.118 -17.743   9.171  1.00  0.00     0.044 A 
HETATM   10  C16 UNL     1      -6.337 -17.767   8.533  1.00  0.00     0.032 A 
ENDBRANCH   2   4
ENDBRANCH   1   2
BRANCH   1  11
HETATM   11  C6  UNL     1      -9.383 -15.145   6.067  1.00  0.00     0.016 C 
HETATM   12  C7  UNL     1      -8.939 -13.740   6.074  1.00  0.00     0.051 C 
HETATM   13  C8  UNL     1      -8.089 -13.371   4.869  1.00  0.00     0.056 C 
HETATM   14  N2  UNL     1      -8.423 -13.983   3.652  1.00  0.00    -0.402 N 
HETATM   15  C9  UNL     1      -9.262 -15.114   3.671  1.00  0.00     0.119 C 
ATOM     16  H2  UNL     1      -8.065 -13.617   2.770  1.00  0.00     0.158 HD
HETATM   17  C10 UNL     1      -8.883 -15.954   4.902  1.00  0.00     0.026 C 
ENDBRANCH   1  11
BRANCH   1  18
HETATM   18  C11 UNL     1     -10.523 -16.599   7.746  1.00  0.00     0.041 C 
HETATM   19  C13 UNL     1     -10.905 -17.805   6.924  1.00  0.00     0.020 C 
HETATM   20  C14 UNL     1     -12.352 -17.291   6.964  1.00  0.00     0.002 C 
HETATM   21  C15 UNL     1     -11.737 -15.909   7.127  1.00  0.00     0.020 C 
BRANCH  18  22
HETATM   22  C12 UNL     1     -10.808 -16.800   9.188  1.00  0.00     0.120 A 
HETATM   23  N3  UNL     1     -10.009 -17.489  10.047  1.00  0.00    -0.270 N 
HETATM   24  N4  UNL     1     -10.577 -17.458  11.246  1.00  0.00    -0.005 NA
ATOM     25  H3  UNL     1      -9.129 -17.948   9.812  1.00  0.00     0.185 HD
HETATM   26  N5  UNL     1     -11.706 -16.774  11.178  1.00  0.00    -0.225 N 
HETATM   27  N6  UNL     1     -11.823 -16.389   9.931  1.00  0.00    -0.274 N 
ATOM     28  H5  UNL     1     -12.355 -16.584  11.941  1.00  0.00     0.205 HD
ATOM     29  H6  UNL     1     -12.603 -15.837   9.575  1.00  0.00     0.189 HD
ENDBRANCH  18  22
ENDBRANCH   1  18
TORSDOF 5
ENDMDL
MODEL 3
REMARK VINA RESULT: -7.791956769      1.806      4.988
REMARK  5 active torsions:
REMARK  status: ('A' for Active; 'I' for Inactive)
REMARK    1  A    between atoms: C4_5  and  N1_6 
REMARK    2  A    between atoms: N1_6  and  C5_8 
REMARK    3  A    between atoms: C5_8  and  C6_9 
REMARK    4  A    between atoms: C5_8  and  C11_16 
REMARK    5  A    between atoms: C11_16  and  C12_17 
ROOT
HETATM    1  C5  UNL     1      -9.165 -16.509   6.728  1.00  0.00     0.102 C 
ENDROOT
BRANCH   1   2
HETATM    2  N1  UNL     1      -8.298 -16.584   7.904  1.00  0.00    -0.384 N 
ATOM      3  H1  UNL     1      -8.284 -15.790   8.545  1.00  0.00     0.160 HD
BRANCH   2   4
HETATM    4  C4  UNL     1      -7.477 -17.695   8.204  1.00  0.00     0.028 A 
HETATM    5  C3  UNL     1      -6.574 -18.266   7.333  1.00  0.00     0.032 A 
HETATM    6  C2  UNL     1      -5.820 -19.361   7.657  1.00  0.00     0.044 A 
HETATM    7  C1  UNL     1      -5.952 -19.936   8.904  1.00  0.00     0.116 A 
HETATM    8  F1  UNL     1      -5.196 -21.038   9.234  1.00  0.00    -0.206 F 
HETATM    9  C17 UNL     1      -6.843 -19.403   9.813  1.00  0.00     0.044 A 
HETATM   10  C16 UNL     1      -7.572 -18.301   9.432  1.00  0.00     0.032 A 
ENDBRANCH   2   4
ENDBRANCH   1   2
BRANCH   1  11
HETATM   11  C6  UNL     1     -10.608 -16.511   7.255  1.00  0.00     0.016 C 
HETATM   12  C7  UNL     1     -11.571 -17.312   6.480  1.00  0.00     0.051 C 
HETATM   13  C8  UNL     1     -12.487 -18.160   7.347  1.00  0.00     0.056 C 
HETATM   14  N2  UNL     1     -12.881 -17.606   8.575  1.00  0.00    -0.402 N 
HETATM   15  C9  UNL     1     -12.169 -16.498   9.076  1.00  0.00     0.119 C 
ATOM     16  H2  UNL     1     -13.666 -17.998   9.094  1.00  0.00     0.158 HD
HETATM   17  C10 UNL     1     -10.683 -16.710   8.744  1.00  0.00     0.026 C 
ENDBRANCH   1  11
BRANCH   1  18
HETATM   18  C11 UNL     1      -8.886 -15.284   5.927  1.00  0.00     0.041 C 
HETATM   19  C13 UNL     1      -7.699 -14.439   6.316  1.00  0.00     0.020 C 
HETATM   20  C14 UNL     1      -8.575 -13.205   6.050  1.00  0.00     0.002 C 
HETATM   21  C15 UNL     1      -9.752 -14.111   6.379  1.00  0.00     0.020 C 
BRANCH  18  22
HETATM   22  C12 UNL     1      -9.023 -15.403   4.455  1.00  0.00     0.120 A 
HETATM   23  N3  UNL     1     -10.198 -15.319   3.776  1.00  0.00    -0.270 N 
HETATM   24  N4  UNL     1      -9.936 -15.469   2.485  1.00  0.00    -0.005 NA
ATOM     25  H3  UNL     1     -11.120 -15.167   4.187  1.00  0.00     0.185 HD
HETATM   26  N5  UNL     1      -8.636 -15.644   2.320  1.00  0.00    -0.225 N 
HETATM   27  N6  UNL     1      -8.109 -15.601   3.518  1.00  0.00    -0.274 N 
ATOM     28  H5  UNL     1      -8.143 -15.784   1.438  1.00  0.00     0.205 HD
ATOM     29  H6  UNL     1      -7.112 -15.706   3.707  1.00  0.00     0.189 HD
ENDBRANCH  18  22
ENDBRANCH   1  18
TORSDOF 5
ENDMDL
MODEL 4
REMARK VINA RESULT: -7.773001435      1.817      4.988
REMARK  5 active torsions:
REMARK  status: ('A' for Active; 'I' for Inactive)
REMARK    1  A    between atoms: C4_5  and  N1_6 
REMARK    2  A    between atoms: N1_6  and  C5_8 
REMARK    3  A    between atoms: C5_8  and  C6_9 
REMARK    4  A    between atoms: C5_8  and  C11_16 
REMARK    5  A    between atoms: C11_16  and  C12_17 
ROOT
HETATM    1  C5  UNL     1      -9.015 -16.444   6.731  1.00  0.00     0.102 C 
ENDROOT
BRANCH   1   2
HETATM    2  N1  UNL     1      -8.173 -16.549   7.924  1.00  0.00    -0.384 N 
ATOM      3  H1  UNL     1      -8.101 -15.737   8.536  1.00  0.00     0.160 HD
BRANCH   2   4
HETATM    4  C4  UNL     1      -7.452 -17.714   8.275  1.00  0.00     0.028 A 
HETATM    5  C3  UNL     1      -7.537 -18.356   9.491  1.00  0.00     0.032 A 
HETATM    6  C2  UNL     1      -6.797 -19.467   9.797  1.00  0.00     0.044 A 
HETATM    7  C1  UNL     1      -5.922 -19.982   8.864  1.00  0.00     0.116 A 
HETATM    8  F1  UNL     1      -5.176 -21.098   9.167  1.00  0.00    -0.206 F 
HETATM    9  C17 UNL     1      -5.799 -19.376   7.631  1.00  0.00     0.044 A 
HETATM   10  C16 UNL     1      -6.570 -18.264   7.378  1.00  0.00     0.032 A 
ENDBRANCH   2   4
ENDBRANCH   1   2
BRANCH   1  11
HETATM   11  C6  UNL     1     -10.468 -16.498   7.223  1.00  0.00     0.016 C 
HETATM   12  C7  UNL     1     -11.382 -17.336   6.427  1.00  0.00     0.051 C 
HETATM   13  C8  UNL     1     -12.287 -18.214   7.276  1.00  0.00     0.056 C 
HETATM   14  N2  UNL     1     -12.731 -17.672   8.491  1.00  0.00    -0.402 N 
HETATM   15  C9  UNL     1     -12.073 -16.538   9.006  1.00  0.00     0.119 C 
ATOM     16  H2  UNL     1     -13.514 -18.091   8.993  1.00  0.00     0.158 HD
HETATM   17  C10 UNL     1     -10.572 -16.695   8.710  1.00  0.00     0.026 C 
ENDBRANCH   1  11
BRANCH   1  18
HETATM   18  C11 UNL     1      -8.743 -15.182   5.987  1.00  0.00     0.041 C 
HETATM   19  C13 UNL     1      -7.647 -14.281   6.497  1.00  0.00     0.020 C 
HETATM   20  C14 UNL     1      -8.570 -13.093   6.187  1.00  0.00     0.002 C 
HETATM   21  C15 UNL     1      -9.714 -14.075   6.392  1.00  0.00     0.020 C 
BRANCH  18  22
HETATM   22  C12 UNL     1      -8.749 -15.265   4.506  1.00  0.00     0.120 A 
HETATM   23  N3  UNL     1      -7.713 -14.896   3.705  1.00  0.00    -0.270 N 
HETATM   24  N4  UNL     1      -8.074 -15.111   2.447  1.00  0.00    -0.005 NA
ATOM     25  H3  UNL     1      -6.817 -14.520   4.016  1.00  0.00     0.185 HD
HETATM   26  N5  UNL     1      -9.301 -15.604   2.421  1.00  0.00    -0.225 N 
HETATM   27  N6  UNL     1      -9.684 -15.687   3.671  1.00  0.00    -0.274 N 
ATOM     28  H5  UNL     1      -9.839 -15.866   1.596  1.00  0.00     0.205 HD
ATOM     29  H6  UNL     1     -10.596 -16.037   3.965  1.00  0.00     0.189 HD
ENDBRANCH  18  22
ENDBRANCH   1  18
TORSDOF 5
ENDMDL
MODEL 5
REMARK VINA RESULT: -7.664351044      3.268      5.825
REMARK  5 active torsions:
REMARK  status: ('A' for Active; 'I' for Inactive)
REMARK    1  A    between atoms: C4_5  and  N1_6 
REMARK    2  A    between atoms: N1_6  and  C5_8 
REMARK    3  A    between atoms: C5_8  and  C6_9 
REMARK    4  A    between atoms: C5_8  and  C11_16 
REMARK    5  A    between atoms: C11_16  and  C12_17 
ROOT
HETATM    1  C5  UNL     1      -9.021 -15.708   6.423  1.00  0.00     0.102 C 
ENDROOT
BRANCH   1   2
HETATM    2  N1  UNL     1      -8.958 -16.174   5.037  1.00  0.00    -0.384 N 
ATOM      3  H1  UNL     1      -9.059 -17.173   4.859  1.00  0.00     0.160 HD
BRANCH   2   4
HETATM    4  C4  UNL     1      -8.765 -15.316   3.930  1.00  0.00     0.028 A 
HETATM    5  C3  UNL     1      -9.061 -15.637   2.623  1.00  0.00     0.032 A 
HETATM    6  C2  UNL     1      -8.830 -14.783   1.578  1.00  0.00     0.044 A 
HETATM    7  C1  UNL     1      -8.277 -13.543   1.820  1.00  0.00     0.116 A 
HETATM    8  F1  UNL     1      -8.042 -12.682   0.772  1.00  0.00    -0.206 F 
HETATM    9  C17 UNL     1      -7.961 -13.173   3.110  1.00  0.00     0.044 A 
HETATM   10  C16 UNL     1      -8.218 -14.071   4.121  1.00  0.00     0.032 A 
ENDBRANCH   2   4
ENDBRANCH   1   2
BRANCH   1  11
HETATM   11  C6  UNL     1     -10.381 -16.166   6.970  1.00  0.00     0.016 C 
HETATM   12  C7  UNL     1     -11.482 -15.196   6.841  1.00  0.00     0.051 C 
HETATM   13  C8  UNL     1     -12.779 -15.817   6.350  1.00  0.00     0.056 C 
HETATM   14  N2  UNL     1     -13.057 -17.121   6.786  1.00  0.00    -0.402 N 
HETATM   15  C9  UNL     1     -12.014 -17.883   7.347  1.00  0.00     0.119 C 
ATOM     16  H2  UNL     1     -13.996 -17.510   6.700  1.00  0.00     0.158 HD
HETATM   17  C10 UNL     1     -10.732 -17.569   6.558  1.00  0.00     0.026 C 
ENDBRANCH   1  11
BRANCH   1  18
HETATM   18  C11 UNL     1      -7.900 -16.264   7.232  1.00  0.00     0.041 C 
HETATM   19  C13 UNL     1      -7.429 -17.663   6.923  1.00  0.00     0.020 C 
HETATM   20  C14 UNL     1      -7.313 -17.887   8.438  1.00  0.00     0.002 C 
HETATM   21  C15 UNL     1      -8.395 -16.824   8.564  1.00  0.00     0.020 C 
BRANCH  18  22
HETATM   22  C12 UNL     1      -6.769 -15.350   7.521  1.00  0.00     0.120 A 
HETATM   23  N3  UNL     1      -5.747 -15.627   8.375  1.00  0.00    -0.270 N 
HETATM   24  N4  UNL     1      -4.925 -14.586   8.380  1.00  0.00    -0.005 NA
ATOM     25  H3  UNL     1      -5.632 -16.484   8.917  1.00  0.00     0.185 HD
HETATM   26  N5  UNL     1      -5.388 -13.659   7.559  1.00  0.00    -0.225 N 
HETATM   27  N6  UNL     1      -6.496 -14.142   7.055  1.00  0.00    -0.274 N 
ATOM     28  H5  UNL     1      -4.967 -12.752   7.358  1.00  0.00     0.205 HD
ATOM     29  H6  UNL     1      -7.081 -13.645   6.382  1.00  0.00     0.189 HD
ENDBRANCH  18  22
ENDBRANCH   1  18
TORSDOF 5
ENDMDL
