MODEL 1
REMARK VINA RESULT: -6.424334058      0.000      0.000
REMARK  7 active torsions:
REMARK  status: ('A' for Active; 'I' for Inactive)
REMARK    1  A    between atoms: C2_2  and  O1_3 
REMARK    2  A    between atoms: C2_2  and  C9_14 
REMARK    3  A    between atoms: O1_3  and  C3_4 
REMARK    4  A    between atoms: C3_4  and  C4_5 
REMARK    5  A    between atoms: C4_5  and  C5_6 
REMARK    6  A    between atoms: C11_18  and  N3_19 
REMARK    7  A    between atoms: C12_24  and  C13_25 
ROOT
HETATM    1  C9  UNL     1      -8.937 -15.237   5.708  1.00  0.00     0.011 A 
HETATM    2  C10 UNL     1      -9.104 -16.606   6.014  1.00  0.00     0.117 A 
HETATM    3  N2  UNL     1      -8.327 -17.268   6.867  1.00  0.00    -0.202 N 
ATOM      4  H2  UNL     1      -8.497 -18.258   7.047  1.00  0.00     0.183 HD
HETATM    5  C11 UNL     1      -7.330 -16.641   7.483  1.00  0.00     0.675 A 
HETATM    6  N4  UNL     1      -7.138 -15.355   7.224  1.00  0.00    -0.193 N 
ATOM      7  H4  UNL     1      -6.372 -14.880   7.702  1.00  0.00     0.184 HD
HETATM    8  C12 UNL     1      -7.911 -14.616   6.348  1.00  0.00     0.059 A 
ENDROOT
BRANCH   1   9
HETATM    9  C2  UNL     1      -9.877 -14.660   4.800  1.00  0.00     0.153 C 
HETATM   10  C1  UNL     1      -9.590 -15.319   3.353  1.00  0.00     0.045 C 
BRANCH   9  11
HETATM   11  O1  UNL     1     -11.174 -15.188   5.074  1.00  0.00    -0.381 OA
BRANCH  11  12
HETATM   12  C3  UNL     1     -12.031 -14.292   5.683  1.00  0.00     0.170 C 
BRANCH  12  13
HETATM   13  C4  UNL     1     -13.346 -14.988   5.922  1.00  0.00     0.061 C 
BRANCH  13  14
HETATM   14  C5  UNL     1     -13.190 -15.966   7.062  1.00  0.00     0.211 C 
HETATM   15  C6  UNL     1     -13.347 -17.392   6.557  1.00  0.00     0.200 C 
HETATM   16  O2  UNL     1     -12.247 -18.121   6.916  1.00  0.00    -0.387 OA
HETATM   17  C7  UNL     1     -12.079 -18.165   8.282  1.00  0.00     0.195 C 
HETATM   18  C8  UNL     1     -11.911 -16.779   8.853  1.00  0.00     0.259 C 
HETATM   19  N1  UNL     1     -11.941 -15.832   7.739  1.00  0.00    -0.067 N 
ATOM     20  H12 UNL     1     -11.143 -15.940   7.114  1.00  0.00     0.277 HD
ATOM     21  H11 UNL     1     -11.757 -14.874   8.036  1.00  0.00     0.277 HD
ENDBRANCH  13  14
ENDBRANCH  12  13
ENDBRANCH  11  12
ENDBRANCH   9  11
ENDBRANCH   1   9
BRANCH   8  22
HETATM   22  C13 UNL     1      -7.594 -13.210   6.108  1.00  0.00     0.073 C 
HETATM   23  C14 UNL     1      -8.520 -12.184   6.641  1.00  0.00     0.039 C 
HETATM   24  C15 UNL     1      -7.259 -12.956   4.635  1.00  0.00     0.039 C 
HETATM   25 CL1  UNL     1      -6.027 -12.873   6.942  1.00  0.00    -0.113 Cl
ENDBRANCH   8  22
BRANCH   5  26
HETATM   26  N3  UNL     1      -6.545 -17.227   8.315  1.00  0.00    -0.234 N 
ATOM     27  H32 UNL     1      -6.692 -18.217   8.512  1.00  0.00     0.174 HD
ATOM     28  H31 UNL     1      -5.781 -16.746   8.789  1.00  0.00     0.174 HD
ENDBRANCH   5  26
TORSDOF 7
ENDMDL
MODEL 2
REMARK VINA RESULT: -6.308746959      3.493      5.795
REMARK  7 active torsions:
REMARK  status: ('A' for Active; 'I' for Inactive)
REMARK    1  A    between atoms: C2_2  and  O1_3 
REMARK    2  A    between atoms: C2_2  and  C9_14 
REMARK    3  A    between atoms: O1_3  and  C3_4 
REMARK    4  A    between atoms: C3_4  and  C4_5 
REMARK    5  A    between atoms: C4_5  and  C5_6 
REMARK    6  A    between atoms: C11_18  and  N3_19 
REMARK    7  A    between atoms: C12_24  and  C13_25 
ROOT
HETATM    1  C9  UNL     1      -9.434 -16.524   7.372  1.00  0.00     0.011 A 
HETATM    2  C10 UNL     1      -9.693 -17.275   8.540  1.00  0.00     0.117 A 
HETATM    3  N2  UNL     1     -10.859 -17.261   9.179  1.00  0.00    -0.202 N 
ATOM      4  H2  UNL     1     -10.987 -17.825  10.019  1.00  0.00     0.183 HD
HETATM    5  C11 UNL     1     -11.859 -16.512   8.722  1.00  0.00     0.675 A 
HETATM    6  N4  UNL     1     -11.658 -15.792   7.627  1.00  0.00    -0.193 N 
ATOM      7  H4  UNL     1     -12.430 -15.221   7.283  1.00  0.00     0.184 HD
HETATM    8  C12 UNL     1     -10.468 -15.766   6.923  1.00  0.00     0.059 A 
ENDROOT
BRANCH   1   9
HETATM    9  C2  UNL     1      -8.142 -16.676   6.781  1.00  0.00     0.153 C 
HETATM   10  C1  UNL     1      -7.146 -15.688   7.581  1.00  0.00     0.045 C 
BRANCH   9  11
HETATM   11  O1  UNL     1      -7.605 -17.944   7.154  1.00  0.00    -0.381 OA
BRANCH  11  12
HETATM   12  C3  UNL     1      -6.424 -17.869   7.868  1.00  0.00     0.170 C 
BRANCH  12  13
HETATM   13  C4  UNL     1      -5.844 -19.257   7.964  1.00  0.00     0.061 C 
BRANCH  13  14
HETATM   14  C5  UNL     1      -6.010 -19.768   9.375  1.00  0.00     0.211 C 
HETATM   15  C6  UNL     1      -4.832 -19.336  10.233  1.00  0.00     0.200 C 
HETATM   16  O2  UNL     1      -5.295 -18.673  11.335  1.00  0.00    -0.387 OA
HETATM   17  C7  UNL     1      -6.121 -19.463  12.105  1.00  0.00     0.195 C 
HETATM   18  C8  UNL     1      -7.320 -19.926  11.315  1.00  0.00     0.259 C 
HETATM   19  N1  UNL     1      -7.229 -19.336   9.981  1.00  0.00    -0.067 N 
ATOM     20  H12 UNL     1      -7.319 -18.320   9.995  1.00  0.00     0.277 HD
ATOM     21  H11 UNL     1      -8.046 -19.541   9.406  1.00  0.00     0.277 HD
ENDBRANCH  13  14
ENDBRANCH  12  13
ENDBRANCH  11  12
ENDBRANCH   9  11
ENDBRANCH   1   9
BRANCH   8  22
HETATM   22  C13 UNL     1     -10.341 -14.909   5.746  1.00  0.00     0.073 C 
HETATM   23  C14 UNL     1      -9.904 -15.531   4.474  1.00  0.00     0.039 C 
HETATM   24  C15 UNL     1      -9.537 -13.644   6.060  1.00  0.00     0.039 C 
HETATM   25 CL1  UNL     1     -11.988 -14.262   5.384  1.00  0.00    -0.113 Cl
ENDBRANCH   8  22
BRANCH   5  26
HETATM   26  N3  UNL     1     -13.007 -16.456   9.296  1.00  0.00    -0.234 N 
ATOM     27  H32 UNL     1     -13.272 -17.206   9.935  1.00  0.00     0.174 HD
ATOM     28  H31 UNL     1     -13.667 -15.694   9.142  1.00  0.00     0.174 HD
ENDBRANCH   5  26
TORSDOF 7
ENDMDL
MODEL 3
REMARK VINA RESULT: -6.239252806      3.548      5.989
REMARK  7 active torsions:
REMARK  status: ('A' for Active; 'I' for Inactive)
REMARK    1  A    between atoms: C2_2  and  O1_3 
REMARK    2  A    between atoms: C2_2  and  C9_14 
REMARK    3  A    between atoms: O1_3  and  C3_4 
REMARK    4  A    between atoms: C3_4  and  C4_5 
REMARK    5  A    between atoms: C4_5  and  C5_6 
REMARK    6  A    between atoms: C11_18  and  N3_19 
REMARK    7  A    between atoms: C12_24  and  C13_25 
ROOT
HETATM    1  C9  UNL     1      -9.473 -16.534   7.367  1.00  0.00     0.011 A 
HETATM    2  C10 UNL     1      -9.746 -17.280   8.534  1.00  0.00     0.117 A 
HETATM    3  N2  UNL     1     -10.917 -17.259   9.164  1.00  0.00    -0.202 N 
ATOM      4  H2  UNL     1     -11.054 -17.820  10.004  1.00  0.00     0.183 HD
HETATM    5  C11 UNL     1     -11.909 -16.506   8.698  1.00  0.00     0.675 A 
HETATM    6  N4  UNL     1     -11.696 -15.789   7.603  1.00  0.00    -0.193 N 
ATOM      7  H4  UNL     1     -12.462 -15.215   7.251  1.00  0.00     0.184 HD
HETATM    8  C12 UNL     1     -10.500 -15.771   6.907  1.00  0.00     0.059 A 
ENDROOT
BRANCH   1   9
HETATM    9  C2  UNL     1      -8.178 -16.693   6.786  1.00  0.00     0.153 C 
HETATM   10  C1  UNL     1      -7.202 -15.645   7.533  1.00  0.00     0.045 C 
BRANCH   9  11
HETATM   11  O1  UNL     1      -7.619 -17.930   7.227  1.00  0.00    -0.381 OA
BRANCH  11  12
HETATM   12  C3  UNL     1      -6.456 -17.793   7.962  1.00  0.00     0.170 C 
BRANCH  12  13
HETATM   13  C4  UNL     1      -6.534 -18.726   9.143  1.00  0.00     0.061 C 
BRANCH  13  14
HETATM   14  C5  UNL     1      -5.618 -19.903   8.908  1.00  0.00     0.211 C 
HETATM   15  C6  UNL     1      -6.106 -21.114   9.687  1.00  0.00     0.200 C 
HETATM   16  O2  UNL     1      -6.267 -22.167   8.830  1.00  0.00    -0.387 OA
HETATM   17  C7  UNL     1      -5.090 -22.507   8.201  1.00  0.00     0.195 C 
HETATM   18  C8  UNL     1      -4.548 -21.348   7.401  1.00  0.00     0.259 C 
HETATM   19  N1  UNL     1      -5.493 -20.240   7.526  1.00  0.00    -0.067 N 
ATOM     20  H12 UNL     1      -6.392 -20.443   7.090  1.00  0.00     0.277 HD
ATOM     21  H11 UNL     1      -5.235 -19.440   6.950  1.00  0.00     0.277 HD
ENDBRANCH  13  14
ENDBRANCH  12  13
ENDBRANCH  11  12
ENDBRANCH   9  11
ENDBRANCH   1   9
BRANCH   8  22
HETATM   22  C13 UNL     1     -10.360 -14.918   5.729  1.00  0.00     0.073 C 
HETATM   23  C14 UNL     1      -9.894 -15.541   4.468  1.00  0.00     0.039 C 
HETATM   24  C15 UNL     1      -9.572 -13.645   6.053  1.00  0.00     0.039 C 
HETATM   25 CL1  UNL     1     -12.005 -14.286   5.335  1.00  0.00    -0.113 Cl
ENDBRANCH   8  22
BRANCH   5  26
HETATM   26  N3  UNL     1     -13.061 -16.443   9.263  1.00  0.00    -0.234 N 
ATOM     27  H32 UNL     1     -13.250 -15.674   9.905  1.00  0.00     0.174 HD
ATOM     28  H31 UNL     1     -13.797 -17.129   9.098  1.00  0.00     0.174 HD
ENDBRANCH   5  26
TORSDOF 7
ENDMDL
MODEL 4
REMARK VINA RESULT: -6.175138489      2.484      5.152
REMARK  7 active torsions:
REMARK  status: ('A' for Active; 'I' for Inactive)
REMARK    1  A    between atoms: C2_2  and  O1_3 
REMARK    2  A    between atoms: C2_2  and  C9_14 
REMARK    3  A    between atoms: O1_3  and  C3_4 
REMARK    4  A    between atoms: C3_4  and  C4_5 
REMARK    5  A    between atoms: C4_5  and  C5_6 
REMARK    6  A    between atoms: C11_18  and  N3_19 
REMARK    7  A    between atoms: C12_24  and  C13_25 
ROOT
HETATM    1  C9  UNL     1     -10.364 -16.633   8.027  1.00  0.00     0.011 A 
HETATM    2  C10 UNL     1     -11.486 -16.607   8.885  1.00  0.00     0.117 A 
HETATM    3  N2  UNL     1     -11.455 -17.022  10.148  1.00  0.00    -0.202 N 
ATOM      4  H2  UNL     1     -12.298 -16.980  10.720  1.00  0.00     0.183 HD
HETATM    5  C11 UNL     1     -10.324 -17.493  10.666  1.00  0.00     0.675 A 
HETATM    6  N4  UNL     1      -9.246 -17.534   9.895  1.00  0.00    -0.193 N 
ATOM      7  H4  UNL     1      -8.382 -17.894  10.300  1.00  0.00     0.184 HD
HETATM    8  C12 UNL     1      -9.219 -17.118   8.576  1.00  0.00     0.059 A 
ENDROOT
BRANCH   1   9
HETATM    9  C2  UNL     1     -10.549 -16.117   6.707  1.00  0.00     0.153 C 
HETATM   10  C1  UNL     1     -12.143 -16.050   6.454  1.00  0.00     0.045 C 
BRANCH   9  11
HETATM   11  O1  UNL     1     -10.227 -14.727   6.702  1.00  0.00    -0.381 OA
BRANCH  11  12
HETATM   12  C3  UNL     1     -10.068 -14.189   5.439  1.00  0.00     0.170 C 
BRANCH  12  13
HETATM   13  C4  UNL     1      -8.616 -13.825   5.263  1.00  0.00     0.061 C 
BRANCH  13  14
HETATM   14  C5  UNL     1      -8.091 -14.473   4.004  1.00  0.00     0.211 C 
HETATM   15  C6  UNL     1      -9.178 -15.311   3.351  1.00  0.00     0.200 C 
HETATM   16  O2  UNL     1      -9.337 -14.912   2.052  1.00  0.00    -0.387 OA
HETATM   17  C7  UNL     1      -8.179 -15.063   1.320  1.00  0.00     0.195 C 
HETATM   18  C8  UNL     1      -7.054 -14.251   1.911  1.00  0.00     0.259 C 
HETATM   19  N1  UNL     1      -7.586 -13.525   3.063  1.00  0.00    -0.067 N 
ATOM     20  H12 UNL     1      -8.281 -12.828   2.798  1.00  0.00     0.277 HD
ATOM     21  H11 UNL     1      -6.902 -12.891   3.475  1.00  0.00     0.277 HD
ENDBRANCH  13  14
ENDBRANCH  12  13
ENDBRANCH  11  12
ENDBRANCH   9  11
ENDBRANCH   1   9
BRANCH   8  22
HETATM   22  C13 UNL     1      -7.985 -17.237   7.803  1.00  0.00     0.073 C 
HETATM   23  C14 UNL     1      -8.094 -17.482   6.346  1.00  0.00     0.039 C 
HETATM   24  C15 UNL     1      -7.003 -18.209   8.465  1.00  0.00     0.039 C 
HETATM   25 CL1  UNL     1      -7.129 -15.651   7.927  1.00  0.00    -0.113 Cl
ENDBRANCH   8  22
BRANCH   5  26
HETATM   26  N3  UNL     1     -10.232 -17.909  11.878  1.00  0.00    -0.234 N 
ATOM     27  H32 UNL     1      -9.314 -18.166  12.239  1.00  0.00     0.174 HD
ATOM     28  H31 UNL     1     -11.038 -17.995  12.497  1.00  0.00     0.174 HD
ENDBRANCH   5  26
TORSDOF 7
ENDMDL
MODEL 5
REMARK VINA RESULT: -6.096095049      2.573      5.238
REMARK  7 active torsions:
REMARK  status: ('A' for Active; 'I' for Inactive)
REMARK    1  A    between atoms: C2_2  and  O1_3 
REMARK    2  A    between atoms: C2_2  and  C9_14 
REMARK    3  A    between atoms: O1_3  and  C3_4 
REMARK    4  A    between atoms: C3_4  and  C4_5 
REMARK    5  A    between atoms: C4_5  and  C5_6 
REMARK    6  A    between atoms: C11_18  and  N3_19 
REMARK    7  A    between atoms: C12_24  and  C13_25 
ROOT
HETATM    1  C9  UNL     1     -10.242 -16.695   8.059  1.00  0.00     0.011 A 
HETATM    2  C10 UNL     1     -11.319 -16.728   8.973  1.00  0.00     0.117 A 
HETATM    3  N2  UNL     1     -11.217 -17.196  10.212  1.00  0.00    -0.202 N 
ATOM      4  H2  UNL     1     -12.031 -17.195  10.827  1.00  0.00     0.183 HD
HETATM    5  C11 UNL     1     -10.054 -17.668  10.652  1.00  0.00     0.675 A 
HETATM    6  N4  UNL     1      -9.016 -17.655   9.827  1.00  0.00    -0.193 N 
ATOM      7  H4  UNL     1      -8.127 -18.016  10.172  1.00  0.00     0.184 HD
HETATM    8  C12 UNL     1      -9.063 -17.181   8.528  1.00  0.00     0.059 A 
ENDROOT
BRANCH   1   9
HETATM    9  C2  UNL     1     -10.502 -16.125   6.775  1.00  0.00     0.153 C 
HETATM   10  C1  UNL     1     -12.106 -16.125   6.583  1.00  0.00     0.045 C 
BRANCH   9  11
HETATM   11  O1  UNL     1     -10.246 -14.722   6.827  1.00  0.00    -0.381 OA
BRANCH  11  12
HETATM   12  C3  UNL     1     -10.227 -14.105   5.591  1.00  0.00     0.170 C 
BRANCH  12  13
HETATM   13  C4  UNL     1      -8.799 -14.055   5.113  1.00  0.00     0.061 C 
BRANCH  13  14
HETATM   14  C5  UNL     1      -8.774 -14.178   3.608  1.00  0.00     0.211 C 
HETATM   15  C6  UNL     1      -7.614 -13.379   3.035  1.00  0.00     0.200 C 
HETATM   16  O2  UNL     1      -6.845 -14.197   2.255  1.00  0.00    -0.387 OA
HETATM   17  C7  UNL     1      -7.558 -14.733   1.205  1.00  0.00     0.195 C 
HETATM   18  C8  UNL     1      -8.727 -15.547   1.703  1.00  0.00     0.259 C 
HETATM   19  N1  UNL     1      -8.689 -15.532   3.165  1.00  0.00    -0.067 N 
ATOM     20  H12 UNL     1      -7.873 -16.016   3.539  1.00  0.00     0.277 HD
ATOM     21  H11 UNL     1      -9.406 -16.126   3.580  1.00  0.00     0.277 HD
ENDBRANCH  13  14
ENDBRANCH  12  13
ENDBRANCH  11  12
ENDBRANCH   9  11
ENDBRANCH   1   9
BRANCH   8  22
HETATM   22  C13 UNL     1      -7.867 -17.243   7.690  1.00  0.00     0.073 C 
HETATM   23  C14 UNL     1      -8.046 -17.444   6.233  1.00  0.00     0.039 C 
HETATM   24  C15 UNL     1      -6.830 -18.211   8.268  1.00  0.00     0.039 C 
HETATM   25 CL1  UNL     1      -7.045 -15.641   7.824  1.00  0.00    -0.113 Cl
ENDBRANCH   8  22
BRANCH   5  26
HETATM   26  N3  UNL     1      -9.894 -18.135  11.838  1.00  0.00    -0.234 N 
ATOM     27  H32 UNL     1     -10.479 -18.913  12.141  1.00  0.00     0.174 HD
ATOM     28  H31 UNL     1      -9.207 -17.760  12.493  1.00  0.00     0.174 HD
ENDBRANCH   5  26
TORSDOF 7
ENDMDL
