MODEL 1
REMARK VINA RESULT: -7.089898553      0.000      0.000
REMARK  7 active torsions:
REMARK  status: ('A' for Active; 'I' for Inactive)
REMARK    1  A    between atoms: N1_2  and  C2_3 
REMARK    2  A    between atoms: N1_2  and  C6_7 
REMARK    3  A    between atoms: C2_3  and  C3_4 
REMARK    4  A    between atoms: C7_10  and  N3_11 
REMARK    5  A    between atoms: C10_14  and  C11_15 
REMARK    6  A    between atoms: C11_15  and  O1_16 
REMARK    7  A    between atoms: C15_22  and  N4_23 
ROOT
HETATM    1  C6  UNL     1      -8.976 -16.811   7.926  1.00  0.00     0.683 A 
HETATM    2  N2  UNL     1      -8.512 -16.183   6.809  1.00  0.00    -0.175 N 
ATOM      3  H2  UNL     1      -7.518 -16.251   6.589  1.00  0.00     0.186 HD
HETATM    4  C7  UNL     1      -9.307 -15.473   5.977  1.00  0.00     0.144 A 
HETATM    5  C14 UNL     1     -10.635 -15.412   6.318  1.00  0.00     0.122 A 
HETATM    6 CL1  UNL     1     -11.759 -14.541   5.332  1.00  0.00    -0.076 Cl
HETATM    7  C15 UNL     1     -11.116 -16.053   7.461  1.00  0.00     0.140 A 
HETATM    8  N5  UNL     1     -10.292 -16.748   8.261  1.00  0.00    -0.175 N 
ATOM      9  H5  UNL     1     -10.643 -17.217   9.096  1.00  0.00     0.186 HD
ENDROOT
BRANCH   4  10
HETATM   10  N3  UNL     1      -8.829 -14.816   4.826  1.00  0.00    -0.365 N 
HETATM   11  C8  UNL     1      -7.835 -13.769   4.816  1.00  0.00     0.125 C 
HETATM   12  C9  UNL     1      -7.931 -12.914   3.573  1.00  0.00     0.026 C 
HETATM   13  C10 UNL     1      -7.901 -13.705   2.305  1.00  0.00     0.012 C 
HETATM   14  C12 UNL     1      -8.203 -15.151   2.567  1.00  0.00     0.026 C 
HETATM   15  C13 UNL     1      -9.366 -15.200   3.536  1.00  0.00     0.125 C 
BRANCH  13  16
HETATM   16  C11 UNL     1      -6.614 -13.516   1.532  1.00  0.00     0.168 C 
BRANCH  16  17
HETATM   17  O1  UNL     1      -6.014 -12.328   1.927  1.00  0.00    -0.400 OA
ATOM     18  H1  UNL     1      -5.530 -11.964   1.195  1.00  0.00     0.209 HD
ENDBRANCH  16  17
ENDBRANCH  13  16
ENDBRANCH   4  10
BRANCH   1  19
HETATM   19  N1  UNL     1      -8.110 -17.537   8.775  1.00  0.00    -0.222 N 
HETATM   20  C1  UNL     1      -8.618 -18.144   9.972  1.00  0.00     0.168 C 
BRANCH  19  21
HETATM   21  C2  UNL     1      -6.720 -17.665   8.440  1.00  0.00     0.145 C 
BRANCH  21  22
HETATM   22  C3  UNL     1      -6.242 -19.099   8.667  1.00  0.00     0.004 A 
HETATM   23  C4  UNL     1      -5.491 -19.783   7.590  1.00  0.00     0.007 A 
HETATM   24  C5  UNL     1      -4.727 -19.287   8.789  1.00  0.00     0.007 A 
ENDBRANCH  21  22
ENDBRANCH  19  21
ENDBRANCH   1  19
BRANCH   7  25
HETATM   25  N4  UNL     1     -12.383 -15.964   7.740  1.00  0.00    -0.384 N 
ATOM     26  H42 UNL     1     -12.831 -15.051   7.822  1.00  0.00     0.157 HD
ATOM     27  H41 UNL     1     -12.917 -16.822   7.873  1.00  0.00     0.157 HD
ENDBRANCH   7  25
TORSDOF 7
ENDMDL
MODEL 2
REMARK VINA RESULT: -6.804902792      1.004      1.494
REMARK  7 active torsions:
REMARK  status: ('A' for Active; 'I' for Inactive)
REMARK    1  A    between atoms: N1_2  and  C2_3 
REMARK    2  A    between atoms: N1_2  and  C6_7 
REMARK    3  A    between atoms: C2_3  and  C3_4 
REMARK    4  A    between atoms: C7_10  and  N3_11 
REMARK    5  A    between atoms: C10_14  and  C11_15 
REMARK    6  A    between atoms: C11_15  and  O1_16 
REMARK    7  A    between atoms: C15_22  and  N4_23 
ROOT
HETATM    1  C6  UNL     1      -8.600 -17.115   7.771  1.00  0.00     0.683 A 
HETATM    2  N2  UNL     1      -8.231 -16.425   6.654  1.00  0.00    -0.175 N 
ATOM      3  H2  UNL     1      -7.272 -16.519   6.319  1.00  0.00     0.186 HD
HETATM    4  C7  UNL     1      -9.077 -15.623   5.970  1.00  0.00     0.144 A 
HETATM    5  C14 UNL     1     -10.354 -15.532   6.463  1.00  0.00     0.122 A 
HETATM    6 CL1  UNL     1     -11.536 -14.544   5.674  1.00  0.00    -0.076 Cl
HETATM    7  C15 UNL     1     -10.738 -16.236   7.606  1.00  0.00     0.140 A 
HETATM    8  N5  UNL     1      -9.866 -17.023   8.257  1.00  0.00    -0.175 N 
ATOM      9  H5  UNL     1     -10.145 -17.538   9.092  1.00  0.00     0.186 HD
ENDROOT
BRANCH   4  10
HETATM   10  N3  UNL     1      -8.697 -14.903   4.820  1.00  0.00    -0.365 N 
HETATM   11  C8  UNL     1      -7.719 -13.842   4.786  1.00  0.00     0.125 C 
HETATM   12  C9  UNL     1      -7.921 -12.928   3.599  1.00  0.00     0.026 C 
HETATM   13  C10 UNL     1      -7.979 -13.655   2.295  1.00  0.00     0.012 C 
HETATM   14  C12 UNL     1      -8.243 -15.116   2.506  1.00  0.00     0.026 C 
HETATM   15  C13 UNL     1      -9.327 -15.231   3.557  1.00  0.00     0.125 C 
BRANCH  13  16
HETATM   16  C11 UNL     1      -6.758 -13.408   1.436  1.00  0.00     0.168 C 
BRANCH  16  17
HETATM   17  O1  UNL     1      -6.082 -12.293   1.913  1.00  0.00    -0.400 OA
ATOM     18  H1  UNL     1      -5.470 -11.992   1.251  1.00  0.00     0.209 HD
ENDBRANCH  16  17
ENDBRANCH  13  16
ENDBRANCH   4  10
BRANCH   1  19
HETATM   19  N1  UNL     1      -7.682 -17.937   8.464  1.00  0.00    -0.222 N 
HETATM   20  C1  UNL     1      -6.475 -18.370   7.819  1.00  0.00     0.168 C 
BRANCH  19  21
HETATM   21  C2  UNL     1      -7.959 -18.341   9.813  1.00  0.00     0.145 C 
BRANCH  21  22
HETATM   22  C3  UNL     1      -7.118 -19.561  10.193  1.00  0.00     0.004 A 
HETATM   23  C4  UNL     1      -6.188 -19.462  11.339  1.00  0.00     0.007 A 
HETATM   24  C5  UNL     1      -7.472 -20.227  11.526  1.00  0.00     0.007 A 
ENDBRANCH  21  22
ENDBRANCH  19  21
ENDBRANCH   1  19
BRANCH   7  25
HETATM   25  N4  UNL     1     -11.960 -16.115   8.032  1.00  0.00    -0.384 N 
ATOM     26  H42 UNL     1     -12.742 -16.157   7.378  1.00  0.00     0.157 HD
ATOM     27  H41 UNL     1     -12.119 -15.979   9.030  1.00  0.00     0.157 HD
ENDBRANCH   7  25
TORSDOF 7
ENDMDL
MODEL 3
REMARK VINA RESULT: -6.696430931      1.816      3.123
REMARK  7 active torsions:
REMARK  status: ('A' for Active; 'I' for Inactive)
REMARK    1  A    between atoms: N1_2  and  C2_3 
REMARK    2  A    between atoms: N1_2  and  C6_7 
REMARK    3  A    between atoms: C2_3  and  C3_4 
REMARK    4  A    between atoms: C7_10  and  N3_11 
REMARK    5  A    between atoms: C10_14  and  C11_15 
REMARK    6  A    between atoms: C11_15  and  O1_16 
REMARK    7  A    between atoms: C15_22  and  N4_23 
ROOT
HETATM    1  C6  UNL     1     -10.153 -17.218   9.271  1.00  0.00     0.683 A 
HETATM    2  N2  UNL     1      -9.543 -16.719   8.158  1.00  0.00    -0.175 N 
ATOM      3  H2  UNL     1      -8.531 -16.814   8.074  1.00  0.00     0.186 HD
HETATM    4  C7  UNL     1     -10.217 -16.105   7.161  1.00  0.00     0.144 A 
HETATM    5  C14 UNL     1     -11.576 -16.002   7.325  1.00  0.00     0.122 A 
HETATM    6 CL1  UNL     1     -12.555 -15.243   6.116  1.00  0.00    -0.076 Cl
HETATM    7  C15 UNL     1     -12.206 -16.511   8.462  1.00  0.00     0.140 A 
HETATM    8  N5  UNL     1     -11.499 -17.115   9.430  1.00  0.00    -0.175 N 
ATOM      9  H5  UNL     1     -11.958 -17.488  10.261  1.00  0.00     0.186 HD
ENDROOT
BRANCH   4  10
HETATM   10  N3  UNL     1      -9.590 -15.581   6.013  1.00  0.00    -0.365 N 
HETATM   11  C8  UNL     1     -10.260 -15.222   4.787  1.00  0.00     0.125 C 
HETATM   12  C9  UNL     1      -9.315 -15.222   3.608  1.00  0.00     0.026 C 
HETATM   13  C10 UNL     1      -8.096 -14.385   3.825  1.00  0.00     0.012 C 
HETATM   14  C12 UNL     1      -7.898 -14.093   5.283  1.00  0.00     0.026 C 
HETATM   15  C13 UNL     1      -8.154 -15.380   6.039  1.00  0.00     0.125 C 
BRANCH  13  16
HETATM   16  C11 UNL     1      -8.093 -13.130   2.980  1.00  0.00     0.168 C 
BRANCH  16  17
HETATM   17  O1  UNL     1      -6.789 -12.676   2.841  1.00  0.00    -0.400 OA
ATOM     18  H1  UNL     1      -6.334 -13.220   2.208  1.00  0.00     0.209 HD
ENDBRANCH  16  17
ENDBRANCH  13  16
ENDBRANCH   4  10
BRANCH   1  19
HETATM   19  N1  UNL     1      -9.410 -17.847  10.296  1.00  0.00    -0.222 N 
HETATM   20  C1  UNL     1      -8.139 -18.443  10.001  1.00  0.00     0.168 C 
BRANCH  19  21
HETATM   21  C2  UNL     1      -9.930 -17.892  11.633  1.00  0.00     0.145 C 
BRANCH  21  22
HETATM   22  C3  UNL     1      -9.427 -19.136  12.365  1.00  0.00     0.004 A 
HETATM   23  C4  UNL     1      -8.792 -18.980  13.693  1.00  0.00     0.007 A 
HETATM   24  C5  UNL     1     -10.196 -19.523  13.632  1.00  0.00     0.007 A 
ENDBRANCH  21  22
ENDBRANCH  19  21
ENDBRANCH   1  19
BRANCH   7  25
HETATM   25  N4  UNL     1     -13.496 -16.388   8.568  1.00  0.00    -0.384 N 
ATOM     26  H42 UNL     1     -14.059 -17.155   8.938  1.00  0.00     0.157 HD
ATOM     27  H41 UNL     1     -13.930 -15.513   8.276  1.00  0.00     0.157 HD
ENDBRANCH   7  25
TORSDOF 7
ENDMDL
MODEL 4
REMARK VINA RESULT: -6.596329894      1.116      1.529
REMARK  7 active torsions:
REMARK  status: ('A' for Active; 'I' for Inactive)
REMARK    1  A    between atoms: N1_2  and  C2_3 
REMARK    2  A    between atoms: N1_2  and  C6_7 
REMARK    3  A    between atoms: C2_3  and  C3_4 
REMARK    4  A    between atoms: C7_10  and  N3_11 
REMARK    5  A    between atoms: C10_14  and  C11_15 
REMARK    6  A    between atoms: C11_15  and  O1_16 
REMARK    7  A    between atoms: C15_22  and  N4_23 
ROOT
HETATM    1  C6  UNL     1      -9.557 -17.040   8.470  1.00  0.00     0.683 A 
HETATM    2  N2  UNL     1      -8.963 -16.484   7.376  1.00  0.00    -0.175 N 
ATOM      3  H2  UNL     1      -7.957 -16.606   7.253  1.00  0.00     0.186 HD
HETATM    4  C7  UNL     1      -9.643 -15.779   6.445  1.00  0.00     0.144 A 
HETATM    5  C14 UNL     1     -10.992 -15.644   6.658  1.00  0.00     0.122 A 
HETATM    6 CL1  UNL     1     -11.979 -14.771   5.536  1.00  0.00    -0.076 Cl
HETATM    7  C15 UNL     1     -11.607 -16.211   7.776  1.00  0.00     0.140 A 
HETATM    8  N5  UNL     1     -10.893 -16.905   8.677  1.00  0.00    -0.175 N 
ATOM      9  H5  UNL     1     -11.341 -17.320   9.494  1.00  0.00     0.186 HD
ENDROOT
BRANCH   4  10
HETATM   10  N3  UNL     1      -9.031 -15.196   5.318  1.00  0.00    -0.365 N 
HETATM   11  C8  UNL     1      -9.445 -15.393   3.949  1.00  0.00     0.125 C 
HETATM   12  C9  UNL     1      -8.323 -15.114   2.977  1.00  0.00     0.026 C 
HETATM   13  C10 UNL     1      -7.693 -13.772   3.166  1.00  0.00     0.012 C 
HETATM   14  C12 UNL     1      -8.031 -13.206   4.514  1.00  0.00     0.026 C 
HETATM   15  C13 UNL     1      -7.888 -14.328   5.522  1.00  0.00     0.125 C 
BRANCH  13  16
HETATM   16  C11 UNL     1      -8.017 -12.812   2.041  1.00  0.00     0.168 C 
BRANCH  16  17
HETATM   17  O1  UNL     1      -7.601 -13.363   0.837  1.00  0.00    -0.400 OA
ATOM     18  H1  UNL     1      -7.272 -14.242   0.992  1.00  0.00     0.209 HD
ENDBRANCH  16  17
ENDBRANCH  13  16
ENDBRANCH   4  10
BRANCH   1  19
HETATM   19  N1  UNL     1      -8.807 -17.764   9.425  1.00  0.00    -0.222 N 
HETATM   20  C1  UNL     1      -9.385 -18.086  10.699  1.00  0.00     0.168 C 
BRANCH  19  21
HETATM   21  C2  UNL     1      -7.466 -18.176   9.121  1.00  0.00     0.145 C 
BRANCH  21  22
HETATM   22  C3  UNL     1      -7.022 -19.297  10.062  1.00  0.00     0.004 A 
HETATM   23  C4  UNL     1      -6.300 -20.460   9.500  1.00  0.00     0.007 A 
HETATM   24  C5  UNL     1      -5.510 -19.434  10.270  1.00  0.00     0.007 A 
ENDBRANCH  21  22
ENDBRANCH  19  21
ENDBRANCH   1  19
BRANCH   7  25
HETATM   25  N4  UNL     1     -12.888 -16.055   7.931  1.00  0.00    -0.384 N 
ATOM     26  H42 UNL     1     -13.540 -16.756   7.580  1.00  0.00     0.157 HD
ATOM     27  H41 UNL     1     -13.225 -15.219   8.408  1.00  0.00     0.157 HD
ENDBRANCH   7  25
TORSDOF 7
ENDMDL
MODEL 5
REMARK VINA RESULT: -6.573895163      1.181      1.643
REMARK  7 active torsions:
REMARK  status: ('A' for Active; 'I' for Inactive)
REMARK    1  A    between atoms: N1_2  and  C2_3 
REMARK    2  A    between atoms: N1_2  and  C6_7 
REMARK    3  A    between atoms: C2_3  and  C3_4 
REMARK    4  A    between atoms: C7_10  and  N3_11 
REMARK    5  A    between atoms: C10_14  and  C11_15 
REMARK    6  A    between atoms: C11_15  and  O1_16 
REMARK    7  A    between atoms: C15_22  and  N4_23 
ROOT
HETATM    1  C6  UNL     1      -7.398 -17.291   8.181  1.00  0.00     0.683 A 
HETATM    2  N2  UNL     1      -7.285 -16.470   7.098  1.00  0.00    -0.175 N 
ATOM      3  H2  UNL     1      -6.364 -16.341   6.679  1.00  0.00     0.186 HD
HETATM    4  C7  UNL     1      -8.337 -15.818   6.554  1.00  0.00     0.144 A 
HETATM    5  C14 UNL     1      -9.552 -16.025   7.158  1.00  0.00     0.122 A 
HETATM    6 CL1  UNL     1     -10.979 -15.254   6.553  1.00  0.00    -0.076 Cl
HETATM    7  C15 UNL     1      -9.674 -16.864   8.266  1.00  0.00     0.140 A 
HETATM    8  N5  UNL     1      -8.603 -17.494   8.775  1.00  0.00    -0.175 N 
ATOM      9  H5  UNL     1      -8.691 -18.108   9.585  1.00  0.00     0.186 HD
ENDROOT
BRANCH   4  10
HETATM   10  N3  UNL     1      -8.223 -14.962   5.441  1.00  0.00    -0.365 N 
HETATM   11  C8  UNL     1      -7.467 -13.733   5.408  1.00  0.00     0.125 C 
HETATM   12  C9  UNL     1      -7.962 -12.798   4.328  1.00  0.00     0.026 C 
HETATM   13  C10 UNL     1      -8.025 -13.433   2.977  1.00  0.00     0.012 C 
HETATM   14  C12 UNL     1      -7.990 -14.929   3.085  1.00  0.00     0.026 C 
HETATM   15  C13 UNL     1      -8.915 -15.320   4.219  1.00  0.00     0.125 C 
BRANCH  13  16
HETATM   16  C11 UNL     1      -6.970 -12.899   2.032  1.00  0.00     0.168 C 
BRANCH  16  17
HETATM   17  O1  UNL     1      -5.717 -13.300   2.474  1.00  0.00    -0.400 OA
ATOM     18  H1  UNL     1      -5.053 -12.950   1.890  1.00  0.00     0.209 HD
ENDBRANCH  16  17
ENDBRANCH  13  16
ENDBRANCH   4  10
BRANCH   1  19
HETATM   19  N1  UNL     1      -6.271 -17.948   8.725  1.00  0.00    -0.222 N 
HETATM   20  C1  UNL     1      -5.146 -17.186   9.188  1.00  0.00     0.168 C 
BRANCH  19  21
HETATM   21  C2  UNL     1      -6.250 -19.381   8.813  1.00  0.00     0.145 C 
BRANCH  21  22
HETATM   22  C3  UNL     1      -5.506 -19.983   7.621  1.00  0.00     0.004 A 
HETATM   23  C4  UNL     1      -4.115 -20.453   7.807  1.00  0.00     0.007 A 
HETATM   24  C5  UNL     1      -5.209 -21.483   7.707  1.00  0.00     0.007 A 
ENDBRANCH  21  22
ENDBRANCH  19  21
ENDBRANCH   1  19
BRANCH   7  25
HETATM   25  N4  UNL     1     -10.848 -17.026   8.800  1.00  0.00    -0.384 N 
ATOM     26  H42 UNL     1     -10.938 -17.392   9.748  1.00  0.00     0.157 HD
ATOM     27  H41 UNL     1     -11.673 -16.781   8.253  1.00  0.00     0.157 HD
ENDBRANCH   7  25
TORSDOF 7
ENDMDL
