MODEL 1
REMARK VINA RESULT: -7.935230471      0.000      0.000
REMARK  7 active torsions:
REMARK  status: ('A' for Active; 'I' for Inactive)
REMARK    1  A    between atoms: C2_2  and  C4_4 
REMARK    2  A    between atoms: C4_4  and  C5_5 
REMARK    3  A    between atoms: C7_7  and  O1_8 
REMARK    4  A    between atoms: C9_11  and  O2_12 
REMARK    5  A    between atoms: C12_16  and  C13_17 
REMARK    6  A    between atoms: C13_17  and  O4_19 
REMARK    7  A    between atoms: C16_22  and  C17_23 
ROOT
HETATM    1  C5  UNL     1      27.268  29.051  26.180  1.00  0.00     0.001 C 
HETATM    2  C6  UNL     1      27.622  29.332  27.673  1.00  0.00     0.019 C 
HETATM    3  C7  UNL     1      28.562  29.111  25.472  1.00  0.00     0.130 C 
HETATM    4  C8  UNL     1      29.109  27.941  24.757  1.00  0.00     0.065 C 
HETATM    5  C9  UNL     1      28.288  26.744  24.524  1.00  0.00     0.130 C 
HETATM    6  C10 UNL     1      26.846  26.985  24.768  1.00  0.00     0.010 C 
HETATM    7  C11 UNL     1      26.337  27.801  23.605  1.00  0.00     0.020 C 
HETATM    8  C12 UNL     1      26.049  25.712  24.741  1.00  0.00     0.098 C 
HETATM    9  C15 UNL     1      24.570  26.037  24.597  1.00  0.00     0.035 C 
HETATM   10  C16 UNL     1      24.182  26.895  25.759  1.00  0.00     0.126 C 
HETATM   11  C19 UNL     1      25.273  27.530  26.513  1.00  0.00     0.148 C 
HETATM   12  O6  UNL     1      24.898  27.978  27.598  1.00  0.00    -0.296 OA
HETATM   13  C20 UNL     1      26.666  27.657  26.108  1.00  0.00     0.038 C 
HETATM   14  C21 UNL     1      27.447  26.865  27.154  1.00  0.00     0.025 C 
ENDROOT
BRANCH   1  15
HETATM   15  C4  UNL     1      26.317  30.157  25.864  1.00  0.00     0.046 C 
BRANCH  15  16
HETATM   16  C2  UNL     1      26.589  31.522  26.336  1.00  0.00    -0.092 C 
HETATM   17  C1  UNL     1      25.636  32.094  27.111  1.00  0.00     0.014 C 
HETATM   18  C3  UNL     1      27.735  32.403  26.095  1.00  0.00     0.042 C 
ENDBRANCH  15  16
ENDBRANCH   1  15
BRANCH   3  19
HETATM   19  O1  UNL     1      29.615  29.598  26.313  1.00  0.00    -0.395 OA
ATOM     20  H1  UNL     1      30.330  29.972  25.811  1.00  0.00     0.210 HD
ENDBRANCH   3  19
BRANCH   5  21
HETATM   21  O2  UNL     1      28.772  25.588  25.147  1.00  0.00    -0.395 OA
ATOM     22  H2  UNL     1      29.636  25.322  24.856  1.00  0.00     0.210 HD
ENDBRANCH   5  21
BRANCH   8  23
HETATM   23  C13 UNL     1      26.426  24.753  23.704  1.00  0.00     0.263 C 
HETATM   24  O3  UNL     1      26.849  23.570  24.024  1.00  0.00    -0.265 OA
BRANCH  23  25
HETATM   25  O4  UNL     1      26.396  24.935  22.330  1.00  0.00    -0.326 OA
HETATM   26  C14 UNL     1      27.387  24.523  21.429  1.00  0.00     0.213 C 
ENDBRANCH  23  25
ENDBRANCH   8  23
BRANCH  10  27
HETATM   27  C17 UNL     1      23.223  26.177  26.662  1.00  0.00     0.134 C 
HETATM   28  C18 UNL     1      22.336  26.894  27.595  1.00  0.00     0.091 C 
HETATM   29  O5  UNL     1      23.194  24.971  26.605  1.00  0.00    -0.298 OA
ENDBRANCH  10  27
TORSDOF 7
ENDMDL
MODEL 2
REMARK VINA RESULT: -7.757526146      1.040      1.190
REMARK  7 active torsions:
REMARK  status: ('A' for Active; 'I' for Inactive)
REMARK    1  A    between atoms: C2_2  and  C4_4 
REMARK    2  A    between atoms: C4_4  and  C5_5 
REMARK    3  A    between atoms: C7_7  and  O1_8 
REMARK    4  A    between atoms: C9_11  and  O2_12 
REMARK    5  A    between atoms: C12_16  and  C13_17 
REMARK    6  A    between atoms: C13_17  and  O4_19 
REMARK    7  A    between atoms: C16_22  and  C17_23 
ROOT
HETATM    1  C5  UNL     1      27.365  29.227  26.009  1.00  0.00     0.001 C 
HETATM    2  C6  UNL     1      28.096  29.658  27.317  1.00  0.00     0.019 C 
HETATM    3  C7  UNL     1      28.448  29.003  25.032  1.00  0.00     0.130 C 
HETATM    4  C8  UNL     1      28.679  27.680  24.420  1.00  0.00     0.065 C 
HETATM    5  C9  UNL     1      27.704  26.591  24.578  1.00  0.00     0.130 C 
HETATM    6  C10 UNL     1      26.397  27.066  25.092  1.00  0.00     0.010 C 
HETATM    7  C11 UNL     1      25.712  27.779  23.951  1.00  0.00     0.020 C 
HETATM    8  C12 UNL     1      25.486  25.929  25.456  1.00  0.00     0.098 C 
HETATM    9  C15 UNL     1      24.059  26.439  25.591  1.00  0.00     0.035 C 
HETATM   10  C16 UNL     1      24.056  27.495  26.649  1.00  0.00     0.126 C 
HETATM   11  C19 UNL     1      25.358  28.066  27.026  1.00  0.00     0.148 C 
HETATM   12  O6  UNL     1      25.306  28.708  28.076  1.00  0.00    -0.296 OA
HETATM   13  C20 UNL     1      26.618  27.936  26.306  1.00  0.00     0.038 C 
HETATM   14  C21 UNL     1      27.539  27.193  27.271  1.00  0.00     0.025 C 
ENDROOT
BRANCH   1  15
HETATM   15  C4  UNL     1      26.489  30.403  25.730  1.00  0.00     0.046 C 
BRANCH  15  16
HETATM   16  C2  UNL     1      26.870  31.738  26.210  1.00  0.00    -0.092 C 
HETATM   17  C1  UNL     1      25.958  32.390  26.970  1.00  0.00     0.014 C 
HETATM   18  C3  UNL     1      28.093  32.515  25.991  1.00  0.00     0.042 C 
ENDBRANCH  15  16
ENDBRANCH   1  15
BRANCH   3  19
HETATM   19  O1  UNL     1      29.719  29.446  25.525  1.00  0.00    -0.395 OA
ATOM     20  H1  UNL     1      30.336  29.615  24.822  1.00  0.00     0.210 HD
ENDBRANCH   3  19
BRANCH   5  21
HETATM   21  O2  UNL     1      28.198  25.476  25.264  1.00  0.00    -0.395 OA
ATOM     22  H2  UNL     1      28.032  25.490  26.199  1.00  0.00     0.210 HD
ENDBRANCH   5  21
BRANCH   8  23
HETATM   23  C13 UNL     1      25.498  24.792  24.537  1.00  0.00     0.263 C 
HETATM   24  O3  UNL     1      24.548  24.636  23.669  1.00  0.00    -0.265 OA
BRANCH  23  25
HETATM   25  O4  UNL     1      26.446  23.783  24.450  1.00  0.00    -0.326 OA
HETATM   26  C14 UNL     1      26.553  22.851  23.409  1.00  0.00     0.213 C 
ENDBRANCH  23  25
ENDBRANCH   8  23
BRANCH  10  27
HETATM   27  C17 UNL     1      23.273  27.053  27.850  1.00  0.00     0.134 C 
HETATM   28  C18 UNL     1      22.377  27.965  28.583  1.00  0.00     0.091 C 
HETATM   29  O5  UNL     1      23.396  25.907  28.210  1.00  0.00    -0.298 OA
ENDBRANCH  10  27
TORSDOF 7
ENDMDL
MODEL 3
REMARK VINA RESULT: -6.331508914      1.655      5.080
REMARK  7 active torsions:
REMARK  status: ('A' for Active; 'I' for Inactive)
REMARK    1  A    between atoms: C2_2  and  C4_4 
REMARK    2  A    between atoms: C4_4  and  C5_5 
REMARK    3  A    between atoms: C7_7  and  O1_8 
REMARK    4  A    between atoms: C9_11  and  O2_12 
REMARK    5  A    between atoms: C12_16  and  C13_17 
REMARK    6  A    between atoms: C13_17  and  O4_19 
REMARK    7  A    between atoms: C16_22  and  C17_23 
ROOT
HETATM    1  C5  UNL     1      25.028  26.984  25.959  1.00  0.00     0.001 C 
HETATM    2  C6  UNL     1      23.598  27.457  25.551  1.00  0.00     0.019 C 
HETATM    3  C7  UNL     1      25.246  25.744  25.189  1.00  0.00     0.130 C 
HETATM    4  C8  UNL     1      26.332  25.629  24.197  1.00  0.00     0.065 C 
HETATM    5  C9  UNL     1      27.382  26.654  24.100  1.00  0.00     0.130 C 
HETATM    6  C10 UNL     1      27.402  27.562  25.271  1.00  0.00     0.010 C 
HETATM    7  C11 UNL     1      27.996  26.782  26.419  1.00  0.00     0.020 C 
HETATM    8  C12 UNL     1      28.323  28.730  25.064  1.00  0.00     0.098 C 
HETATM    9  C15 UNL     1      28.614  29.396  26.400  1.00  0.00     0.035 C 
HETATM   10  C16 UNL     1      27.307  29.834  26.979  1.00  0.00     0.126 C 
HETATM   11  C19 UNL     1      26.090  29.238  26.407  1.00  0.00     0.148 C 
HETATM   12  O6  UNL     1      25.068  29.845  26.734  1.00  0.00    -0.296 OA
HETATM   13  C20 UNL     1      26.005  28.070  25.540  1.00  0.00     0.038 C 
HETATM   14  C21 UNL     1      25.425  28.602  24.232  1.00  0.00     0.025 C 
ENDROOT
BRANCH   1  15
HETATM   15  C4  UNL     1      24.895  26.803  27.435  1.00  0.00     0.046 C 
BRANCH  15  16
HETATM   16  C2  UNL     1      23.563  26.754  28.056  1.00  0.00    -0.092 C 
HETATM   17  C1  UNL     1      23.190  27.843  28.770  1.00  0.00     0.014 C 
HETATM   18  C3  UNL     1      22.548  25.698  28.049  1.00  0.00     0.042 C 
ENDBRANCH  15  16
ENDBRANCH   1  15
BRANCH   3  19
HETATM   19  O1  UNL     1      24.052  25.300  24.532  1.00  0.00    -0.395 OA
ATOM     20  H1  UNL     1      23.598  24.630  25.030  1.00  0.00     0.210 HD
ENDBRANCH   3  19
BRANCH   5  21
HETATM   21  O2  UNL     1      27.411  27.328  22.874  1.00  0.00    -0.395 OA
ATOM     22  H2  UNL     1      27.728  28.222  22.929  1.00  0.00     0.210 HD
ENDBRANCH   5  21
BRANCH   8  23
HETATM   23  C13 UNL     1      29.590  28.425  24.401  1.00  0.00     0.263 C 
HETATM   24  O3  UNL     1      29.744  27.311  23.757  1.00  0.00    -0.265 OA
BRANCH  23  25
HETATM   25  O4  UNL     1      30.732  29.209  24.355  1.00  0.00    -0.326 OA
HETATM   26  C14 UNL     1      30.761  30.610  24.330  1.00  0.00     0.213 C 
ENDBRANCH  23  25
ENDBRANCH   8  23
BRANCH  10  27
HETATM   27  C17 UNL     1      27.218  31.330  27.042  1.00  0.00     0.134 C 
HETATM   28  C18 UNL     1      27.997  32.202  26.146  1.00  0.00     0.091 C 
HETATM   29  O5  UNL     1      26.476  31.814  27.864  1.00  0.00    -0.298 OA
ENDBRANCH  10  27
TORSDOF 7
ENDMDL
MODEL 4
REMARK VINA RESULT: -6.236034603      1.588      6.309
REMARK  7 active torsions:
REMARK  status: ('A' for Active; 'I' for Inactive)
REMARK    1  A    between atoms: C2_2  and  C4_4 
REMARK    2  A    between atoms: C4_4  and  C5_5 
REMARK    3  A    between atoms: C7_7  and  O1_8 
REMARK    4  A    between atoms: C9_11  and  O2_12 
REMARK    5  A    between atoms: C12_16  and  C13_17 
REMARK    6  A    between atoms: C13_17  and  O4_19 
REMARK    7  A    between atoms: C16_22  and  C17_23 
ROOT
HETATM    1  C5  UNL     1      26.544  25.961  24.492  1.00  0.00     0.001 C 
HETATM    2  C6  UNL     1      27.349  24.686  24.892  1.00  0.00     0.019 C 
HETATM    3  C7  UNL     1      25.159  25.676  24.916  1.00  0.00     0.130 C 
HETATM    4  C8  UNL     1      24.472  26.502  25.927  1.00  0.00     0.065 C 
HETATM    5  C9  UNL     1      25.048  27.775  26.384  1.00  0.00     0.130 C 
HETATM    6  C10 UNL     1      26.143  28.253  25.506  1.00  0.00     0.010 C 
HETATM    7  C11 UNL     1      25.496  28.773  24.245  1.00  0.00     0.020 C 
HETATM    8  C12 UNL     1      26.866  29.430  26.096  1.00  0.00     0.098 C 
HETATM    9  C15 UNL     1      27.689  30.118  25.018  1.00  0.00     0.035 C 
HETATM   10  C16 UNL     1      28.649  29.111  24.470  1.00  0.00     0.126 C 
HETATM   11  C19 UNL     1      28.367  27.696  24.757  1.00  0.00     0.148 C 
HETATM   12  O6  UNL     1      29.331  26.966  24.521  1.00  0.00    -0.296 OA
HETATM   13  C20 UNL     1      27.125  27.131  25.268  1.00  0.00     0.038 C 
HETATM   14  C21 UNL     1      27.503  26.526  26.618  1.00  0.00     0.025 C 
ENDROOT
BRANCH   1  15
HETATM   15  C4  UNL     1      26.758  26.024  23.016  1.00  0.00     0.046 C 
BRANCH  15  16
HETATM   16  C2  UNL     1      26.952  24.789  22.245  1.00  0.00    -0.092 C 
HETATM   17  C1  UNL     1      27.660  24.900  21.095  1.00  0.00     0.014 C 
HETATM   18  C3  UNL     1      26.488  23.423  22.501  1.00  0.00     0.042 C 
ENDBRANCH  15  16
ENDBRANCH   1  15
BRANCH   3  19
HETATM   19  O1  UNL     1      24.990  24.313  25.327  1.00  0.00    -0.395 OA
ATOM     20  H1  UNL     1      24.758  24.243  26.246  1.00  0.00     0.210 HD
ENDBRANCH   3  19
BRANCH   5  21
HETATM   21  O2  UNL     1      25.376  27.799  27.744  1.00  0.00    -0.395 OA
ATOM     22  H2  UNL     1      26.242  27.462  27.941  1.00  0.00     0.210 HD
ENDBRANCH   5  21
BRANCH   8  23
HETATM   23  C13 UNL     1      26.022  30.424  26.756  1.00  0.00     0.263 C 
HETATM   24  O3  UNL     1      26.032  31.660  26.365  1.00  0.00    -0.265 OA
BRANCH  23  25
HETATM   25  O4  UNL     1      25.148  30.225  27.814  1.00  0.00    -0.326 OA
HETATM   26  C14 UNL     1      24.916  31.126  28.862  1.00  0.00     0.213 C 
ENDBRANCH  23  25
ENDBRANCH   8  23
BRANCH  10  27
HETATM   27  C17 UNL     1      30.064  29.477  24.805  1.00  0.00     0.134 C 
HETATM   28  C18 UNL     1      30.455  29.966  26.138  1.00  0.00     0.091 C 
HETATM   29  O5  UNL     1      30.895  29.358  23.936  1.00  0.00    -0.298 OA
ENDBRANCH  10  27
TORSDOF 7
ENDMDL
MODEL 5
REMARK VINA RESULT: -6.079036944      5.575      9.971
REMARK  7 active torsions:
REMARK  status: ('A' for Active; 'I' for Inactive)
REMARK    1  A    between atoms: C2_2  and  C4_4 
REMARK    2  A    between atoms: C4_4  and  C5_5 
REMARK    3  A    between atoms: C7_7  and  O1_8 
REMARK    4  A    between atoms: C9_11  and  O2_12 
REMARK    5  A    between atoms: C12_16  and  C13_17 
REMARK    6  A    between atoms: C13_17  and  O4_19 
REMARK    7  A    between atoms: C16_22  and  C17_23 
ROOT
HETATM    1  C5  UNL     1      20.522  22.267  28.922  1.00  0.00     0.001 C 
HETATM    2  C6  UNL     1      21.610  21.419  28.195  1.00  0.00     0.019 C 
HETATM    3  C7  UNL     1      20.017  21.387  29.994  1.00  0.00     0.130 C 
HETATM    4  C8  UNL     1      20.146  21.748  31.419  1.00  0.00     0.065 C 
HETATM    5  C9  UNL     1      20.570  23.096  31.824  1.00  0.00     0.130 C 
HETATM    6  C10 UNL     1      20.512  24.071  30.709  1.00  0.00     0.010 C 
HETATM    7  C11 UNL     1      19.054  24.386  30.479  1.00  0.00     0.020 C 
HETATM    8  C12 UNL     1      21.151  25.381  31.071  1.00  0.00     0.098 C 
HETATM    9  C15 UNL     1      20.725  26.450  30.076  1.00  0.00     0.035 C 
HETATM   10  C16 UNL     1      21.152  25.997  28.717  1.00  0.00     0.126 C 
HETATM   11  C19 UNL     1      21.496  24.576  28.565  1.00  0.00     0.148 C 
HETATM   12  O6  UNL     1      22.096  24.345  27.513  1.00  0.00    -0.296 OA
HETATM   13  C20 UNL     1      21.208  23.495  29.499  1.00  0.00     0.038 C 
HETATM   14  C21 UNL     1      22.580  22.981  29.930  1.00  0.00     0.025 C 
ENDROOT
BRANCH   1  15
HETATM   15  C4  UNL     1      19.553  22.553  27.824  1.00  0.00     0.046 C 
BRANCH  15  16
HETATM   16  C2  UNL     1      19.216  21.510  26.846  1.00  0.00    -0.092 C 
HETATM   17  C1  UNL     1      19.575  21.746  25.562  1.00  0.00     0.014 C 
HETATM   18  C3  UNL     1      18.525  20.229  27.020  1.00  0.00     0.042 C 
ENDBRANCH  15  16
ENDBRANCH   1  15
BRANCH   3  19
HETATM   19  O1  UNL     1      20.513  20.048  29.871  1.00  0.00    -0.395 OA
ATOM     20  H1  UNL     1      21.240  19.880  30.460  1.00  0.00     0.210 HD
ENDBRANCH   3  19
BRANCH   5  21
HETATM   21  O2  UNL     1      21.779  23.128  32.528  1.00  0.00    -0.395 OA
ATOM     22  H2  UNL     1      21.761  23.670  33.308  1.00  0.00     0.210 HD
ENDBRANCH   5  21
BRANCH   8  23
HETATM   23  C13 UNL     1      20.883  25.860  32.426  1.00  0.00     0.263 C 
HETATM   24  O3  UNL     1      21.847  25.988  33.282  1.00  0.00    -0.265 OA
BRANCH  23  25
HETATM   25  O4  UNL     1      19.660  26.227  32.968  1.00  0.00    -0.326 OA
HETATM   26  C14 UNL     1      19.069  25.659  34.105  1.00  0.00     0.213 C 
ENDBRANCH  23  25
ENDBRANCH   8  23
BRANCH  10  27
HETATM   27  C17 UNL     1      22.220  26.892  28.161  1.00  0.00     0.134 C 
HETATM   28  C18 UNL     1      23.213  27.559  29.021  1.00  0.00     0.091 C 
HETATM   29  O5  UNL     1      22.248  27.056  26.964  1.00  0.00    -0.298 OA
ENDBRANCH  10  27
TORSDOF 7
ENDMDL
