MODEL 1
REMARK VINA RESULT: -7.923394970      0.000      0.000
REMARK  8 active torsions:
REMARK  status: ('A' for Active; 'I' for Inactive)
REMARK    1  A    between atoms: C2_2  and  C3_3 
REMARK    2  A    between atoms: C3_3  and  C4_4 
REMARK    3  A    between atoms: C4_4  and  O2_6 
REMARK    4  A    between atoms: O2_6  and  C5_7 
REMARK    5  A    between atoms: C6_8  and  O3_9 
REMARK    6  A    between atoms: C9_13  and  C10_14 
REMARK    7  A    between atoms: C10_14  and  O5_16 
REMARK    8  A    between atoms: C20_27  and  O7_28 
ROOT
HETATM    1  C5  UNL     1      25.020  27.530  25.899  1.00  0.00     0.190 C 
HETATM    2  C6  UNL     1      26.131  27.209  24.956  1.00  0.00     0.154 C 
HETATM    3  C7  UNL     1      26.737  28.517  24.479  1.00  0.00     0.027 C 
HETATM    4  C8  UNL     1      27.389  28.189  23.142  1.00  0.00     0.014 C 
HETATM    5  C9  UNL     1      27.701  28.985  25.512  1.00  0.00     0.100 C 
HETATM    6  C12 UNL     1      27.151  29.979  26.488  1.00  0.00    -0.024 C 
HETATM    7  C13 UNL     1      28.151  30.017  27.652  1.00  0.00     0.016 C 
HETATM    8  C14 UNL     1      26.991  31.355  25.947  1.00  0.00     0.018 C 
HETATM    9  C15 UNL     1      25.724  32.068  26.360  1.00  0.00     0.079 C 
HETATM   10  C16 UNL     1      25.337  31.765  27.752  1.00  0.00     0.131 C 
HETATM   11  O6  UNL     1      24.861  32.575  28.506  1.00  0.00    -0.298 OA
HETATM   12  C17 UNL     1      25.549  30.356  28.274  1.00  0.00     0.058 C 
HETATM   13  C18 UNL     1      24.297  30.031  29.029  1.00  0.00     0.018 C 
HETATM   14  C19 UNL     1      25.797  29.535  27.045  1.00  0.00     0.037 C 
HETATM   15  C20 UNL     1      25.656  28.069  27.193  1.00  0.00     0.155 C 
ENDROOT
BRANCH   1  16
HETATM   16  O2  UNL     1      24.284  26.358  26.157  1.00  0.00    -0.311 OA
BRANCH  16  17
HETATM   17  C4  UNL     1      23.002  26.411  26.723  1.00  0.00     0.259 C 
HETATM   18  O1  UNL     1      22.470  27.548  26.772  1.00  0.00    -0.265 OA
BRANCH  17  19
HETATM   19  C3  UNL     1      22.318  25.199  27.233  1.00  0.00     0.111 C 
BRANCH  19  20
HETATM   20  C2  UNL     1      21.293  25.512  28.302  1.00  0.00     0.005 C 
HETATM   21  C1  UNL     1      19.963  24.930  27.807  1.00  0.00     0.005 C 
ENDBRANCH  19  20
ENDBRANCH  17  19
ENDBRANCH  16  17
ENDBRANCH   1  16
BRANCH   2  22
HETATM   22  O3  UNL     1      27.059  26.432  25.638  1.00  0.00    -0.392 OA
ATOM     23  H3  UNL     1      27.677  26.089  25.002  1.00  0.00     0.210 HD
ENDBRANCH   2  22
BRANCH  15  24
HETATM   24  O7  UNL     1      24.784  27.661  28.200  1.00  0.00    -0.392 OA
ATOM     25  H7  UNL     1      25.221  27.915  29.004  1.00  0.00     0.210 HD
ENDBRANCH  15  24
BRANCH   5  26
HETATM   26  C10 UNL     1      28.942  29.500  24.900  1.00  0.00     0.263 C 
HETATM   27  O4  UNL     1      30.038  28.908  24.977  1.00  0.00    -0.265 OA
BRANCH  26  28
HETATM   28  O5  UNL     1      28.989  30.709  24.177  1.00  0.00    -0.326 OA
HETATM   29  C11 UNL     1      29.954  31.701  24.464  1.00  0.00     0.213 C 
ENDBRANCH  26  28
ENDBRANCH   5  26
TORSDOF 8
ENDMDL
MODEL 2
REMARK VINA RESULT: -7.774663023      2.092      5.015
REMARK  8 active torsions:
REMARK  status: ('A' for Active; 'I' for Inactive)
REMARK    1  A    between atoms: C2_2  and  C3_3 
REMARK    2  A    between atoms: C3_3  and  C4_4 
REMARK    3  A    between atoms: C4_4  and  O2_6 
REMARK    4  A    between atoms: O2_6  and  C5_7 
REMARK    5  A    between atoms: C6_8  and  O3_9 
REMARK    6  A    between atoms: C9_13  and  C10_14 
REMARK    7  A    between atoms: C10_14  and  O5_16 
REMARK    8  A    between atoms: C20_27  and  O7_28 
ROOT
HETATM    1  C5  UNL     1      25.548  28.589  27.066  1.00  0.00     0.190 C 
HETATM    2  C6  UNL     1      24.955  27.278  26.670  1.00  0.00     0.154 C 
HETATM    3  C7  UNL     1      25.258  27.050  25.200  1.00  0.00     0.027 C 
HETATM    4  C8  UNL     1      24.179  26.088  24.717  1.00  0.00     0.014 C 
HETATM    5  C9  UNL     1      26.636  26.501  25.089  1.00  0.00     0.100 C 
HETATM    6  C12 UNL     1      27.703  27.515  24.809  1.00  0.00    -0.024 C 
HETATM    7  C13 UNL     1      29.034  26.819  25.123  1.00  0.00     0.016 C 
HETATM    8  C14 UNL     1      27.736  28.007  23.407  1.00  0.00     0.018 C 
HETATM    9  C15 UNL     1      27.979  29.490  23.248  1.00  0.00     0.079 C 
HETATM   10  C16 UNL     1      28.936  30.012  24.244  1.00  0.00     0.131 C 
HETATM   11  O6  UNL     1      29.760  30.858  24.003  1.00  0.00    -0.298 OA
HETATM   12  C17 UNL     1      28.889  29.458  25.656  1.00  0.00     0.058 C 
HETATM   13  C18 UNL     1      29.016  30.656  26.546  1.00  0.00     0.018 C 
HETATM   14  C19 UNL     1      27.580  28.732  25.729  1.00  0.00     0.037 C 
HETATM   15  C20 UNL     1      27.078  28.416  27.085  1.00  0.00     0.155 C 
ENDROOT
BRANCH   1  16
HETATM   16  O2  UNL     1      25.071  28.941  28.344  1.00  0.00    -0.311 OA
BRANCH  16  17
HETATM   17  C4  UNL     1      24.354  30.128  28.553  1.00  0.00     0.259 C 
HETATM   18  O1  UNL     1      23.105  30.040  28.455  1.00  0.00    -0.265 OA
BRANCH  17  19
HETATM   19  C3  UNL     1      25.031  31.408  28.867  1.00  0.00     0.111 C 
BRANCH  19  20
HETATM   20  C2  UNL     1      24.839  32.452  27.788  1.00  0.00     0.005 C 
HETATM   21  C1  UNL     1      26.059  32.345  26.863  1.00  0.00     0.005 C 
ENDBRANCH  19  20
ENDBRANCH  17  19
ENDBRANCH  16  17
ENDBRANCH   1  16
BRANCH   2  22
HETATM   22  O3  UNL     1      25.524  26.294  27.469  1.00  0.00    -0.392 OA
ATOM     23  H3  UNL     1      25.391  25.457  27.040  1.00  0.00     0.210 HD
ENDBRANCH   2  22
BRANCH  15  24
HETATM   24  O7  UNL     1      27.508  29.281  28.089  1.00  0.00    -0.392 OA
ATOM     25  H7  UNL     1      28.214  29.773  27.685  1.00  0.00     0.210 HD
ENDBRANCH  15  24
BRANCH   5  26
HETATM   26  C10 UNL     1      26.705  25.402  24.106  1.00  0.00     0.263 C 
HETATM   27  O4  UNL     1      26.622  25.582  22.873  1.00  0.00    -0.265 OA
BRANCH  26  28
HETATM   28  O5  UNL     1      26.870  24.054  24.482  1.00  0.00    -0.326 OA
HETATM   29  C11 UNL     1      26.560  23.000  23.593  1.00  0.00     0.213 C 
ENDBRANCH  26  28
ENDBRANCH   5  26
TORSDOF 8
ENDMDL
MODEL 3
REMARK VINA RESULT: -7.468536998      1.881      4.288
REMARK  8 active torsions:
REMARK  status: ('A' for Active; 'I' for Inactive)
REMARK    1  A    between atoms: C2_2  and  C3_3 
REMARK    2  A    between atoms: C3_3  and  C4_4 
REMARK    3  A    between atoms: C4_4  and  O2_6 
REMARK    4  A    between atoms: O2_6  and  C5_7 
REMARK    5  A    between atoms: C6_8  and  O3_9 
REMARK    6  A    between atoms: C9_13  and  C10_14 
REMARK    7  A    between atoms: C10_14  and  O5_16 
REMARK    8  A    between atoms: C20_27  and  O7_28 
ROOT
HETATM    1  C5  UNL     1      25.469  28.538  27.102  1.00  0.00     0.190 C 
HETATM    2  C6  UNL     1      24.940  27.203  26.696  1.00  0.00     0.154 C 
HETATM    3  C7  UNL     1      25.246  27.003  25.222  1.00  0.00     0.027 C 
HETATM    4  C8  UNL     1      24.215  25.994  24.735  1.00  0.00     0.014 C 
HETATM    5  C9  UNL     1      26.650  26.526  25.100  1.00  0.00     0.100 C 
HETATM    6  C12 UNL     1      27.663  27.595  24.825  1.00  0.00    -0.024 C 
HETATM    7  C13 UNL     1      29.028  26.964  25.126  1.00  0.00     0.016 C 
HETATM    8  C14 UNL     1      27.664  28.102  23.427  1.00  0.00     0.018 C 
HETATM    9  C15 UNL     1      27.832  29.596  23.281  1.00  0.00     0.079 C 
HETATM   10  C16 UNL     1      28.766  30.156  24.278  1.00  0.00     0.131 C 
HETATM   11  O6  UNL     1      29.545  31.044  24.041  1.00  0.00    -0.298 OA
HETATM   12  C17 UNL     1      28.754  29.587  25.685  1.00  0.00     0.058 C 
HETATM   13  C18 UNL     1      28.826  30.781  26.586  1.00  0.00     0.018 C 
HETATM   14  C19 UNL     1      27.483  28.795  25.758  1.00  0.00     0.037 C 
HETATM   15  C20 UNL     1      27.005  28.441  27.113  1.00  0.00     0.155 C 
ENDROOT
BRANCH   1  16
HETATM   16  O2  UNL     1      24.981  28.853  28.385  1.00  0.00    -0.311 OA
BRANCH  16  17
HETATM   17  C4  UNL     1      23.809  29.605  28.555  1.00  0.00     0.259 C 
HETATM   18  O1  UNL     1      23.947  30.852  28.513  1.00  0.00    -0.265 OA
BRANCH  17  19
HETATM   19  C3  UNL     1      22.491  28.965  28.775  1.00  0.00     0.111 C 
BRANCH  19  20
HETATM   20  C2  UNL     1      22.572  27.755  29.681  1.00  0.00     0.005 C 
HETATM   21  C1  UNL     1      22.012  26.575  28.876  1.00  0.00     0.005 C 
ENDBRANCH  19  20
ENDBRANCH  17  19
ENDBRANCH  16  17
ENDBRANCH   1  16
BRANCH   2  22
HETATM   22  O3  UNL     1      25.561  26.240  27.483  1.00  0.00    -0.392 OA
ATOM     23  H3  UNL     1      25.523  25.413  27.017  1.00  0.00     0.210 HD
ENDBRANCH   2  22
BRANCH  15  24
HETATM   24  O7  UNL     1      27.397  29.318  28.122  1.00  0.00    -0.392 OA
ATOM     25  H7  UNL     1      28.125  29.797  27.745  1.00  0.00     0.210 HD
ENDBRANCH  15  24
BRANCH   5  26
HETATM   26  C10 UNL     1      26.769  25.441  24.106  1.00  0.00     0.263 C 
HETATM   27  O4  UNL     1      26.683  25.630  22.875  1.00  0.00    -0.265 OA
BRANCH  26  28
HETATM   28  O5  UNL     1      26.989  24.097  24.468  1.00  0.00    -0.326 OA
HETATM   29  C11 UNL     1      26.432  23.034  23.722  1.00  0.00     0.213 C 
ENDBRANCH  26  28
ENDBRANCH   5  26
TORSDOF 8
ENDMDL
MODEL 4
REMARK VINA RESULT: -7.454786206      1.454      2.063
REMARK  8 active torsions:
REMARK  status: ('A' for Active; 'I' for Inactive)
REMARK    1  A    between atoms: C2_2  and  C3_3 
REMARK    2  A    between atoms: C3_3  and  C4_4 
REMARK    3  A    between atoms: C4_4  and  O2_6 
REMARK    4  A    between atoms: O2_6  and  C5_7 
REMARK    5  A    between atoms: C6_8  and  O3_9 
REMARK    6  A    between atoms: C9_13  and  C10_14 
REMARK    7  A    between atoms: C10_14  and  O5_16 
REMARK    8  A    between atoms: C20_27  and  O7_28 
ROOT
HETATM    1  C5  UNL     1      25.704  27.777  26.158  1.00  0.00     0.190 C 
HETATM    2  C6  UNL     1      26.910  27.483  25.330  1.00  0.00     0.154 C 
HETATM    3  C7  UNL     1      27.404  28.790  24.735  1.00  0.00     0.027 C 
HETATM    4  C8  UNL     1      28.185  28.390  23.490  1.00  0.00     0.014 C 
HETATM    5  C9  UNL     1      28.231  29.483  25.759  1.00  0.00     0.100 C 
HETATM    6  C12 UNL     1      27.505  30.511  26.573  1.00  0.00    -0.024 C 
HETATM    7  C13 UNL     1      28.404  30.798  27.782  1.00  0.00     0.016 C 
HETATM    8  C14 UNL     1      27.235  31.787  25.859  1.00  0.00     0.018 C 
HETATM    9  C15 UNL     1      25.871  32.389  26.104  1.00  0.00     0.079 C 
HETATM   10  C16 UNL     1      25.417  32.203  27.496  1.00  0.00     0.131 C 
HETATM   11  O6  UNL     1      24.800  33.032  28.116  1.00  0.00    -0.298 OA
HETATM   12  C17 UNL     1      25.742  30.897  28.199  1.00  0.00     0.058 C 
HETATM   13  C18 UNL     1      24.481  30.516  28.909  1.00  0.00     0.018 C 
HETATM   14  C19 UNL     1      26.170  29.976  27.096  1.00  0.00     0.037 C 
HETATM   15  C20 UNL     1      26.180  28.531  27.413  1.00  0.00     0.155 C 
ENDROOT
BRANCH   1  16
HETATM   16  O2  UNL     1      25.084  26.563  26.511  1.00  0.00    -0.311 OA
BRANCH  16  17
HETATM   17  C4  UNL     1      23.987  26.068  25.791  1.00  0.00     0.259 C 
HETATM   18  O1  UNL     1      22.854  26.376  26.236  1.00  0.00    -0.265 OA
BRANCH  17  19
HETATM   19  C3  UNL     1      24.157  25.229  24.581  1.00  0.00     0.111 C 
BRANCH  19  20
HETATM   20  C2  UNL     1      25.310  24.256  24.701  1.00  0.00     0.005 C 
HETATM   21  C1  UNL     1      26.184  24.468  23.458  1.00  0.00     0.005 C 
ENDBRANCH  19  20
ENDBRANCH  17  19
ENDBRANCH  16  17
ENDBRANCH   1  16
BRANCH   2  22
HETATM   22  O3  UNL     1      27.865  26.904  26.157  1.00  0.00    -0.392 OA
ATOM     23  H3  UNL     1      27.436  26.233  26.674  1.00  0.00     0.210 HD
ENDBRANCH   2  22
BRANCH  15  24
HETATM   24  O7  UNL     1      25.285  28.140  28.407  1.00  0.00    -0.392 OA
ATOM     25  H7  UNL     1      25.147  27.215  28.246  1.00  0.00     0.210 HD
ENDBRANCH  15  24
BRANCH   5  26
HETATM   26  C10 UNL     1      29.450  30.067  25.167  1.00  0.00     0.263 C 
HETATM   27  O4  UNL     1      30.602  29.783  25.554  1.00  0.00    -0.265 OA
BRANCH  26  28
HETATM   28  O5  UNL     1      29.411  30.999  24.110  1.00  0.00    -0.326 OA
HETATM   29  C11 UNL     1      30.069  32.247  24.205  1.00  0.00     0.213 C 
ENDBRANCH  26  28
ENDBRANCH   5  26
TORSDOF 8
ENDMDL
MODEL 5
REMARK VINA RESULT: -7.166183397      1.871      2.860
REMARK  8 active torsions:
REMARK  status: ('A' for Active; 'I' for Inactive)
REMARK    1  A    between atoms: C2_2  and  C3_3 
REMARK    2  A    between atoms: C3_3  and  C4_4 
REMARK    3  A    between atoms: C4_4  and  O2_6 
REMARK    4  A    between atoms: O2_6  and  C5_7 
REMARK    5  A    between atoms: C6_8  and  O3_9 
REMARK    6  A    between atoms: C9_13  and  C10_14 
REMARK    7  A    between atoms: C10_14  and  O5_16 
REMARK    8  A    between atoms: C20_27  and  O7_28 
ROOT
HETATM    1  C5  UNL     1      23.221  28.136  27.490  1.00  0.00     0.190 C 
HETATM    2  C6  UNL     1      23.667  26.836  26.908  1.00  0.00     0.154 C 
HETATM    3  C7  UNL     1      24.704  27.130  25.839  1.00  0.00     0.027 C 
HETATM    4  C8  UNL     1      24.666  25.926  24.907  1.00  0.00     0.014 C 
HETATM    5  C9  UNL     1      26.019  27.323  26.508  1.00  0.00     0.100 C 
HETATM    6  C12 UNL     1      26.386  28.749  26.787  1.00  0.00    -0.024 C 
HETATM    7  C13 UNL     1      27.540  28.693  27.797  1.00  0.00     0.016 C 
HETATM    8  C14 UNL     1      26.827  29.519  25.594  1.00  0.00     0.018 C 
HETATM    9  C15 UNL     1      26.311  30.936  25.512  1.00  0.00     0.079 C 
HETATM   10  C16 UNL     1      26.243  31.587  26.836  1.00  0.00     0.131 C 
HETATM   11  O6  UNL     1      26.507  32.747  27.026  1.00  0.00    -0.298 OA
HETATM   12  C17 UNL     1      25.819  30.755  28.033  1.00  0.00     0.058 C 
HETATM   13  C18 UNL     1      24.864  31.626  28.790  1.00  0.00     0.018 C 
HETATM   14  C19 UNL     1      25.230  29.513  27.435  1.00  0.00     0.037 C 
HETATM   15  C20 UNL     1      24.387  28.689  28.330  1.00  0.00     0.155 C 
ENDROOT
BRANCH   1  16
HETATM   16  O2  UNL     1      22.088  27.912  28.297  1.00  0.00    -0.311 OA
BRANCH  16  17
HETATM   17  C4  UNL     1      21.573  26.622  28.489  1.00  0.00     0.259 C 
HETATM   18  O1  UNL     1      21.092  26.066  27.471  1.00  0.00    -0.265 OA
BRANCH  17  19
HETATM   19  C3  UNL     1      21.594  25.958  29.814  1.00  0.00     0.111 C 
BRANCH  19  20
HETATM   20  C2  UNL     1      21.892  26.918  30.945  1.00  0.00     0.005 C 
HETATM   21  C1  UNL     1      21.302  26.288  32.213  1.00  0.00     0.005 C 
ENDBRANCH  19  20
ENDBRANCH  17  19
ENDBRANCH  16  17
ENDBRANCH   1  16
BRANCH   2  22
HETATM   22  O3  UNL     1      24.196  26.067  27.937  1.00  0.00    -0.392 OA
ATOM     23  H3  UNL     1      24.636  25.320  27.547  1.00  0.00     0.210 HD
ENDBRANCH   2  22
BRANCH  15  24
HETATM   24  O7  UNL     1      23.765  29.388  29.362  1.00  0.00    -0.392 OA
ATOM     25  H7  UNL     1      23.091  28.796  29.672  1.00  0.00     0.210 HD
ENDBRANCH  15  24
BRANCH   5  26
HETATM   26  C10 UNL     1      27.106  26.650  25.771  1.00  0.00     0.263 C 
HETATM   27  O4  UNL     1      27.809  25.745  26.267  1.00  0.00    -0.265 OA
BRANCH  26  28
HETATM   28  O5  UNL     1      27.439  26.975  24.441  1.00  0.00    -0.326 OA
HETATM   29  C11 UNL     1      28.772  26.895  23.977  1.00  0.00     0.213 C 
ENDBRANCH  26  28
ENDBRANCH   5  26
TORSDOF 8
ENDMDL
