MODEL 1
REMARK VINA RESULT: -7.382280822      0.000      0.000
REMARK  5 active torsions:
REMARK  status: ('A' for Active; 'I' for Inactive)
REMARK    1  A    between atoms: C2_2  and  C10_12 
REMARK    2  A    between atoms: C10_12  and  C11_13 
REMARK    3  A    between atoms: C10_12  and  N1_26 
REMARK    4  A    between atoms: C17_20  and  O4_21 
REMARK    5  A    between atoms: C17_20  and  C18_23 
ROOT
HETATM    1  C10 UNL     1      22.010  26.429  27.972  1.00  0.00     0.191 C 
ENDROOT
BRANCH   1   2
HETATM    2  C2  UNL     1      21.997  26.785  29.379  1.00  0.00    -0.023 C 
HETATM    3  C1  UNL     1      22.073  28.241  29.719  1.00  0.00     0.048 C 
HETATM    4  C3  UNL     1      21.906  25.970  30.394  1.00  0.00     0.074 C 
HETATM    5  C4  UNL     1      21.890  26.552  31.789  1.00  0.00     0.232 C 
HETATM    6  O2  UNL     1      21.822  24.596  30.233  1.00  0.00    -0.352 OA
HETATM    7  O1  UNL     1      20.583  26.356  32.261  1.00  0.00    -0.384 OA
HETATM    8  C5  UNL     1      20.351  25.089  32.718  1.00  0.00     0.179 C 
HETATM    9  C6  UNL     1      19.906  24.124  31.646  1.00  0.00    -0.004 C 
HETATM   10  C7  UNL     1      19.284  22.941  32.366  1.00  0.00     0.019 C 
HETATM   11  C8  UNL     1      18.814  24.716  30.774  1.00  0.00     0.019 C 
HETATM   12  C9  UNL     1      21.051  23.590  30.835  1.00  0.00     0.186 C 
ENDBRANCH   1   2
BRANCH   1  13
HETATM   13  C11 UNL     1      23.446  26.200  27.468  1.00  0.00     0.026 A 
HETATM   14  C12 UNL     1      23.556  25.083  26.492  1.00  0.00     0.008 A 
HETATM   15  C13 UNL     1      24.232  25.621  25.256  1.00  0.00     0.011 A 
HETATM   16  C14 UNL     1      24.402  27.098  25.438  1.00  0.00     0.066 A 
HETATM   17  C15 UNL     1      23.912  27.455  26.812  1.00  0.00     0.026 A 
HETATM   18  C17 UNL     1      25.845  27.537  25.468  1.00  0.00     0.257 C 
HETATM   19  C16 UNL     1      25.106  28.087  27.503  1.00  0.00     0.177 C 
HETATM   20  O3  UNL     1      25.943  28.492  26.477  1.00  0.00    -0.346 OA
BRANCH  18  21
HETATM   21  O4  UNL     1      26.141  28.131  24.247  1.00  0.00    -0.357 OA
ATOM     22  H4  UNL     1      26.769  28.828  24.401  1.00  0.00     0.213 HD
ENDBRANCH  18  21
BRANCH  18  23
HETATM   23  C18 UNL     1      26.787  26.461  25.765  1.00  0.00     0.239 C 
HETATM   24  O5  UNL     1      27.204  26.246  26.928  1.00  0.00    -0.644 OA
HETATM   25  O6  UNL     1      27.245  25.644  24.748  1.00  0.00    -0.644 OA
ENDBRANCH  18  23
ENDBRANCH   1  13
BRANCH   1  26
HETATM   26  N1  UNL     1      21.239  25.312  27.545  1.00  0.00    -0.146 N 
HETATM   27  O7  UNL     1      19.973  25.370  27.432  1.00  0.00    -0.536 OA
HETATM   28  O8  UNL     1      21.736  24.062  27.208  1.00  0.00    -0.536 OA
ENDBRANCH   1  26
TORSDOF 5
ENDMDL
MODEL 2
REMARK VINA RESULT: -7.357371096      2.637      7.609
REMARK  5 active torsions:
REMARK  status: ('A' for Active; 'I' for Inactive)
REMARK    1  A    between atoms: C2_2  and  C10_12 
REMARK    2  A    between atoms: C10_12  and  C11_13 
REMARK    3  A    between atoms: C10_12  and  N1_26 
REMARK    4  A    between atoms: C17_20  and  O4_21 
REMARK    5  A    between atoms: C17_20  and  C18_23 
ROOT
HETATM    1  C10 UNL     1      24.928  27.913  27.684  1.00  0.00     0.191 C 
ENDROOT
BRANCH   1   2
HETATM    2  C2  UNL     1      24.983  29.363  27.729  1.00  0.00    -0.023 C 
HETATM    3  C1  UNL     1      24.335  30.037  28.899  1.00  0.00     0.048 C 
HETATM    4  C3  UNL     1      25.555  30.154  26.864  1.00  0.00     0.074 C 
HETATM    5  C4  UNL     1      25.514  31.645  27.109  1.00  0.00     0.232 C 
HETATM    6  O2  UNL     1      26.198  29.672  25.735  1.00  0.00    -0.352 OA
HETATM    7  O1  UNL     1      26.829  32.007  27.436  1.00  0.00    -0.384 OA
HETATM    8  C5  UNL     1      27.644  32.145  26.347  1.00  0.00     0.179 C 
HETATM    9  C6  UNL     1      28.307  30.860  25.913  1.00  0.00    -0.004 C 
HETATM   10  C7  UNL     1      29.470  31.258  25.023  1.00  0.00     0.019 C 
HETATM   11  C8  UNL     1      28.905  30.110  27.089  1.00  0.00     0.019 C 
HETATM   12  C9  UNL     1      27.402  29.992  25.089  1.00  0.00     0.186 C 
ENDBRANCH   1   2
BRANCH   1  13
HETATM   13  C11 UNL     1      23.481  27.406  27.812  1.00  0.00     0.026 A 
HETATM   14  C12 UNL     1      23.052  26.555  26.669  1.00  0.00     0.008 A 
HETATM   15  C13 UNL     1      22.543  25.253  27.235  1.00  0.00     0.011 A 
HETATM   16  C14 UNL     1      22.797  25.268  28.711  1.00  0.00     0.066 A 
HETATM   17  C15 UNL     1      23.381  26.605  29.067  1.00  0.00     0.026 A 
HETATM   18  C17 UNL     1      21.537  25.218  29.538  1.00  0.00     0.257 C 
HETATM   19  C16 UNL     1      22.419  27.197  30.081  1.00  0.00     0.177 C 
HETATM   20  O3  UNL     1      21.720  26.114  30.589  1.00  0.00    -0.346 OA
BRANCH  18  21
HETATM   21  O4  UNL     1      21.408  23.933  30.052  1.00  0.00    -0.357 OA
ATOM     22  H4  UNL     1      20.544  23.855  30.440  1.00  0.00     0.213 HD
ENDBRANCH  18  21
BRANCH  18  23
HETATM   23  C18 UNL     1      20.332  25.610  28.810  1.00  0.00     0.239 C 
HETATM   24  O5  UNL     1      20.336  25.792  27.570  1.00  0.00    -0.644 OA
HETATM   25  O6  UNL     1      19.142  25.791  29.492  1.00  0.00    -0.644 OA
ENDBRANCH  18  23
ENDBRANCH   1  13
BRANCH   1  26
HETATM   26  N1  UNL     1      25.502  27.244  26.567  1.00  0.00    -0.146 N 
HETATM   27  O7  UNL     1      26.555  26.538  26.673  1.00  0.00    -0.536 OA
HETATM   28  O8  UNL     1      25.019  27.268  25.268  1.00  0.00    -0.536 OA
ENDBRANCH   1  26
TORSDOF 5
ENDMDL
MODEL 3
REMARK VINA RESULT: -7.259719122      2.436      8.042
REMARK  5 active torsions:
REMARK  status: ('A' for Active; 'I' for Inactive)
REMARK    1  A    between atoms: C2_2  and  C10_12 
REMARK    2  A    between atoms: C10_12  and  C11_13 
REMARK    3  A    between atoms: C10_12  and  N1_26 
REMARK    4  A    between atoms: C17_20  and  O4_21 
REMARK    5  A    between atoms: C17_20  and  C18_23 
ROOT
HETATM    1  C10 UNL     1      25.135  27.956  26.497  1.00  0.00     0.191 C 
ENDROOT
BRANCH   1   2
HETATM    2  C2  UNL     1      26.146  27.151  25.838  1.00  0.00    -0.023 C 
HETATM    3  C1  UNL     1      25.679  25.940  25.091  1.00  0.00     0.048 C 
HETATM    4  C3  UNL     1      27.432  27.375  25.806  1.00  0.00     0.074 C 
HETATM    5  C4  UNL     1      28.314  26.417  25.041  1.00  0.00     0.232 C 
HETATM    6  O2  UNL     1      28.007  28.461  26.447  1.00  0.00    -0.352 OA
HETATM    7  O1  UNL     1      28.752  27.129  23.914  1.00  0.00    -0.384 OA
HETATM    8  C5  UNL     1      29.791  27.978  24.173  1.00  0.00     0.179 C 
HETATM    9  C6  UNL     1      29.359  29.348  24.638  1.00  0.00    -0.004 C 
HETATM   10  C7  UNL     1      30.558  30.261  24.451  1.00  0.00     0.019 C 
HETATM   11  C8  UNL     1      28.252  29.914  23.767  1.00  0.00     0.019 C 
HETATM   12  C9  UNL     1      29.006  29.382  26.096  1.00  0.00     0.186 C 
ENDBRANCH   1   2
BRANCH   1  13
HETATM   13  C11 UNL     1      24.311  27.115  27.488  1.00  0.00     0.026 A 
HETATM   14  C12 UNL     1      23.747  27.912  28.609  1.00  0.00     0.008 A 
HETATM   15  C13 UNL     1      22.259  27.663  28.644  1.00  0.00     0.011 A 
HETATM   16  C14 UNL     1      21.911  26.823  27.453  1.00  0.00     0.066 A 
HETATM   17  C15 UNL     1      23.187  26.485  26.736  1.00  0.00     0.026 A 
HETATM   18  C17 UNL     1      21.357  25.468  27.816  1.00  0.00     0.257 C 
HETATM   19  C16 UNL     1      23.244  24.969  26.729  1.00  0.00     0.177 C 
HETATM   20  O3  UNL     1      21.937  24.558  26.934  1.00  0.00    -0.346 OA
BRANCH  18  21
HETATM   21  O4  UNL     1      19.983  25.493  27.607  1.00  0.00    -0.357 OA
ATOM     22  H4  UNL     1      19.706  24.618  27.359  1.00  0.00     0.213 HD
ENDBRANCH  18  21
BRANCH  18  23
HETATM   23  C18 UNL     1      21.669  25.043  29.179  1.00  0.00     0.239 C 
HETATM   24  O5  UNL     1      22.594  24.235  29.428  1.00  0.00    -0.644 OA
HETATM   25  O6  UNL     1      20.932  25.537  30.240  1.00  0.00    -0.644 OA
ENDBRANCH  18  23
ENDBRANCH   1  13
BRANCH   1  26
HETATM   26  N1  UNL     1      25.545  29.128  27.192  1.00  0.00    -0.146 N 
HETATM   27  O7  UNL     1      25.523  30.278  26.647  1.00  0.00    -0.536 OA
HETATM   28  O8  UNL     1      26.005  29.180  28.499  1.00  0.00    -0.536 OA
ENDBRANCH   1  26
TORSDOF 5
ENDMDL
MODEL 4
REMARK VINA RESULT: -7.205544122      3.604      5.369
REMARK  5 active torsions:
REMARK  status: ('A' for Active; 'I' for Inactive)
REMARK    1  A    between atoms: C2_2  and  C10_12 
REMARK    2  A    between atoms: C10_12  and  C11_13 
REMARK    3  A    between atoms: C10_12  and  N1_26 
REMARK    4  A    between atoms: C17_20  and  O4_21 
REMARK    5  A    between atoms: C17_20  and  C18_23 
ROOT
HETATM    1  C10 UNL     1      26.586  29.765  27.051  1.00  0.00     0.191 C 
ENDROOT
BRANCH   1   2
HETATM    2  C2  UNL     1      25.359  29.843  27.821  1.00  0.00    -0.023 C 
HETATM    3  C1  UNL     1      24.806  31.208  28.093  1.00  0.00     0.048 C 
HETATM    4  C3  UNL     1      24.662  28.846  28.292  1.00  0.00     0.074 C 
HETATM    5  C4  UNL     1      23.393  29.147  29.056  1.00  0.00     0.232 C 
HETATM    6  O2  UNL     1      25.047  27.527  28.113  1.00  0.00    -0.352 OA
HETATM    7  O1  UNL     1      22.346  28.725  28.224  1.00  0.00    -0.384 OA
HETATM    8  C5  UNL     1      22.126  27.376  28.264  1.00  0.00     0.179 C 
HETATM    9  C6  UNL     1      22.967  26.590  27.287  1.00  0.00    -0.004 C 
HETATM   10  C7  UNL     1      22.304  25.231  27.148  1.00  0.00     0.019 C 
HETATM   11  C8  UNL     1      22.955  27.215  25.904  1.00  0.00     0.019 C 
HETATM   12  C9  UNL     1      24.361  26.347  27.788  1.00  0.00     0.186 C 
ENDBRANCH   1   2
BRANCH   1  13
HETATM   13  C11 UNL     1      26.485  28.696  25.948  1.00  0.00     0.026 A 
HETATM   14  C12 UNL     1      26.123  29.255  24.618  1.00  0.00     0.008 A 
HETATM   15  C13 UNL     1      27.169  28.799  23.631  1.00  0.00     0.011 A 
HETATM   16  C14 UNL     1      28.236  28.081  24.398  1.00  0.00     0.066 A 
HETATM   17  C15 UNL     1      27.810  28.020  25.837  1.00  0.00     0.026 A 
HETATM   18  C17 UNL     1      28.371  26.627  24.022  1.00  0.00     0.257 C 
HETATM   19  C16 UNL     1      27.759  26.540  26.168  1.00  0.00     0.177 C 
HETATM   20  O3  UNL     1      28.554  25.929  25.213  1.00  0.00    -0.346 OA
BRANCH  18  21
HETATM   21  O4  UNL     1      29.506  26.488  23.232  1.00  0.00    -0.357 OA
ATOM     22  H4  UNL     1      29.231  26.223  22.362  1.00  0.00     0.213 HD
ENDBRANCH  18  21
BRANCH  18  23
HETATM   23  C18 UNL     1      27.197  26.077  23.347  1.00  0.00     0.239 C 
HETATM   24  O5  UNL     1      27.183  25.858  22.112  1.00  0.00    -0.644 OA
HETATM   25  O6  UNL     1      26.059  25.781  24.074  1.00  0.00    -0.644 OA
ENDBRANCH  18  23
ENDBRANCH   1  13
BRANCH   1  26
HETATM   26  N1  UNL     1      27.081  30.948  26.435  1.00  0.00    -0.146 N 
HETATM   27  O7  UNL     1      28.327  31.167  26.299  1.00  0.00    -0.536 OA
HETATM   28  O8  UNL     1      26.311  31.980  25.921  1.00  0.00    -0.536 OA
ENDBRANCH   1  26
TORSDOF 5
ENDMDL
MODEL 5
REMARK VINA RESULT: -7.183693572      4.086      6.493
REMARK  5 active torsions:
REMARK  status: ('A' for Active; 'I' for Inactive)
REMARK    1  A    between atoms: C2_2  and  C10_12 
REMARK    2  A    between atoms: C10_12  and  C11_13 
REMARK    3  A    between atoms: C10_12  and  N1_26 
REMARK    4  A    between atoms: C17_20  and  O4_21 
REMARK    5  A    between atoms: C17_20  and  C18_23 
ROOT
HETATM    1  C10 UNL     1      25.444  29.770  28.156  1.00  0.00     0.191 C 
ENDROOT
BRANCH   1   2
HETATM    2  C2  UNL     1      24.445  28.775  27.813  1.00  0.00    -0.023 C 
HETATM    3  C1  UNL     1      23.010  29.199  27.858  1.00  0.00     0.048 C 
HETATM    4  C3  UNL     1      24.660  27.540  27.447  1.00  0.00     0.074 C 
HETATM    5  C4  UNL     1      23.472  26.668  27.113  1.00  0.00     0.232 C 
HETATM    6  O2  UNL     1      25.936  27.009  27.355  1.00  0.00    -0.352 OA
HETATM    7  O1  UNL     1      23.528  26.476  25.724  1.00  0.00    -0.384 OA
HETATM    8  C5  UNL     1      24.421  25.514  25.342  1.00  0.00     0.179 C 
HETATM    9  C6  UNL     1      25.825  26.032  25.137  1.00  0.00    -0.004 C 
HETATM   10  C7  UNL     1      26.552  24.982  24.315  1.00  0.00     0.019 C 
HETATM   11  C8  UNL     1      25.840  27.306  24.313  1.00  0.00     0.019 C 
HETATM   12  C9  UNL     1      26.581  26.180  26.424  1.00  0.00     0.186 C 
ENDBRANCH   1   2
BRANCH   1  13
HETATM   13  C11 UNL     1      26.299  30.146  26.933  1.00  0.00     0.026 A 
HETATM   14  C12 UNL     1      26.411  31.614  26.722  1.00  0.00     0.008 A 
HETATM   15  C13 UNL     1      27.879  31.955  26.651  1.00  0.00     0.011 A 
HETATM   16  C14 UNL     1      28.650  30.709  26.960  1.00  0.00     0.066 A 
HETATM   17  C15 UNL     1      27.667  29.587  27.136  1.00  0.00     0.026 A 
HETATM   18  C17 UNL     1      29.506  30.233  25.813  1.00  0.00     0.257 C 
HETATM   19  C16 UNL     1      28.056  28.557  26.092  1.00  0.00     0.177 C 
HETATM   20  O3  UNL     1      29.372  28.847  25.772  1.00  0.00    -0.346 OA
BRANCH  18  21
HETATM   21  O4  UNL     1      30.828  30.556  26.096  1.00  0.00    -0.357 OA
ATOM     22  H4  UNL     1      30.830  31.305  26.681  1.00  0.00     0.213 HD
ENDBRANCH  18  21
BRANCH  18  23
HETATM   23  C18 UNL     1      29.108  30.768  24.513  1.00  0.00     0.239 C 
HETATM   24  O5  UNL     1      28.307  30.161  23.762  1.00  0.00    -0.644 OA
HETATM   25  O6  UNL     1      29.618  31.978  24.079  1.00  0.00    -0.644 OA
ENDBRANCH  18  23
ENDBRANCH   1  13
BRANCH   1  26
HETATM   26  N1  UNL     1      25.014  30.990  28.750  1.00  0.00    -0.146 N 
HETATM   27  O7  UNL     1      25.371  31.331  29.922  1.00  0.00    -0.536 OA
HETATM   28  O8  UNL     1      24.184  31.932  28.162  1.00  0.00    -0.536 OA
ENDBRANCH   1  26
TORSDOF 5
ENDMDL
