MODEL 1
REMARK VINA RESULT: -6.790635660      0.000      0.000
REMARK  16 active torsions:
REMARK  status: ('A' for Active; 'I' for Inactive)
REMARK    1  A    between atoms: C3_4  and  O2_5 
REMARK    2  A    between atoms: O2_5  and  C4_6 
REMARK    3  A    between atoms: C5_7  and  O3_8 
REMARK    4  A    between atoms: O3_8  and  C6_9 
REMARK    5  A    between atoms: C8_13  and  O6_14 
REMARK    6  A    between atoms: O6_14  and  C9_15 
REMARK    7  A    between atoms: C10_16  and  O7_17 
REMARK    8  A    between atoms: C11_19  and  O8_20 
REMARK    9  A    between atoms: C12_22  and  O9_23 
REMARK   10  A    between atoms: C14_27  and  O11_28 
REMARK   11  A    between atoms: O11_28  and  C15_29 
REMARK   12  A    between atoms: C19_35  and  O14_36 
REMARK   13  A    between atoms: C20_38  and  O15_39 
REMARK   14  A    between atoms: C21_41  and  O16_42 
REMARK   15  A    between atoms: C22_44  and  O17_45 
REMARK   16  A    between atoms: C23_47  and  O18_48 
ROOT
HETATM    1  C4  UNL     1      43.433   2.121  11.231  1.00  0.00     0.211 C 
HETATM    2  C5  UNL     1      42.265   1.475  11.997  1.00  0.00     0.295 C 
HETATM    3  O13 UNL     1      42.047   2.020  13.224  1.00  0.00    -0.351 OA
HETATM    4  C17 UNL     1      43.141   1.900  14.044  1.00  0.00     0.152 C 
HETATM    5  C18 UNL     1      43.289   0.446  14.462  1.00  0.00     0.042 C 
HETATM    6  C19 UNL     1      44.414   2.456  13.460  1.00  0.00     0.178 C 
HETATM    7  C20 UNL     1      44.659   1.871  12.090  1.00  0.00     0.183 C 
ENDROOT
BRANCH   2   8
HETATM    8  O3  UNL     1      42.284   0.112  11.904  1.00  0.00    -0.324 OA
BRANCH   8   9
HETATM    9  C6  UNL     1      41.587  -0.427  10.859  1.00  0.00     0.320 C 
HETATM   10  O4  UNL     1      42.279  -1.432  10.185  1.00  0.00    -0.332 OA
HETATM   11  C7  UNL     1      42.133  -2.517  11.038  1.00  0.00     0.344 C 
HETATM   12  O5  UNL     1      40.964  -2.366  11.762  1.00  0.00    -0.332 OA
HETATM   13  C8  UNL     1      40.345  -1.200  11.248  1.00  0.00     0.318 C 
BRANCH  13  14
HETATM   14  O6  UNL     1      39.605  -0.651  12.257  1.00  0.00    -0.348 OA
BRANCH  14  15
HETATM   15  C9  UNL     1      38.249  -0.783  12.004  1.00  0.00     0.167 C 
HETATM   16  C10 UNL     1      37.564  -1.465  13.171  1.00  0.00     0.179 C 
HETATM   17  C11 UNL     1      36.157  -1.806  12.834  1.00  0.00     0.180 C 
HETATM   18  C12 UNL     1      35.529  -0.938  11.783  1.00  0.00     0.179 C 
HETATM   19  C13 UNL     1      36.090   0.452  11.745  1.00  0.00     0.167 C 
HETATM   20  O10 UNL     1      36.123   1.135  12.930  1.00  0.00    -0.352 OA
HETATM   21  C16 UNL     1      37.587   0.481  11.585  1.00  0.00     0.105 C 
HETATM   22  C14 UNL     1      37.425   1.544  12.626  1.00  0.00     0.278 C 
BRANCH  16  23
HETATM   23  O7  UNL     1      37.728  -0.782  14.367  1.00  0.00    -0.390 OA
ATOM     24  H7  UNL     1      36.904  -0.501  14.749  1.00  0.00     0.210 HD
ENDBRANCH  16  23
BRANCH  17  25
HETATM   25  O8  UNL     1      35.408  -1.815  14.030  1.00  0.00    -0.390 OA
ATOM     26  H8  UNL     1      35.528  -2.658  14.449  1.00  0.00     0.210 HD
ENDBRANCH  17  25
BRANCH  18  27
HETATM   27  O9  UNL     1      35.624  -1.482  10.504  1.00  0.00    -0.390 OA
ATOM     28  H9  UNL     1      35.102  -1.013   9.864  1.00  0.00     0.210 HD
ENDBRANCH  18  27
BRANCH  22  29
HETATM   29  O11 UNL     1      37.496   2.827  12.033  1.00  0.00    -0.296 OA
BRANCH  29  30
HETATM   30  C15 UNL     1      37.862   3.945  12.754  1.00  0.00     0.400 C 
HETATM   31  O12 UNL     1      38.215   4.955  12.081  1.00  0.00    -0.276 OA
ENDBRANCH  29  30
ENDBRANCH  22  29
ENDBRANCH  14  15
ENDBRANCH  13  14
ENDBRANCH   8   9
ENDBRANCH   2   8
BRANCH   1  32
HETATM   32  O2  UNL     1      43.273   3.490  11.157  1.00  0.00    -0.346 OA
BRANCH  32  33
HETATM   33  C3  UNL     1      42.546   3.943  10.083  1.00  0.00     0.292 C 
HETATM   34  O1  UNL     1      43.269   4.914   9.368  1.00  0.00    -0.351 OA
HETATM   35  C2  UNL     1      42.638   5.287   8.204  1.00  0.00     0.152 C 
HETATM   36  C1  UNL     1      43.613   6.078   7.363  1.00  0.00     0.042 C 
HETATM   37  C23 UNL     1      41.403   6.091   8.547  1.00  0.00     0.178 C 
HETATM   38  C22 UNL     1      41.071   5.991  10.018  1.00  0.00     0.183 C 
HETATM   39  C21 UNL     1      41.277   4.611  10.564  1.00  0.00     0.204 C 
BRANCH  37  40
HETATM   40  O18 UNL     1      41.701   7.430   8.280  1.00  0.00    -0.390 OA
ATOM     41  H18 UNL     1      41.223   7.670   7.496  1.00  0.00     0.210 HD
ENDBRANCH  37  40
BRANCH  38  42
HETATM   42  O17 UNL     1      39.727   6.336  10.165  1.00  0.00    -0.390 OA
ATOM     43  H17 UNL     1      39.573   7.162   9.721  1.00  0.00     0.210 HD
ENDBRANCH  38  42
BRANCH  39  44
HETATM   44  O16 UNL     1      41.283   4.729  11.974  1.00  0.00    -0.388 OA
ATOM     45  H16 UNL     1      40.615   4.173  12.357  1.00  0.00     0.210 HD
ENDBRANCH  39  44
ENDBRANCH  32  33
ENDBRANCH   1  32
BRANCH   7  46
HETATM   46  O15 UNL     1      45.805   2.416  11.513  1.00  0.00    -0.390 OA
ATOM     47  H15 UNL     1      46.517   1.787  11.496  1.00  0.00     0.210 HD
ENDBRANCH   7  46
BRANCH   6  48
HETATM   48  O14 UNL     1      45.447   2.096  14.325  1.00  0.00    -0.390 OA
ATOM     49  H14 UNL     1      45.257   1.216  14.631  1.00  0.00     0.210 HD
ENDBRANCH   6  48
TORSDOF 16
ENDMDL
MODEL 2
REMARK VINA RESULT: -6.710164266      3.952      5.203
REMARK  16 active torsions:
REMARK  status: ('A' for Active; 'I' for Inactive)
REMARK    1  A    between atoms: C3_4  and  O2_5 
REMARK    2  A    between atoms: O2_5  and  C4_6 
REMARK    3  A    between atoms: C5_7  and  O3_8 
REMARK    4  A    between atoms: O3_8  and  C6_9 
REMARK    5  A    between atoms: C8_13  and  O6_14 
REMARK    6  A    between atoms: O6_14  and  C9_15 
REMARK    7  A    between atoms: C10_16  and  O7_17 
REMARK    8  A    between atoms: C11_19  and  O8_20 
REMARK    9  A    between atoms: C12_22  and  O9_23 
REMARK   10  A    between atoms: C14_27  and  O11_28 
REMARK   11  A    between atoms: O11_28  and  C15_29 
REMARK   12  A    between atoms: C19_35  and  O14_36 
REMARK   13  A    between atoms: C20_38  and  O15_39 
REMARK   14  A    between atoms: C21_41  and  O16_42 
REMARK   15  A    between atoms: C22_44  and  O17_45 
REMARK   16  A    between atoms: C23_47  and  O18_48 
ROOT
HETATM    1  C4  UNL     1      39.139   0.983  14.106  1.00  0.00     0.211 C 
HETATM    2  C5  UNL     1      38.597  -0.427  13.810  1.00  0.00     0.295 C 
HETATM    3  O13 UNL     1      37.627  -0.833  14.673  1.00  0.00    -0.351 OA
HETATM    4  C17 UNL     1      38.074  -0.872  15.970  1.00  0.00     0.152 C 
HETATM    5  C18 UNL     1      39.029  -2.044  16.129  1.00  0.00     0.042 C 
HETATM    6  C19 UNL     1      38.676   0.422  16.454  1.00  0.00     0.178 C 
HETATM    7  C20 UNL     1      39.742   0.893  15.495  1.00  0.00     0.183 C 
ENDROOT
BRANCH   2   8
HETATM    8  O3  UNL     1      39.599  -1.309  13.522  1.00  0.00    -0.324 OA
BRANCH   8   9
HETATM    9  C6  UNL     1      39.505  -1.951  12.319  1.00  0.00     0.320 C 
HETATM   10  O4  UNL     1      40.726  -2.081  11.658  1.00  0.00    -0.332 OA
HETATM   11  C7  UNL     1      41.323  -3.131  12.341  1.00  0.00     0.344 C 
HETATM   12  O5  UNL     1      40.337  -3.942  12.871  1.00  0.00    -0.332 OA
HETATM   13  C8  UNL     1      39.111  -3.410  12.399  1.00  0.00     0.318 C 
BRANCH  13  14
HETATM   14  O6  UNL     1      38.153  -3.709  13.327  1.00  0.00    -0.348 OA
BRANCH  14  15
HETATM   15  C9  UNL     1      37.144  -4.477  12.767  1.00  0.00     0.167 C 
HETATM   16  C10 UNL     1      36.258  -5.048  13.854  1.00  0.00     0.179 C 
HETATM   17  C11 UNL     1      35.304  -6.041  13.294  1.00  0.00     0.180 C 
HETATM   18  C12 UNL     1      34.966  -5.846  11.845  1.00  0.00     0.179 C 
HETATM   19  C13 UNL     1      35.052  -4.416  11.399  1.00  0.00     0.167 C 
HETATM   20  O10 UNL     1      34.368  -3.497  12.147  1.00  0.00    -0.352 OA
HETATM   21  C16 UNL     1      36.389  -3.786  11.688  1.00  0.00     0.105 C 
HETATM   22  C14 UNL     1      35.489  -2.663  12.097  1.00  0.00     0.278 C 
BRANCH  16  23
HETATM   23  O7  UNL     1      35.681  -4.069  14.650  1.00  0.00    -0.390 OA
ATOM     24  H7  UNL     1      35.102  -4.426  15.314  1.00  0.00     0.210 HD
ENDBRANCH  16  23
BRANCH  17  25
HETATM   25  O8  UNL     1      34.151  -6.052  14.108  1.00  0.00    -0.390 OA
ATOM     26  H8  UNL     1      33.394  -5.920  13.551  1.00  0.00     0.210 HD
ENDBRANCH  17  25
BRANCH  18  27
HETATM   27  O9  UNL     1      35.759  -6.615  10.996  1.00  0.00    -0.390 OA
ATOM     28  H9  UNL     1      35.901  -6.206  10.151  1.00  0.00     0.210 HD
ENDBRANCH  18  27
BRANCH  22  29
HETATM   29  O11 UNL     1      35.428  -1.686  11.073  1.00  0.00    -0.296 OA
BRANCH  29  30
HETATM   30  C15 UNL     1      36.029  -0.452  11.207  1.00  0.00     0.400 C 
HETATM   31  O12 UNL     1      35.568   0.301  12.112  1.00  0.00    -0.276 OA
ENDBRANCH  29  30
ENDBRANCH  22  29
ENDBRANCH  14  15
ENDBRANCH  13  14
ENDBRANCH   8   9
ENDBRANCH   2   8
BRANCH   1  32
HETATM   32  O2  UNL     1      38.109   1.899  14.180  1.00  0.00    -0.346 OA
BRANCH  32  33
HETATM   33  C3  UNL     1      38.344   3.104  13.565  1.00  0.00     0.292 C 
HETATM   34  O1  UNL     1      38.970   3.998  14.452  1.00  0.00    -0.351 OA
HETATM   35  C2  UNL     1      39.355   5.167  13.834  1.00  0.00     0.152 C 
HETATM   36  C1  UNL     1      40.279   5.918  14.764  1.00  0.00     0.042 C 
HETATM   37  C23 UNL     1      38.122   5.973  13.488  1.00  0.00     0.178 C 
HETATM   38  C22 UNL     1      36.864   5.148  13.641  1.00  0.00     0.183 C 
HETATM   39  C21 UNL     1      37.034   3.740  13.158  1.00  0.00     0.204 C 
BRANCH  37  40
HETATM   40  O18 UNL     1      38.046   7.018  14.412  1.00  0.00    -0.390 OA
ATOM     41  H18 UNL     1      37.503   6.715  15.130  1.00  0.00     0.210 HD
ENDBRANCH  37  40
BRANCH  38  42
HETATM   42  O17 UNL     1      35.868   5.766  12.884  1.00  0.00    -0.390 OA
ATOM     43  H17 UNL     1      35.021   5.462  13.188  1.00  0.00     0.210 HD
ENDBRANCH  38  42
BRANCH  39  44
HETATM   44  O16 UNL     1      35.943   3.001  13.672  1.00  0.00    -0.388 OA
ATOM     45  H16 UNL     1      35.151   3.192  13.183  1.00  0.00     0.210 HD
ENDBRANCH  39  44
ENDBRANCH  32  33
ENDBRANCH   1  32
BRANCH   7  46
HETATM   46  O15 UNL     1      40.272   2.117  15.902  1.00  0.00    -0.390 OA
ATOM     47  H15 UNL     1      41.221   2.115  15.860  1.00  0.00     0.210 HD
ENDBRANCH   7  46
BRANCH   6  48
HETATM   48  O14 UNL     1      39.238   0.164  17.705  1.00  0.00    -0.390 OA
ATOM     49  H14 UNL     1      38.870   0.800  18.308  1.00  0.00     0.210 HD
ENDBRANCH   6  48
TORSDOF 16
ENDMDL
MODEL 3
REMARK VINA RESULT: -6.652951160      1.583      4.172
REMARK  16 active torsions:
REMARK  status: ('A' for Active; 'I' for Inactive)
REMARK    1  A    between atoms: C3_4  and  O2_5 
REMARK    2  A    between atoms: O2_5  and  C4_6 
REMARK    3  A    between atoms: C5_7  and  O3_8 
REMARK    4  A    between atoms: O3_8  and  C6_9 
REMARK    5  A    between atoms: C8_13  and  O6_14 
REMARK    6  A    between atoms: O6_14  and  C9_15 
REMARK    7  A    between atoms: C10_16  and  O7_17 
REMARK    8  A    between atoms: C11_19  and  O8_20 
REMARK    9  A    between atoms: C12_22  and  O9_23 
REMARK   10  A    between atoms: C14_27  and  O11_28 
REMARK   11  A    between atoms: O11_28  and  C15_29 
REMARK   12  A    between atoms: C19_35  and  O14_36 
REMARK   13  A    between atoms: C20_38  and  O15_39 
REMARK   14  A    between atoms: C21_41  and  O16_42 
REMARK   15  A    between atoms: C22_44  and  O17_45 
REMARK   16  A    between atoms: C23_47  and  O18_48 
ROOT
HETATM    1  C4  UNL     1      41.453   4.834  10.871  1.00  0.00     0.211 C 
HETATM    2  C5  UNL     1      40.966   4.466  12.284  1.00  0.00     0.295 C 
HETATM    3  O13 UNL     1      41.966   4.376  13.202  1.00  0.00    -0.351 OA
HETATM    4  C17 UNL     1      42.890   3.418  12.866  1.00  0.00     0.152 C 
HETATM    5  C18 UNL     1      42.272   2.044  13.065  1.00  0.00     0.042 C 
HETATM    6  C19 UNL     1      43.477   3.584  11.489  1.00  0.00     0.178 C 
HETATM    7  C20 UNL     1      42.377   3.702  10.462  1.00  0.00     0.183 C 
ENDROOT
BRANCH   2   8
HETATM    8  O3  UNL     1      40.037   3.465  12.260  1.00  0.00    -0.324 OA
BRANCH   8   9
HETATM    9  C6  UNL     1      39.105   3.487  13.260  1.00  0.00     0.320 C 
HETATM   10  O4  UNL     1      38.801   4.771  13.711  1.00  0.00    -0.332 OA
HETATM   11  C7  UNL     1      37.960   5.245  12.714  1.00  0.00     0.344 C 
HETATM   12  O5  UNL     1      37.320   4.174  12.118  1.00  0.00    -0.332 OA
HETATM   13  C8  UNL     1      37.720   3.032  12.856  1.00  0.00     0.318 C 
BRANCH  13  14
HETATM   14  O6  UNL     1      37.678   1.962  12.007  1.00  0.00    -0.348 OA
BRANCH  14  15
HETATM   15  C9  UNL     1      37.491   0.781  12.708  1.00  0.00     0.167 C 
HETATM   16  C10 UNL     1      36.344  -0.006  12.109  1.00  0.00     0.179 C 
HETATM   17  C11 UNL     1      35.991  -1.166  12.968  1.00  0.00     0.180 C 
HETATM   18  C12 UNL     1      37.110  -1.685  13.822  1.00  0.00     0.179 C 
HETATM   19  C13 UNL     1      38.469  -1.461  13.227  1.00  0.00     0.167 C 
HETATM   20  O10 UNL     1      38.653  -1.886  11.939  1.00  0.00    -0.352 OA
HETATM   21  C16 UNL     1      38.732  -0.019  12.882  1.00  0.00     0.105 C 
HETATM   22  C14 UNL     1      39.297  -0.676  11.662  1.00  0.00     0.278 C 
BRANCH  16  23
HETATM   23  O7  UNL     1      36.540  -0.310  10.769  1.00  0.00    -0.390 OA
ATOM     24  H7  UNL     1      36.082  -1.098  10.498  1.00  0.00     0.210 HD
ENDBRANCH  16  23
BRANCH  17  25
HETATM   25  O8  UNL     1      35.444  -2.173  12.145  1.00  0.00    -0.390 OA
ATOM     26  H8  UNL     1      34.499  -2.152  12.239  1.00  0.00     0.210 HD
ENDBRANCH  17  25
BRANCH  18  27
HETATM   27  O9  UNL     1      37.104  -1.147  15.108  1.00  0.00    -0.390 OA
ATOM     28  H9  UNL     1      37.289  -0.216  15.119  1.00  0.00     0.210 HD
ENDBRANCH  18  27
BRANCH  22  29
HETATM   29  O11 UNL     1      40.708  -0.749  11.752  1.00  0.00    -0.296 OA
BRANCH  29  30
HETATM   30  C15 UNL     1      41.517  -0.625  10.641  1.00  0.00     0.400 C 
HETATM   31  O12 UNL     1      41.854  -1.702  10.070  1.00  0.00    -0.276 OA
ENDBRANCH  29  30
ENDBRANCH  22  29
ENDBRANCH  14  15
ENDBRANCH  13  14
ENDBRANCH   8   9
ENDBRANCH   2   8
BRANCH   1  32
HETATM   32  O2  UNL     1      42.219   5.981  10.900  1.00  0.00    -0.346 OA
BRANCH  32  33
HETATM   33  C3  UNL     1      41.830   6.974  10.035  1.00  0.00     0.292 C 
HETATM   34  O1  UNL     1      41.560   6.444   8.761  1.00  0.00    -0.351 OA
HETATM   35  C2  UNL     1      41.027   7.381   7.905  1.00  0.00     0.152 C 
HETATM   36  C1  UNL     1      40.485   6.665   6.689  1.00  0.00     0.042 C 
HETATM   37  C23 UNL     1      42.099   8.385   7.541  1.00  0.00     0.178 C 
HETATM   38  C22 UNL     1      43.311   8.244   8.432  1.00  0.00     0.183 C 
HETATM   39  C21 UNL     1      42.949   7.977   9.862  1.00  0.00     0.204 C 
BRANCH  37  40
HETATM   40  O18 UNL     1      42.508   8.090   6.238  1.00  0.00    -0.390 OA
ATOM     41  H18 UNL     1      43.389   7.741   6.296  1.00  0.00     0.210 HD
ENDBRANCH  37  40
BRANCH  38  42
HETATM   42  O17 UNL     1      44.018   9.445   8.366  1.00  0.00    -0.390 OA
ATOM     43  H17 UNL     1      44.179   9.654   7.453  1.00  0.00     0.210 HD
ENDBRANCH  38  42
BRANCH  39  44
HETATM   44  O16 UNL     1      44.126   7.519  10.500  1.00  0.00    -0.388 OA
ATOM     45  H16 UNL     1      44.786   7.289   9.856  1.00  0.00     0.210 HD
ENDBRANCH  39  44
ENDBRANCH  32  33
ENDBRANCH   1  32
BRANCH   7  46
HETATM   46  O15 UNL     1      42.904   3.909   9.188  1.00  0.00    -0.390 OA
ATOM     47  H15 UNL     1      42.784   3.146   8.634  1.00  0.00     0.210 HD
ENDBRANCH   7  46
BRANCH   6  48
HETATM   48  O14 UNL     1      44.246   2.447  11.237  1.00  0.00    -0.390 OA
ATOM     49  H14 UNL     1      45.118   2.749  11.009  1.00  0.00     0.210 HD
ENDBRANCH   6  48
TORSDOF 16
ENDMDL
MODEL 4
REMARK VINA RESULT: -6.643836203      3.955      5.726
REMARK  16 active torsions:
REMARK  status: ('A' for Active; 'I' for Inactive)
REMARK    1  A    between atoms: C3_4  and  O2_5 
REMARK    2  A    between atoms: O2_5  and  C4_6 
REMARK    3  A    between atoms: C5_7  and  O3_8 
REMARK    4  A    between atoms: O3_8  and  C6_9 
REMARK    5  A    between atoms: C8_13  and  O6_14 
REMARK    6  A    between atoms: O6_14  and  C9_15 
REMARK    7  A    between atoms: C10_16  and  O7_17 
REMARK    8  A    between atoms: C11_19  and  O8_20 
REMARK    9  A    between atoms: C12_22  and  O9_23 
REMARK   10  A    between atoms: C14_27  and  O11_28 
REMARK   11  A    between atoms: O11_28  and  C15_29 
REMARK   12  A    between atoms: C19_35  and  O14_36 
REMARK   13  A    between atoms: C20_38  and  O15_39 
REMARK   14  A    between atoms: C21_41  and  O16_42 
REMARK   15  A    between atoms: C22_44  and  O17_45 
REMARK   16  A    between atoms: C23_47  and  O18_48 
ROOT
HETATM    1  C4  UNL     1      39.391  -0.648  14.146  1.00  0.00     0.211 C 
HETATM    2  C5  UNL     1      38.682  -1.960  14.527  1.00  0.00     0.295 C 
HETATM    3  O13 UNL     1      38.239  -1.990  15.813  1.00  0.00    -0.351 OA
HETATM    4  C17 UNL     1      39.263  -1.846  16.715  1.00  0.00     0.152 C 
HETATM    5  C18 UNL     1      40.093  -3.119  16.728  1.00  0.00     0.042 C 
HETATM    6  C19 UNL     1      40.109  -0.618  16.497  1.00  0.00     0.178 C 
HETATM    7  C20 UNL     1      40.593  -0.564  15.068  1.00  0.00     0.183 C 
ENDROOT
BRANCH   2   8
HETATM    8  O3  UNL     1      39.351  -3.056  14.062  1.00  0.00    -0.324 OA
BRANCH   8   9
HETATM    9  C6  UNL     1      39.143  -3.373  12.749  1.00  0.00     0.320 C 
HETATM   10  O4  UNL     1      40.317  -3.466  12.004  1.00  0.00    -0.332 OA
HETATM   11  C7  UNL     1      40.811  -4.708  12.380  1.00  0.00     0.344 C 
HETATM   12  O5  UNL     1      39.754  -5.515  12.761  1.00  0.00    -0.332 OA
HETATM   13  C8  UNL     1      38.584  -4.758  12.504  1.00  0.00     0.318 C 
BRANCH  13  14
HETATM   14  O6  UNL     1      37.628  -5.171  13.390  1.00  0.00    -0.348 OA
BRANCH  14  15
HETATM   15  C9  UNL     1      36.585  -5.803  12.734  1.00  0.00     0.167 C 
HETATM   16  C10 UNL     1      35.599  -6.363  13.739  1.00  0.00     0.179 C 
HETATM   17  C11 UNL     1      34.589  -7.224  13.068  1.00  0.00     0.180 C 
HETATM   18  C12 UNL     1      34.342  -6.900  11.624  1.00  0.00     0.179 C 
HETATM   19  C13 UNL     1      34.576  -5.458  11.287  1.00  0.00     0.167 C 
HETATM   20  O10 UNL     1      33.940  -4.532  12.069  1.00  0.00    -0.352 OA
HETATM   21  C16 UNL     1      35.947  -4.974  11.677  1.00  0.00     0.105 C 
HETATM   22  C14 UNL     1      35.131  -3.804  12.127  1.00  0.00     0.278 C 
BRANCH  16  23
HETATM   23  O7  UNL     1      35.073  -5.392  14.578  1.00  0.00    -0.390 OA
ATOM     24  H7  UNL     1      34.770  -5.744  15.407  1.00  0.00     0.210 HD
ENDBRANCH  16  23
BRANCH  17  25
HETATM   25  O8  UNL     1      33.402  -7.184  13.830  1.00  0.00    -0.390 OA
ATOM     26  H8  UNL     1      32.954  -8.015  13.722  1.00  0.00     0.210 HD
ENDBRANCH  17  25
BRANCH  18  27
HETATM   27  O9  UNL     1      35.104  -7.680  10.756  1.00  0.00    -0.390 OA
ATOM     28  H9  UNL     1      35.854  -7.215  10.405  1.00  0.00     0.210 HD
ENDBRANCH  18  27
BRANCH  22  29
HETATM   29  O11 UNL     1      35.207  -2.758  11.175  1.00  0.00    -0.296 OA
BRANCH  29  30
HETATM   30  C15 UNL     1      35.609  -1.485  11.521  1.00  0.00     0.400 C 
HETATM   31  O12 UNL     1      35.133  -0.539  10.830  1.00  0.00    -0.276 OA
ENDBRANCH  29  30
ENDBRANCH  22  29
ENDBRANCH  14  15
ENDBRANCH  13  14
ENDBRANCH   8   9
ENDBRANCH   2   8
BRANCH   1  32
HETATM   32  O2  UNL     1      38.594   0.441  14.433  1.00  0.00    -0.346 OA
BRANCH  32  33
HETATM   33  C3  UNL     1      38.983   1.627  13.860  1.00  0.00     0.292 C 
HETATM   34  O1  UNL     1      39.149   2.621  14.842  1.00  0.00    -0.351 OA
HETATM   35  C2  UNL     1      39.680   3.783  14.328  1.00  0.00     0.152 C 
HETATM   36  C1  UNL     1      40.110   4.662  15.479  1.00  0.00     0.042 C 
HETATM   37  C23 UNL     1      38.642   4.456  13.456  1.00  0.00     0.178 C 
HETATM   38  C22 UNL     1      37.479   3.534  13.171  1.00  0.00     0.183 C 
HETATM   39  C21 UNL     1      37.910   2.122  12.916  1.00  0.00     0.204 C 
BRANCH  37  40
HETATM   40  O18 UNL     1      38.143   5.540  14.182  1.00  0.00    -0.390 OA
ATOM     41  H18 UNL     1      38.883   6.097  14.395  1.00  0.00     0.210 HD
ENDBRANCH  37  40
BRANCH  38  42
HETATM   42  O17 UNL     1      36.834   4.019  12.032  1.00  0.00    -0.390 OA
ATOM     43  H17 UNL     1      36.626   4.936  12.167  1.00  0.00     0.210 HD
ENDBRANCH  38  42
BRANCH  39  44
HETATM   44  O16 UNL     1      36.751   1.319  13.020  1.00  0.00    -0.388 OA
ATOM     45  H16 UNL     1      36.528   0.945  12.176  1.00  0.00     0.210 HD
ENDBRANCH  39  44
ENDBRANCH  32  33
ENDBRANCH   1  32
BRANCH   7  46
HETATM   46  O15 UNL     1      41.334   0.594  14.836  1.00  0.00    -0.390 OA
ATOM     47  H15 UNL     1      42.241   0.393  14.639  1.00  0.00     0.210 HD
ENDBRANCH   7  46
BRANCH   6  48
HETATM   48  O14 UNL     1      41.195  -0.716  17.366  1.00  0.00    -0.390 OA
ATOM     49  H14 UNL     1      41.957  -0.917  16.834  1.00  0.00     0.210 HD
ENDBRANCH   6  48
TORSDOF 16
ENDMDL
MODEL 5
REMARK VINA RESULT: -6.568950953      3.515      5.730
REMARK  16 active torsions:
REMARK  status: ('A' for Active; 'I' for Inactive)
REMARK    1  A    between atoms: C3_4  and  O2_5 
REMARK    2  A    between atoms: O2_5  and  C4_6 
REMARK    3  A    between atoms: C5_7  and  O3_8 
REMARK    4  A    between atoms: O3_8  and  C6_9 
REMARK    5  A    between atoms: C8_13  and  O6_14 
REMARK    6  A    between atoms: O6_14  and  C9_15 
REMARK    7  A    between atoms: C10_16  and  O7_17 
REMARK    8  A    between atoms: C11_19  and  O8_20 
REMARK    9  A    between atoms: C12_22  and  O9_23 
REMARK   10  A    between atoms: C14_27  and  O11_28 
REMARK   11  A    between atoms: O11_28  and  C15_29 
REMARK   12  A    between atoms: C19_35  and  O14_36 
REMARK   13  A    between atoms: C20_38  and  O15_39 
REMARK   14  A    between atoms: C21_41  and  O16_42 
REMARK   15  A    between atoms: C22_44  and  O17_45 
REMARK   16  A    between atoms: C23_47  and  O18_48 
ROOT
HETATM    1  C4  UNL     1      40.311  -1.435  14.230  1.00  0.00     0.211 C 
HETATM    2  C5  UNL     1      39.344  -2.562  14.636  1.00  0.00     0.295 C 
HETATM    3  O13 UNL     1      38.986  -2.531  15.947  1.00  0.00    -0.351 OA
HETATM    4  C17 UNL     1      40.070  -2.653  16.781  1.00  0.00     0.152 C 
HETATM    5  C18 UNL     1      40.583  -4.082  16.718  1.00  0.00     0.042 C 
HETATM    6  C19 UNL     1      41.160  -1.645  16.527  1.00  0.00     0.178 C 
HETATM    7  C20 UNL     1      41.555  -1.658  15.070  1.00  0.00     0.183 C 
ENDROOT
BRANCH   2   8
HETATM    8  O3  UNL     1      39.713  -3.767  14.108  1.00  0.00    -0.324 OA
BRANCH   8   9
HETATM    9  C6  UNL     1      39.445  -3.947  12.780  1.00  0.00     0.320 C 
HETATM   10  O4  UNL     1      40.577  -4.223  12.015  1.00  0.00    -0.332 OA
HETATM   11  C7  UNL     1      40.813  -5.561  12.303  1.00  0.00     0.344 C 
HETATM   12  O5  UNL     1      39.617  -6.164  12.644  1.00  0.00    -0.332 OA
HETATM   13  C8  UNL     1      38.621  -5.174  12.453  1.00  0.00     0.318 C 
BRANCH  13  14
HETATM   14  O6  UNL     1      37.603  -5.446  13.324  1.00  0.00    -0.348 OA
BRANCH  14  15
HETATM   15  C9  UNL     1      36.528  -6.021  12.664  1.00  0.00     0.167 C 
HETATM   16  C10 UNL     1      35.523  -6.551  13.666  1.00  0.00     0.179 C 
HETATM   17  C11 UNL     1      34.472  -7.355  12.989  1.00  0.00     0.180 C 
HETATM   18  C12 UNL     1      34.232  -6.999  11.551  1.00  0.00     0.179 C 
HETATM   19  C13 UNL     1      34.529  -5.563  11.234  1.00  0.00     0.167 C 
HETATM   20  O10 UNL     1      33.940  -4.623  12.033  1.00  0.00    -0.352 OA
HETATM   21  C16 UNL     1      35.923  -5.148  11.623  1.00  0.00     0.105 C 
HETATM   22  C14 UNL     1      35.163  -3.949  12.095  1.00  0.00     0.278 C 
BRANCH  16  23
HETATM   23  O7  UNL     1      35.046  -5.570  14.523  1.00  0.00    -0.390 OA
ATOM     24  H7  UNL     1      35.465  -4.727  14.390  1.00  0.00     0.210 HD
ENDBRANCH  16  23
BRANCH  17  25
HETATM   25  O8  UNL     1      33.292  -7.274  13.758  1.00  0.00    -0.390 OA
ATOM     26  H8  UNL     1      33.110  -8.136  14.111  1.00  0.00     0.210 HD
ENDBRANCH  17  25
BRANCH  18  27
HETATM   27  O9  UNL     1      34.954  -7.799  10.667  1.00  0.00    -0.390 OA
ATOM     28  H9  UNL     1      35.679  -7.339  10.261  1.00  0.00     0.210 HD
ENDBRANCH  18  27
BRANCH  22  29
HETATM   29  O11 UNL     1      35.281  -2.893  11.159  1.00  0.00    -0.296 OA
BRANCH  29  30
HETATM   30  C15 UNL     1      35.545  -1.597  11.550  1.00  0.00     0.400 C 
HETATM   31  O12 UNL     1      35.118  -0.683  10.788  1.00  0.00    -0.276 OA
ENDBRANCH  29  30
ENDBRANCH  22  29
ENDBRANCH  14  15
ENDBRANCH  13  14
ENDBRANCH   8   9
ENDBRANCH   2   8
BRANCH   1  32
HETATM   32  O2  UNL     1      39.805  -0.203  14.588  1.00  0.00    -0.346 OA
BRANCH  32  33
HETATM   33  C3  UNL     1      39.412   0.601  13.545  1.00  0.00     0.292 C 
HETATM   34  O1  UNL     1      40.158   1.793  13.530  1.00  0.00    -0.351 OA
HETATM   35  C2  UNL     1      39.897   2.561  12.418  1.00  0.00     0.152 C 
HETATM   36  C1  UNL     1      40.949   3.642  12.326  1.00  0.00     0.042 C 
HETATM   37  C23 UNL     1      38.502   3.135  12.529  1.00  0.00     0.178 C 
HETATM   38  C22 UNL     1      37.721   2.473  13.640  1.00  0.00     0.183 C 
HETATM   39  C21 UNL     1      37.962   0.996  13.716  1.00  0.00     0.204 C 
BRANCH  37  40
HETATM   40  O18 UNL     1      38.641   4.483  12.867  1.00  0.00    -0.390 OA
ATOM     41  H18 UNL     1      38.798   4.519  13.804  1.00  0.00     0.210 HD
ENDBRANCH  37  40
BRANCH  38  42
HETATM   42  O17 UNL     1      36.366   2.694  13.385  1.00  0.00    -0.390 OA
ATOM     43  H17 UNL     1      35.912   2.793  14.213  1.00  0.00     0.210 HD
ENDBRANCH  38  42
BRANCH  39  44
HETATM   44  O16 UNL     1      37.478   0.570  14.975  1.00  0.00    -0.388 OA
ATOM     45  H16 UNL     1      38.038   0.889  15.672  1.00  0.00     0.210 HD
ENDBRANCH  39  44
ENDBRANCH  32  33
ENDBRANCH   1  32
BRANCH   7  46
HETATM   46  O15 UNL     1      42.526  -0.693  14.808  1.00  0.00    -0.390 OA
ATOM     47  H15 UNL     1      43.351  -1.090  14.556  1.00  0.00     0.210 HD
ENDBRANCH   7  46
BRANCH   6  48
HETATM   48  O14 UNL     1      42.246  -2.015  17.320  1.00  0.00    -0.390 OA
ATOM     49  H14 UNL     1      42.535  -1.232  17.775  1.00  0.00     0.210 HD
ENDBRANCH   6  48
TORSDOF 16
ENDMDL
