MODEL 1
REMARK VINA RESULT: -7.013529614      0.000      0.000
REMARK  16 active torsions:
REMARK  status: ('A' for Active; 'I' for Inactive)
REMARK    1  A    between atoms: O1_2  and  C2_3 
REMARK    2  A    between atoms: C5_8  and  O4_9 
REMARK    3  A    between atoms: O4_9  and  C6_10 
REMARK    4  A    between atoms: C7_11  and  N1_12 
REMARK    5  A    between atoms: C9_17  and  N2_18 
REMARK    6  A    between atoms: C10_22  and  O5_23 
REMARK    7  A    between atoms: O5_23  and  C11_24 
REMARK    8  A    between atoms: C12_26  and  O7_27 
REMARK    9  A    between atoms: O7_27  and  C13_28 
REMARK   10  A    between atoms: C16_32  and  N3_33 
REMARK   11  A    between atoms: C17_37  and  O9_38 
REMARK   12  A    between atoms: C18_40  and  O10_41 
REMARK   13  A    between atoms: C19_43  and  N4_44 
REMARK   14  A    between atoms: C21_49  and  N5_50 
REMARK   15  A    between atoms: C22_54  and  O11_55 
REMARK   16  A    between atoms: C23_57  and  O12_58 
ROOT
HETATM    1  C11 UNL     1      40.461   4.963  12.109  1.00  0.00     0.294 C 
HETATM    2  O6  UNL     1      40.336   5.559  10.851  1.00  0.00    -0.327 OA
HETATM    3  C12 UNL     1      41.090   6.695  10.671  1.00  0.00     0.296 C 
HETATM    4  C19 UNL     1      41.602   7.298  11.942  1.00  0.00     0.240 C 
HETATM    5  C20 UNL     1      40.408   7.351  12.893  1.00  0.00     0.075 C 
HETATM    6  C21 UNL     1      39.882   5.959  13.122  1.00  0.00     0.240 C 
ENDROOT
BRANCH   1   7
HETATM    7  O5  UNL     1      39.771   3.814  12.054  1.00  0.00    -0.349 OA
BRANCH   7   8
HETATM    8  C10 UNL     1      40.113   2.693  12.666  1.00  0.00     0.186 C 
HETATM    9  C9  UNL     1      39.507   2.349  13.986  1.00  0.00     0.217 C 
HETATM   10  C8  UNL     1      38.003   2.300  13.956  1.00  0.00     0.071 C 
HETATM   11  C7  UNL     1      37.575   1.857  12.576  1.00  0.00     0.217 C 
HETATM   12  C6  UNL     1      38.506   0.891  11.929  1.00  0.00     0.186 C 
HETATM   13  C22 UNL     1      39.859   1.514  11.744  1.00  0.00     0.180 C 
BRANCH   9  14
HETATM   14  N2  UNL     1      40.029   3.121  15.089  1.00  0.00    -0.072 N 
ATOM     15  H23 UNL     1      40.964   3.469  14.878  1.00  0.00     0.274 HD
ATOM     16  H22 UNL     1      39.534   4.009  15.177  1.00  0.00     0.274 HD
ATOM     17  H21 UNL     1      40.022   2.613  15.974  1.00  0.00     0.274 HD
ENDBRANCH   9  14
BRANCH  11  18
HETATM   18  N1  UNL     1      36.203   1.414  12.670  1.00  0.00    -0.072 N 
ATOM     19  H13 UNL     1      36.158   0.501  13.122  1.00  0.00     0.274 HD
ATOM     20  H12 UNL     1      35.699   1.978  13.355  1.00  0.00     0.274 HD
ATOM     21  H11 UNL     1      35.693   1.395  11.787  1.00  0.00     0.274 HD
ENDBRANCH  11  18
BRANCH  12  22
HETATM   22  O4  UNL     1      38.500  -0.297  12.595  1.00  0.00    -0.348 OA
BRANCH  22  23
HETATM   23  C5  UNL     1      38.246  -1.433  11.893  1.00  0.00     0.297 C 
HETATM   24  O3  UNL     1      39.493  -2.127  11.907  1.00  0.00    -0.329 OA
HETATM   25  C3  UNL     1      39.755  -2.747  13.085  1.00  0.00     0.262 C 
HETATM   26  O2  UNL     1      38.886  -2.697  14.094  1.00  0.00    -0.329 OA
HETATM   27  C4  UNL     1      40.052  -4.205  12.780  1.00  0.00     0.071 C 
HETATM   28  C2  UNL     1      37.563  -2.590  13.896  1.00  0.00     0.295 C 
HETATM   29  C23 UNL     1      37.277  -2.417  12.424  1.00  0.00     0.231 C 
BRANCH  28  30
HETATM   30  O1  UNL     1      36.810  -3.678  14.327  1.00  0.00    -0.363 OA
HETATM   31  C1  UNL     1      36.855  -4.733  13.418  1.00  0.00     0.204 C 
ENDBRANCH  28  30
BRANCH  29  32
HETATM   32  O12 UNL     1      35.960  -2.229  12.134  1.00  0.00    -0.381 OA
HETATM   33  C24 UNL     1      35.759  -1.584  10.917  1.00  0.00     0.202 C 
ENDBRANCH  29  32
ENDBRANCH  22  23
ENDBRANCH  12  22
BRANCH  13  34
HETATM   34  O11 UNL     1      40.897   0.623  11.864  1.00  0.00    -0.390 OA
ATOM     35  H11 UNL     1      40.628  -0.287  11.797  1.00  0.00     0.210 HD
ENDBRANCH  13  34
ENDBRANCH   7   8
ENDBRANCH   1   7
BRANCH   6  36
HETATM   36  N5  UNL     1      38.437   5.908  13.123  1.00  0.00    -0.070 N 
ATOM     37  H53 UNL     1      38.031   6.702  13.620  1.00  0.00     0.274 HD
ATOM     38  H52 UNL     1      38.052   6.094  12.196  1.00  0.00     0.274 HD
ATOM     39  H51 UNL     1      38.106   5.020  13.497  1.00  0.00     0.274 HD
ENDBRANCH   6  36
BRANCH   3  40
HETATM   40  O7  UNL     1      42.102   6.421   9.734  1.00  0.00    -0.327 OA
BRANCH  40  41
HETATM   41  C13 UNL     1      41.956   7.114   8.559  1.00  0.00     0.294 C 
HETATM   42  O8  UNL     1      41.225   8.310   8.742  1.00  0.00    -0.351 OA
HETATM   43  C14 UNL     1      41.380   9.157   7.673  1.00  0.00     0.153 C 
HETATM   44  C15 UNL     1      40.081   9.847   7.303  1.00  0.00     0.042 C 
HETATM   45  C16 UNL     1      41.968   8.539   6.452  1.00  0.00     0.243 C 
HETATM   46  C17 UNL     1      41.499   7.138   6.180  1.00  0.00     0.184 C 
HETATM   47  C18 UNL     1      41.267   6.362   7.471  1.00  0.00     0.204 C 
BRANCH  45  48
HETATM   48  N3  UNL     1      41.575   9.371   5.305  1.00  0.00    -0.070 N 
ATOM     49  H33 UNL     1      41.590   8.863   4.421  1.00  0.00     0.274 HD
ATOM     50  H32 UNL     1      40.583   9.607   5.306  1.00  0.00     0.274 HD
ATOM     51  H31 UNL     1      42.180  10.192   5.303  1.00  0.00     0.274 HD
ENDBRANCH  45  48
BRANCH  46  52
HETATM   52  O9  UNL     1      42.510   6.502   5.448  1.00  0.00    -0.391 OA
ATOM     53  H9  UNL     1      42.483   5.580   5.678  1.00  0.00     0.210 HD
ENDBRANCH  46  52
BRANCH  47  54
HETATM   54  O10 UNL     1      39.882   6.450   7.717  1.00  0.00    -0.388 OA
ATOM     55  H10 UNL     1      39.496   6.910   6.981  1.00  0.00     0.210 HD
ENDBRANCH  47  54
ENDBRANCH  40  41
ENDBRANCH   3  40
BRANCH   4  56
HETATM   56  N4  UNL     1      42.105   8.639  11.705  1.00  0.00    -0.070 N 
ATOM     57  H43 UNL     1      41.349   9.322  11.646  1.00  0.00     0.274 HD
ATOM     58  H42 UNL     1      42.585   9.014  12.524  1.00  0.00     0.274 HD
ATOM     59  H41 UNL     1      42.698   8.660  10.876  1.00  0.00     0.274 HD
ENDBRANCH   4  56
TORSDOF 16
ENDMDL
MODEL 2
REMARK VINA RESULT: -6.980952928      3.855      9.587
REMARK  16 active torsions:
REMARK  status: ('A' for Active; 'I' for Inactive)
REMARK    1  A    between atoms: O1_2  and  C2_3 
REMARK    2  A    between atoms: C5_8  and  O4_9 
REMARK    3  A    between atoms: O4_9  and  C6_10 
REMARK    4  A    between atoms: C7_11  and  N1_12 
REMARK    5  A    between atoms: C9_17  and  N2_18 
REMARK    6  A    between atoms: C10_22  and  O5_23 
REMARK    7  A    between atoms: O5_23  and  C11_24 
REMARK    8  A    between atoms: C12_26  and  O7_27 
REMARK    9  A    between atoms: O7_27  and  C13_28 
REMARK   10  A    between atoms: C16_32  and  N3_33 
REMARK   11  A    between atoms: C17_37  and  O9_38 
REMARK   12  A    between atoms: C18_40  and  O10_41 
REMARK   13  A    between atoms: C19_43  and  N4_44 
REMARK   14  A    between atoms: C21_49  and  N5_50 
REMARK   15  A    between atoms: C22_54  and  O11_55 
REMARK   16  A    between atoms: C23_57  and  O12_58 
ROOT
HETATM    1  C11 UNL     1      41.466   1.182  12.507  1.00  0.00     0.294 C 
HETATM    2  O6  UNL     1      40.257   0.531  12.241  1.00  0.00    -0.327 OA
HETATM    3  C12 UNL     1      40.329  -0.843  12.234  1.00  0.00     0.296 C 
HETATM    4  C19 UNL     1      41.721  -1.383  12.132  1.00  0.00     0.240 C 
HETATM    5  C20 UNL     1      42.392  -0.606  11.001  1.00  0.00     0.075 C 
HETATM    6  C21 UNL     1      42.399   0.864  11.332  1.00  0.00     0.240 C 
ENDROOT
BRANCH   1   7
HETATM    7  O5  UNL     1      41.178   2.488  12.606  1.00  0.00    -0.349 OA
BRANCH   7   8
HETATM    8  C10 UNL     1      39.983   2.983  12.886  1.00  0.00     0.186 C 
HETATM    9  C9  UNL     1      39.463   2.929  14.283  1.00  0.00     0.217 C 
HETATM   10  C8  UNL     1      40.370   3.592  15.284  1.00  0.00     0.071 C 
HETATM   11  C7  UNL     1      41.091   4.724  14.586  1.00  0.00     0.217 C 
HETATM   12  C6  UNL     1      40.285   5.403  13.534  1.00  0.00     0.186 C 
HETATM   13  C22 UNL     1      39.922   4.435  12.447  1.00  0.00     0.180 C 
BRANCH   9  14
HETATM   14  N2  UNL     1      39.025   1.616  14.696  1.00  0.00    -0.072 N 
ATOM     15  H23 UNL     1      39.820   1.038  14.968  1.00  0.00     0.274 HD
ATOM     16  H22 UNL     1      38.535   1.661  15.590  1.00  0.00     0.274 HD
ATOM     17  H21 UNL     1      38.455   1.144  13.993  1.00  0.00     0.274 HD
ENDBRANCH   9  14
BRANCH  11  18
HETATM   18  N1  UNL     1      41.621   5.595  15.610  1.00  0.00    -0.072 N 
ATOM     19  H13 UNL     1      40.859   6.026  16.133  1.00  0.00     0.274 HD
ATOM     20  H12 UNL     1      42.056   5.043  16.350  1.00  0.00     0.274 HD
ATOM     21  H11 UNL     1      42.268   6.310  15.277  1.00  0.00     0.274 HD
ENDBRANCH  11  18
BRANCH  12  22
HETATM   22  O4  UNL     1      39.237   6.070  14.093  1.00  0.00    -0.348 OA
BRANCH  22  23
HETATM   23  C5  UNL     1      39.040   7.372  13.754  1.00  0.00     0.297 C 
HETATM   24  O3  UNL     1      37.867   7.338  12.944  1.00  0.00    -0.329 OA
HETATM   25  C3  UNL     1      36.720   7.206  13.657  1.00  0.00     0.262 C 
HETATM   26  O2  UNL     1      36.743   7.138  14.987  1.00  0.00    -0.329 OA
HETATM   27  C4  UNL     1      35.794   8.341  13.251  1.00  0.00     0.071 C 
HETATM   28  C2  UNL     1      37.692   7.742  15.719  1.00  0.00     0.295 C 
HETATM   29  C23 UNL     1      38.726   8.360  14.809  1.00  0.00     0.231 C 
BRANCH  28  30
HETATM   30  O1  UNL     1      37.236   8.756  16.558  1.00  0.00    -0.363 OA
HETATM   31  C1  UNL     1      37.221   8.358  17.892  1.00  0.00     0.204 C 
ENDBRANCH  28  30
BRANCH  29  32
HETATM   32  O12 UNL     1      39.769   8.938  15.468  1.00  0.00    -0.381 OA
HETATM   33  C24 UNL     1      40.903   9.077  14.672  1.00  0.00     0.202 C 
ENDBRANCH  29  32
ENDBRANCH  22  23
ENDBRANCH  12  22
BRANCH  13  34
HETATM   34  O11 UNL     1      38.694   4.677  11.881  1.00  0.00    -0.390 OA
ATOM     35  H11 UNL     1      38.010   4.095  12.191  1.00  0.00     0.210 HD
ENDBRANCH  13  34
ENDBRANCH   7   8
ENDBRANCH   1   7
BRANCH   6  36
HETATM   36  N5  UNL     1      42.082   1.689  10.187  1.00  0.00    -0.070 N 
ATOM     37  H53 UNL     1      42.437   2.639  10.297  1.00  0.00     0.274 HD
ATOM     38  H52 UNL     1      42.621   1.417   9.365  1.00  0.00     0.274 HD
ATOM     39  H51 UNL     1      41.079   1.680  10.001  1.00  0.00     0.274 HD
ENDBRANCH   6  36
BRANCH   3  40
HETATM   40  O7  UNL     1      39.616  -1.337  13.341  1.00  0.00    -0.327 OA
BRANCH  40  41
HETATM   41  C13 UNL     1      38.358  -1.780  13.022  1.00  0.00     0.294 C 
HETATM   42  O8  UNL     1      37.800  -1.050  11.949  1.00  0.00    -0.351 OA
HETATM   43  C14 UNL     1      36.721  -1.704  11.409  1.00  0.00     0.153 C 
HETATM   44  C15 UNL     1      35.598  -0.749  11.053  1.00  0.00     0.042 C 
HETATM   45  C16 UNL     1      36.171  -2.814  12.236  1.00  0.00     0.243 C 
HETATM   46  C17 UNL     1      36.164  -2.541  13.713  1.00  0.00     0.184 C 
HETATM   47  C18 UNL     1      37.370  -1.711  14.137  1.00  0.00     0.204 C 
BRANCH  45  48
HETATM   48  N3  UNL     1      34.778  -3.028  11.816  1.00  0.00    -0.070 N 
ATOM     49  H33 UNL     1      34.354  -2.196  11.405  1.00  0.00     0.274 HD
ATOM     50  H32 UNL     1      34.697  -3.634  11.000  1.00  0.00     0.274 HD
ATOM     51  H31 UNL     1      34.266  -3.379  12.624  1.00  0.00     0.274 HD
ENDBRANCH  45  48
BRANCH  46  52
HETATM   52  O9  UNL     1      36.222  -3.782  14.360  1.00  0.00    -0.391 OA
ATOM     53  H9  UNL     1      37.096  -4.127  14.224  1.00  0.00     0.210 HD
ENDBRANCH  46  52
BRANCH  47  54
HETATM   54  O10 UNL     1      36.906  -0.382  14.200  1.00  0.00    -0.388 OA
ATOM     55  H10 UNL     1      37.532   0.108  14.721  1.00  0.00     0.210 HD
ENDBRANCH  47  54
ENDBRANCH  40  41
ENDBRANCH   3  40
BRANCH   4  56
HETATM   56  N4  UNL     1      41.698  -2.799  11.812  1.00  0.00    -0.070 N 
ATOM     57  H43 UNL     1      42.067  -3.365  12.575  1.00  0.00     0.274 HD
ATOM     58  H42 UNL     1      40.747  -3.168  11.794  1.00  0.00     0.274 HD
ATOM     59  H41 UNL     1      42.190  -2.977  10.936  1.00  0.00     0.274 HD
ENDBRANCH   4  56
TORSDOF 16
ENDMDL
MODEL 3
REMARK VINA RESULT: -6.927374105      2.443      9.742
REMARK  16 active torsions:
REMARK  status: ('A' for Active; 'I' for Inactive)
REMARK    1  A    between atoms: O1_2  and  C2_3 
REMARK    2  A    between atoms: C5_8  and  O4_9 
REMARK    3  A    between atoms: O4_9  and  C6_10 
REMARK    4  A    between atoms: C7_11  and  N1_12 
REMARK    5  A    between atoms: C9_17  and  N2_18 
REMARK    6  A    between atoms: C10_22  and  O5_23 
REMARK    7  A    between atoms: O5_23  and  C11_24 
REMARK    8  A    between atoms: C12_26  and  O7_27 
REMARK    9  A    between atoms: O7_27  and  C13_28 
REMARK   10  A    between atoms: C16_32  and  N3_33 
REMARK   11  A    between atoms: C17_37  and  O9_38 
REMARK   12  A    between atoms: C18_40  and  O10_41 
REMARK   13  A    between atoms: C19_43  and  N4_44 
REMARK   14  A    between atoms: C21_49  and  N5_50 
REMARK   15  A    between atoms: C22_54  and  O11_55 
REMARK   16  A    between atoms: C23_57  and  O12_58 
ROOT
HETATM    1  C11 UNL     1      40.583   1.330  14.548  1.00  0.00     0.294 C 
HETATM    2  O6  UNL     1      39.843   0.404  13.807  1.00  0.00    -0.327 OA
HETATM    3  C12 UNL     1      38.829  -0.214  14.499  1.00  0.00     0.296 C 
HETATM    4  C19 UNL     1      38.932  -0.081  15.987  1.00  0.00     0.240 C 
HETATM    5  C20 UNL     1      40.379  -0.422  16.340  1.00  0.00     0.075 C 
HETATM    6  C21 UNL     1      41.310   0.533  15.639  1.00  0.00     0.240 C 
ENDROOT
BRANCH   1   7
HETATM    7  O5  UNL     1      41.424   1.920  13.686  1.00  0.00    -0.349 OA
BRANCH   7   8
HETATM    8  C10 UNL     1      41.088   2.378  12.491  1.00  0.00     0.186 C 
HETATM    9  C9  UNL     1      40.027   3.420  12.363  1.00  0.00     0.217 C 
HETATM   10  C8  UNL     1      40.315   4.665  13.158  1.00  0.00     0.071 C 
HETATM   11  C7  UNL     1      41.814   4.846  13.221  1.00  0.00     0.217 C 
HETATM   12  C6  UNL     1      42.535   4.387  12.001  1.00  0.00     0.186 C 
HETATM   13  C22 UNL     1      42.322   2.917  11.790  1.00  0.00     0.180 C 
BRANCH   9  14
HETATM   14  N2  UNL     1      38.687   2.918  12.558  1.00  0.00    -0.072 N 
ATOM     15  H23 UNL     1      38.178   3.493  13.230  1.00  0.00     0.274 HD
ATOM     16  H22 UNL     1      38.114   3.082  11.729  1.00  0.00     0.274 HD
ATOM     17  H21 UNL     1      38.661   1.935  12.828  1.00  0.00     0.274 HD
ENDBRANCH   9  14
BRANCH  11  18
HETATM   18  N1  UNL     1      42.068   6.216  13.604  1.00  0.00    -0.072 N 
ATOM     19  H13 UNL     1      41.831   6.845  12.837  1.00  0.00     0.274 HD
ATOM     20  H12 UNL     1      41.387   6.518  14.300  1.00  0.00     0.274 HD
ATOM     21  H11 UNL     1      43.015   6.404  13.933  1.00  0.00     0.274 HD
ENDBRANCH  11  18
BRANCH  12  22
HETATM   22  O4  UNL     1      42.223   5.179  10.937  1.00  0.00    -0.348 OA
BRANCH  22  23
HETATM   23  C5  UNL     1      43.225   5.861  10.320  1.00  0.00     0.297 C 
HETATM   24  O3  UNL     1      43.504   5.078   9.161  1.00  0.00    -0.329 OA
HETATM   25  C3  UNL     1      42.594   5.238   8.167  1.00  0.00     0.262 C 
HETATM   26  O2  UNL     1      41.567   6.074   8.306  1.00  0.00    -0.329 OA
HETATM   27  C4  UNL     1      43.353   5.618   6.906  1.00  0.00     0.071 C 
HETATM   28  C2  UNL     1      41.638   7.177   9.069  1.00  0.00     0.295 C 
HETATM   29  C23 UNL     1      42.964   7.217   9.790  1.00  0.00     0.231 C 
BRANCH  28  30
HETATM   30  O1  UNL     1      41.517   8.381   8.381  1.00  0.00    -0.363 OA
HETATM   31  C1  UNL     1      40.693   8.261   7.264  1.00  0.00     0.204 C 
ENDBRANCH  28  30
BRANCH  29  32
HETATM   32  O12 UNL     1      43.097   8.268  10.644  1.00  0.00    -0.381 OA
HETATM   33  C24 UNL     1      44.251   8.194  11.420  1.00  0.00     0.202 C 
ENDBRANCH  29  32
ENDBRANCH  22  23
ENDBRANCH  12  22
BRANCH  13  34
HETATM   34  O11 UNL     1      42.278   2.551  10.467  1.00  0.00    -0.390 OA
ATOM     35  H11 UNL     1      42.896   1.866  10.240  1.00  0.00     0.210 HD
ENDBRANCH  13  34
ENDBRANCH   7   8
ENDBRANCH   1   7
BRANCH   6  36
HETATM   36  N5  UNL     1      42.476  -0.130  15.099  1.00  0.00    -0.070 N 
ATOM     37  H53 UNL     1      42.933   0.435  14.382  1.00  0.00     0.274 HD
ATOM     38  H52 UNL     1      43.238  -0.163  15.777  1.00  0.00     0.274 HD
ATOM     39  H51 UNL     1      42.238  -1.059  14.753  1.00  0.00     0.274 HD
ENDBRANCH   6  36
BRANCH   3  40
HETATM   40  O7  UNL     1      37.597   0.224  13.982  1.00  0.00    -0.327 OA
BRANCH  40  41
HETATM   41  C13 UNL     1      36.934  -0.741  13.267  1.00  0.00     0.294 C 
HETATM   42  O8  UNL     1      37.356  -2.042  13.623  1.00  0.00    -0.351 OA
HETATM   43  C14 UNL     1      36.470  -2.992  13.182  1.00  0.00     0.153 C 
HETATM   44  C15 UNL     1      37.176  -4.221  12.643  1.00  0.00     0.042 C 
HETATM   45  C16 UNL     1      35.481  -2.519  12.172  1.00  0.00     0.243 C 
HETATM   46  C17 UNL     1      36.037  -1.551  11.167  1.00  0.00     0.184 C 
HETATM   47  C18 UNL     1      37.089  -0.639  11.787  1.00  0.00     0.204 C 
BRANCH  45  48
HETATM   48  N3  UNL     1      35.003  -3.699  11.438  1.00  0.00    -0.070 N 
ATOM     49  H33 UNL     1      35.103  -4.565  11.968  1.00  0.00     0.274 HD
ATOM     50  H32 UNL     1      33.989  -3.722  11.336  1.00  0.00     0.274 HD
ATOM     51  H31 UNL     1      35.493  -3.720  10.543  1.00  0.00     0.274 HD
ENDBRANCH  45  48
BRANCH  46  52
HETATM   52  O9  UNL     1      34.968  -0.765  10.719  1.00  0.00    -0.391 OA
ATOM     53  H9  UNL     1      34.723  -0.193  11.437  1.00  0.00     0.210 HD
ENDBRANCH  46  52
BRANCH  47  54
HETATM   54  O10 UNL     1      38.330  -1.219  11.457  1.00  0.00    -0.388 OA
ATOM     55  H10 UNL     1      38.151  -1.961  10.891  1.00  0.00     0.210 HD
ENDBRANCH  47  54
ENDBRANCH  40  41
ENDBRANCH   3  40
BRANCH   4  56
HETATM   56  N4  UNL     1      38.032  -1.007  16.647  1.00  0.00    -0.070 N 
ATOM     57  H43 UNL     1      37.276  -0.522  17.130  1.00  0.00     0.274 HD
ATOM     58  H42 UNL     1      37.471  -1.533  15.977  1.00  0.00     0.274 HD
ATOM     59  H41 UNL     1      38.547  -1.624  17.275  1.00  0.00     0.274 HD
ENDBRANCH   4  56
TORSDOF 16
ENDMDL
MODEL 4
REMARK VINA RESULT: -6.846089080      3.763      5.845
REMARK  16 active torsions:
REMARK  status: ('A' for Active; 'I' for Inactive)
REMARK    1  A    between atoms: O1_2  and  C2_3 
REMARK    2  A    between atoms: C5_8  and  O4_9 
REMARK    3  A    between atoms: O4_9  and  C6_10 
REMARK    4  A    between atoms: C7_11  and  N1_12 
REMARK    5  A    between atoms: C9_17  and  N2_18 
REMARK    6  A    between atoms: C10_22  and  O5_23 
REMARK    7  A    between atoms: O5_23  and  C11_24 
REMARK    8  A    between atoms: C12_26  and  O7_27 
REMARK    9  A    between atoms: O7_27  and  C13_28 
REMARK   10  A    between atoms: C16_32  and  N3_33 
REMARK   11  A    between atoms: C17_37  and  O9_38 
REMARK   12  A    between atoms: C18_40  and  O10_41 
REMARK   13  A    between atoms: C19_43  and  N4_44 
REMARK   14  A    between atoms: C21_49  and  N5_50 
REMARK   15  A    between atoms: C22_54  and  O11_55 
REMARK   16  A    between atoms: C23_57  and  O12_58 
ROOT
HETATM    1  C11 UNL     1      39.069   1.282  13.234  1.00  0.00     0.294 C 
HETATM    2  O6  UNL     1      38.837   2.534  13.813  1.00  0.00    -0.327 OA
HETATM    3  C12 UNL     1      39.444   3.589  13.173  1.00  0.00     0.296 C 
HETATM    4  C19 UNL     1      40.531   3.187  12.224  1.00  0.00     0.240 C 
HETATM    5  C20 UNL     1      41.401   2.186  12.981  1.00  0.00     0.075 C 
HETATM    6  C21 UNL     1      40.569   1.000  13.393  1.00  0.00     0.240 C 
ENDROOT
BRANCH   1   7
HETATM    7  O5  UNL     1      38.301   0.409  13.901  1.00  0.00    -0.349 OA
BRANCH   7   8
HETATM    8  C10 UNL     1      37.361  -0.346  13.357  1.00  0.00     0.186 C 
HETATM    9  C9  UNL     1      37.480  -0.774  11.932  1.00  0.00     0.217 C 
HETATM   10  C8  UNL     1      38.754  -1.518  11.638  1.00  0.00     0.071 C 
HETATM   11  C7  UNL     1      39.159  -2.267  12.887  1.00  0.00     0.217 C 
HETATM   12  C6  UNL     1      38.014  -2.759  13.702  1.00  0.00     0.186 C 
HETATM   13  C22 UNL     1      37.182  -1.607  14.183  1.00  0.00     0.180 C 
BRANCH   9  14
HETATM   14  N2  UNL     1      37.202   0.275  10.980  1.00  0.00    -0.072 N 
ATOM     15  H23 UNL     1      37.802   0.189  10.160  1.00  0.00     0.274 HD
ATOM     16  H22 UNL     1      36.292   0.133  10.539  1.00  0.00     0.274 HD
ATOM     17  H21 UNL     1      37.268   1.210  11.382  1.00  0.00     0.274 HD
ENDBRANCH   9  14
BRANCH  11  18
HETATM   18  N1  UNL     1      40.111  -3.281  12.493  1.00  0.00    -0.072 N 
ATOM     19  H13 UNL     1      41.013  -2.853  12.283  1.00  0.00     0.274 HD
ATOM     20  H12 UNL     1      40.368  -3.853  13.298  1.00  0.00     0.274 HD
ATOM     21  H11 UNL     1      39.814  -3.875  11.719  1.00  0.00     0.274 HD
ENDBRANCH  11  18
BRANCH  12  22
HETATM   22  O4  UNL     1      37.332  -3.728  13.029  1.00  0.00    -0.348 OA
BRANCH  22  23
HETATM   23  C5  UNL     1      37.461  -5.017  13.442  1.00  0.00     0.297 C 
HETATM   24  O3  UNL     1      36.451  -5.156  14.440  1.00  0.00    -0.329 OA
HETATM   25  C3  UNL     1      35.201  -5.297  13.931  1.00  0.00     0.262 C 
HETATM   26  O2  UNL     1      34.995  -5.316  12.616  1.00  0.00    -0.329 OA
HETATM   27  C4  UNL     1      34.602  -6.559  14.529  1.00  0.00     0.071 C 
HETATM   28  C2  UNL     1      35.915  -5.774  11.752  1.00  0.00     0.295 C 
HETATM   29  C23 UNL     1      37.186  -6.117  12.491  1.00  0.00     0.231 C 
BRANCH  28  30
HETATM   30  O1  UNL     1      35.544  -6.912  11.040  1.00  0.00    -0.363 OA
HETATM   31  C1  UNL     1      34.160  -7.065  10.992  1.00  0.00     0.204 C 
ENDBRANCH  28  30
BRANCH  29  32
HETATM   32  O12 UNL     1      38.203  -6.525  11.683  1.00  0.00    -0.381 OA
HETATM   33  C24 UNL     1      39.360  -6.847  12.388  1.00  0.00     0.202 C 
ENDBRANCH  29  32
ENDBRANCH  22  23
ENDBRANCH  12  22
BRANCH  13  34
HETATM   34  O11 UNL     1      35.842  -1.895  14.273  1.00  0.00    -0.390 OA
ATOM     35  H11 UNL     1      35.367  -1.317  14.859  1.00  0.00     0.210 HD
ENDBRANCH  13  34
ENDBRANCH   7   8
ENDBRANCH   1   7
BRANCH   6  36
HETATM   36  N5  UNL     1      40.868   0.555  14.735  1.00  0.00    -0.070 N 
ATOM     37  H53 UNL     1      40.750   1.305  15.417  1.00  0.00     0.274 HD
ATOM     38  H52 UNL     1      40.156  -0.086  15.088  1.00  0.00     0.274 HD
ATOM     39  H51 UNL     1      41.800   0.146  14.782  1.00  0.00     0.274 HD
ENDBRANCH   6  36
BRANCH   3  40
HETATM   40  O7  UNL     1      38.452   4.389  12.581  1.00  0.00    -0.327 OA
BRANCH  40  41
HETATM   41  C13 UNL     1      38.133   5.497  13.324  1.00  0.00     0.294 C 
HETATM   42  O8  UNL     1      36.862   6.012  12.982  1.00  0.00    -0.351 OA
HETATM   43  C14 UNL     1      36.400   6.878  13.941  1.00  0.00     0.153 C 
HETATM   44  C15 UNL     1      35.710   8.083  13.332  1.00  0.00     0.042 C 
HETATM   45  C16 UNL     1      37.422   7.346  14.920  1.00  0.00     0.243 C 
HETATM   46  C17 UNL     1      38.776   7.608  14.324  1.00  0.00     0.184 C 
HETATM   47  C18 UNL     1      39.094   6.631  13.199  1.00  0.00     0.204 C 
BRANCH  45  48
HETATM   48  N3  UNL     1      36.935   8.609  15.494  1.00  0.00    -0.070 N 
ATOM     49  H33 UNL     1      36.358   9.144  14.845  1.00  0.00     0.274 HD
ATOM     50  H32 UNL     1      36.230   8.472  16.217  1.00  0.00     0.274 HD
ATOM     51  H31 UNL     1      37.749   9.127  15.824  1.00  0.00     0.274 HD
ENDBRANCH  45  48
BRANCH  46  52
HETATM   52  O9  UNL     1      39.715   7.435  15.348  1.00  0.00    -0.391 OA
ATOM     53  H9  UNL     1      39.863   8.290  15.738  1.00  0.00     0.210 HD
ENDBRANCH  46  52
BRANCH  47  54
HETATM   54  O10 UNL     1      38.777   7.315  12.008  1.00  0.00    -0.388 OA
ATOM     55  H10 UNL     1      38.116   7.962  12.224  1.00  0.00     0.210 HD
ENDBRANCH  47  54
ENDBRANCH  40  41
ENDBRANCH   3  40
BRANCH   4  56
HETATM   56  N4  UNL     1      41.325   4.339  11.838  1.00  0.00    -0.070 N 
ATOM     57  H43 UNL     1      40.846   5.215  12.046  1.00  0.00     0.274 HD
ATOM     58  H42 UNL     1      42.136   4.460  12.444  1.00  0.00     0.274 HD
ATOM     59  H41 UNL     1      41.592   4.278  10.856  1.00  0.00     0.274 HD
ENDBRANCH   4  56
TORSDOF 16
ENDMDL
MODEL 5
REMARK VINA RESULT: -6.710832348      1.626      2.609
REMARK  16 active torsions:
REMARK  status: ('A' for Active; 'I' for Inactive)
REMARK    1  A    between atoms: O1_2  and  C2_3 
REMARK    2  A    between atoms: C5_8  and  O4_9 
REMARK    3  A    between atoms: O4_9  and  C6_10 
REMARK    4  A    between atoms: C7_11  and  N1_12 
REMARK    5  A    between atoms: C9_17  and  N2_18 
REMARK    6  A    between atoms: C10_22  and  O5_23 
REMARK    7  A    between atoms: O5_23  and  C11_24 
REMARK    8  A    between atoms: C12_26  and  O7_27 
REMARK    9  A    between atoms: O7_27  and  C13_28 
REMARK   10  A    between atoms: C16_32  and  N3_33 
REMARK   11  A    between atoms: C17_37  and  O9_38 
REMARK   12  A    between atoms: C18_40  and  O10_41 
REMARK   13  A    between atoms: C19_43  and  N4_44 
REMARK   14  A    between atoms: C21_49  and  N5_50 
REMARK   15  A    between atoms: C22_54  and  O11_55 
REMARK   16  A    between atoms: C23_57  and  O12_58 
ROOT
HETATM    1  C11 UNL     1      40.980   6.040  12.907  1.00  0.00     0.294 C 
HETATM    2  O6  UNL     1      40.675   6.458  11.608  1.00  0.00    -0.327 OA
HETATM    3  C12 UNL     1      41.578   7.335  11.055  1.00  0.00     0.296 C 
HETATM    4  C19 UNL     1      42.499   7.974  12.047  1.00  0.00     0.240 C 
HETATM    5  C20 UNL     1      41.612   8.457  13.194  1.00  0.00     0.075 C 
HETATM    6  C21 UNL     1      40.884   7.285  13.798  1.00  0.00     0.240 C 
ENDROOT
BRANCH   1   7
HETATM    7  O5  UNL     1      40.078   5.100  13.224  1.00  0.00    -0.349 OA
BRANCH   7   8
HETATM    8  C10 UNL     1      39.707   4.107  12.434  1.00  0.00     0.186 C 
HETATM    9  C9  UNL     1      40.709   3.095  11.988  1.00  0.00     0.217 C 
HETATM   10  C8  UNL     1      41.408   2.406  13.128  1.00  0.00     0.071 C 
HETATM   11  C7  UNL     1      40.448   2.335  14.293  1.00  0.00     0.217 C 
HETATM   12  C6  UNL     1      39.021   2.170  13.900  1.00  0.00     0.186 C 
HETATM   13  C22 UNL     1      38.566   3.343  13.082  1.00  0.00     0.180 C 
BRANCH   9  14
HETATM   14  N2  UNL     1      41.616   3.576  10.972  1.00  0.00    -0.072 N 
ATOM     15  H23 UNL     1      42.511   3.090  11.026  1.00  0.00     0.274 HD
ATOM     16  H22 UNL     1      41.315   3.274  10.045  1.00  0.00     0.274 HD
ATOM     17  H21 UNL     1      41.749   4.587  10.999  1.00  0.00     0.274 HD
ENDBRANCH   9  14
BRANCH  11  18
HETATM   18  N1  UNL     1      40.951   1.335  15.207  1.00  0.00    -0.072 N 
ATOM     19  H13 UNL     1      40.275   1.168  15.953  1.00  0.00     0.274 HD
ATOM     20  H12 UNL     1      40.953   0.419  14.759  1.00  0.00     0.274 HD
ATOM     21  H11 UNL     1      41.870   1.534  15.604  1.00  0.00     0.274 HD
ENDBRANCH  11  18
BRANCH  12  22
HETATM   22  O4  UNL     1      38.823   0.950  13.327  1.00  0.00    -0.348 OA
BRANCH  22  23
HETATM   23  C5  UNL     1      37.824   0.163  13.807  1.00  0.00     0.297 C 
HETATM   24  O3  UNL     1      36.833   0.208  12.782  1.00  0.00    -0.329 OA
HETATM   25  C3  UNL     1      37.125  -0.574  11.712  1.00  0.00     0.262 C 
HETATM   26  O2  UNL     1      38.235  -1.309  11.683  1.00  0.00    -0.329 OA
HETATM   27  C4  UNL     1      35.936  -1.491  11.477  1.00  0.00     0.071 C 
HETATM   28  C2  UNL     1      38.802  -1.797  12.797  1.00  0.00     0.295 C 
HETATM   29  C23 UNL     1      38.069  -1.282  14.013  1.00  0.00     0.231 C 
BRANCH  28  30
HETATM   30  O1  UNL     1      38.817  -3.186  12.895  1.00  0.00    -0.363 OA
HETATM   31  C1  UNL     1      40.022  -3.724  12.450  1.00  0.00     0.204 C 
ENDBRANCH  28  30
BRANCH  29  32
HETATM   32  O12 UNL     1      38.619  -1.669  15.196  1.00  0.00    -0.381 OA
HETATM   33  C24 UNL     1      38.251  -0.850  16.260  1.00  0.00     0.202 C 
ENDBRANCH  29  32
ENDBRANCH  22  23
ENDBRANCH  12  22
BRANCH  13  34
HETATM   34  O11 UNL     1      37.644   3.017  12.118  1.00  0.00    -0.390 OA
ATOM     35  H11 UNL     1      37.073   2.298  12.365  1.00  0.00     0.210 HD
ENDBRANCH  13  34
ENDBRANCH   7   8
ENDBRANCH   1   7
BRANCH   6  36
HETATM   36  N5  UNL     1      39.504   7.591  14.105  1.00  0.00    -0.070 N 
ATOM     37  H53 UNL     1      38.892   6.793  13.929  1.00  0.00     0.274 HD
ATOM     38  H52 UNL     1      39.352   7.682  15.110  1.00  0.00     0.274 HD
ATOM     39  H51 UNL     1      39.196   8.421  13.600  1.00  0.00     0.274 HD
ENDBRANCH   6  36
BRANCH   3  40
HETATM   40  O7  UNL     1      42.251   6.687  10.004  1.00  0.00    -0.327 OA
BRANCH  40  41
HETATM   41  C13 UNL     1      42.056   7.285   8.785  1.00  0.00     0.294 C 
HETATM   42  O8  UNL     1      41.303   8.475   8.897  1.00  0.00    -0.351 OA
HETATM   43  C14 UNL     1      41.409   9.241   7.763  1.00  0.00     0.153 C 
HETATM   44  C15 UNL     1      40.084   9.872   7.379  1.00  0.00     0.042 C 
HETATM   45  C16 UNL     1      41.977   8.543   6.576  1.00  0.00     0.243 C 
HETATM   46  C17 UNL     1      41.534   7.116   6.425  1.00  0.00     0.184 C 
HETATM   47  C18 UNL     1      41.355   6.437   7.778  1.00  0.00     0.204 C 
BRANCH  45  48
HETATM   48  N3  UNL     1      41.533   9.276   5.381  1.00  0.00    -0.070 N 
ATOM     49  H33 UNL     1      40.541   9.148   5.181  1.00  0.00     0.274 HD
ATOM     50  H32 UNL     1      41.512  10.286   5.518  1.00  0.00     0.274 HD
ATOM     51  H31 UNL     1      42.135   8.992   4.608  1.00  0.00     0.274 HD
ENDBRANCH  45  48
BRANCH  46  52
HETATM   52  O9  UNL     1      42.538   6.447   5.715  1.00  0.00    -0.391 OA
ATOM     53  H9  UNL     1      42.133   6.082   4.936  1.00  0.00     0.210 HD
ENDBRANCH  46  52
BRANCH  47  54
HETATM   54  O10 UNL     1      39.976   6.514   8.057  1.00  0.00    -0.388 OA
ATOM     55  H10 UNL     1      39.586   7.066   7.390  1.00  0.00     0.210 HD
ENDBRANCH  47  54
ENDBRANCH  40  41
ENDBRANCH   3  40
BRANCH   4  56
HETATM   56  N4  UNL     1      43.191   9.102  11.451  1.00  0.00    -0.070 N 
ATOM     57  H43 UNL     1      43.156   9.071  10.432  1.00  0.00     0.274 HD
ATOM     58  H42 UNL     1      42.686   9.976  11.595  1.00  0.00     0.274 HD
ATOM     59  H41 UNL     1      44.149   9.158  11.795  1.00  0.00     0.274 HD
ENDBRANCH   4  56
TORSDOF 16
ENDMDL
