MODEL 1
REMARK VINA RESULT: -5.860297755      0.000      0.000
REMARK  3 active torsions:
REMARK  status: ('A' for Active; 'I' for Inactive)
REMARK    1  A    between atoms: C2_2  and  C3_3 
REMARK    2  A    between atoms: C3_3  and  N1_4 
REMARK       I    between atoms: N1_4  and  C4_6 
REMARK       I    between atoms: C4_6  and  N2_8 
REMARK    3  A    between atoms: N2_8  and  C5_10 
ROOT
HETATM    1  N1  UNL     1     -38.331  17.063  15.235  1.00  0.00    -0.334 N 
ATOM      2  H1  UNL     1     -37.829  17.734  15.817  1.00  0.00     0.165 HD
HETATM    3  C4  UNL     1     -39.678  17.327  14.910  1.00  0.00     0.317 C 
HETATM    4  O1  UNL     1     -40.304  16.509  14.197  1.00  0.00    -0.247 OA
HETATM    5  N2  UNL     1     -40.302  18.502  15.390  1.00  0.00    -0.338 N 
ATOM      6  H2  UNL     1     -39.773  19.155  15.970  1.00  0.00     0.164 HD
ENDROOT
BRANCH   1   7
HETATM    7  C3  UNL     1     -37.623  15.877  14.777  1.00  0.00     0.034 C 
HETATM    8  C10 UNL     1     -36.388  15.663  15.630  1.00  0.00     0.031 C 
HETATM    9  C11 UNL     1     -37.317  14.950  16.621  1.00  0.00     0.005 C 
HETATM   10  C12 UNL     1     -38.162  14.584  15.391  1.00  0.00     0.031 C 
BRANCH   7  11
HETATM   11  C2  UNL     1     -37.371  15.786  13.300  1.00  0.00     0.026 C 
HETATM   12  C1  UNL     1     -36.749  14.481  12.907  1.00  0.00     0.007 C 
ENDBRANCH   7  11
ENDBRANCH   1   7
BRANCH   5  13
HETATM   13  C5  UNL     1     -41.687  18.788  15.065  1.00  0.00     0.090 C 
HETATM   14  C6  UNL     1     -42.527  17.667  15.631  1.00  0.00     0.051 C 
HETATM   15  C7  UNL     1     -43.998  17.987  15.608  1.00  0.00     0.169 C 
HETATM   16  O2  UNL     1     -44.277  19.333  15.649  1.00  0.00    -0.391 OA
HETATM   17  C8  UNL     1     -43.351  19.977  16.437  1.00  0.00     0.169 C 
HETATM   18  C9  UNL     1     -42.081  20.135  15.629  1.00  0.00     0.051 C 
ENDBRANCH   5  13
TORSDOF 3
ENDMDL
MODEL 2
REMARK VINA RESULT: -5.735021757      1.116      1.617
REMARK  3 active torsions:
REMARK  status: ('A' for Active; 'I' for Inactive)
REMARK    1  A    between atoms: C2_2  and  C3_3 
REMARK    2  A    between atoms: C3_3  and  N1_4 
REMARK       I    between atoms: N1_4  and  C4_6 
REMARK       I    between atoms: C4_6  and  N2_8 
REMARK    3  A    between atoms: N2_8  and  C5_10 
ROOT
HETATM    1  N1  UNL     1     -38.899  15.744  15.295  1.00  0.00    -0.334 N 
ATOM      2  H1  UNL     1     -38.739  15.654  16.299  1.00  0.00     0.165 HD
HETATM    3  C4  UNL     1     -40.007  16.497  14.855  1.00  0.00     0.317 C 
HETATM    4  O1  UNL     1     -40.214  16.614  13.625  1.00  0.00    -0.247 OA
HETATM    5  N2  UNL     1     -40.865  17.108  15.800  1.00  0.00    -0.338 N 
ATOM      6  H2  UNL     1     -40.678  16.999  16.797  1.00  0.00     0.164 HD
ENDROOT
BRANCH   1   7
HETATM    7  C3  UNL     1     -37.973  15.089  14.384  1.00  0.00     0.034 C 
HETATM    8  C10 UNL     1     -37.340  16.125  13.474  1.00  0.00     0.031 C 
HETATM    9  C11 UNL     1     -36.338  16.366  14.611  1.00  0.00     0.005 C 
HETATM   10  C12 UNL     1     -36.580  14.895  14.984  1.00  0.00     0.031 C 
BRANCH   7  11
HETATM   11  C2  UNL     1     -38.496  13.880  13.665  1.00  0.00     0.026 C 
HETATM   12  C1  UNL     1     -39.288  12.981  14.563  1.00  0.00     0.007 C 
ENDBRANCH   7  11
ENDBRANCH   1   7
BRANCH   5  13
HETATM   13  C5  UNL     1     -42.010  17.886  15.363  1.00  0.00     0.090 C 
HETATM   14  C6  UNL     1     -43.211  17.404  16.142  1.00  0.00     0.051 C 
HETATM   15  C7  UNL     1     -44.397  18.318  15.988  1.00  0.00     0.169 C 
HETATM   16  O2  UNL     1     -44.064  19.621  15.702  1.00  0.00    -0.391 OA
HETATM   17  C8  UNL     1     -42.899  19.958  16.353  1.00  0.00     0.169 C 
HETATM   18  C9  UNL     1     -41.744  19.359  15.580  1.00  0.00     0.051 C 
ENDBRANCH   5  13
TORSDOF 3
ENDMDL
MODEL 3
REMARK VINA RESULT: -5.588504111      1.341      2.127
REMARK  3 active torsions:
REMARK  status: ('A' for Active; 'I' for Inactive)
REMARK    1  A    between atoms: C2_2  and  C3_3 
REMARK    2  A    between atoms: C3_3  and  N1_4 
REMARK       I    between atoms: N1_4  and  C4_6 
REMARK       I    between atoms: C4_6  and  N2_8 
REMARK    3  A    between atoms: N2_8  and  C5_10 
ROOT
HETATM    1  N1  UNL     1     -39.202  15.978  14.158  1.00  0.00    -0.334 N 
ATOM      2  H1  UNL     1     -39.237  16.394  13.227  1.00  0.00     0.165 HD
HETATM    3  C4  UNL     1     -40.047  16.500  15.160  1.00  0.00     0.317 C 
HETATM    4  O1  UNL     1     -40.013  15.998  16.308  1.00  0.00    -0.247 OA
HETATM    5  N2  UNL     1     -40.917  17.575  14.861  1.00  0.00    -0.338 N 
ATOM      6  H2  UNL     1     -40.928  17.968  13.919  1.00  0.00     0.164 HD
ENDROOT
BRANCH   1   7
HETATM    7  C3  UNL     1     -38.284  14.874  14.391  1.00  0.00     0.034 C 
HETATM    8  C10 UNL     1     -37.207  14.876  13.323  1.00  0.00     0.031 C 
HETATM    9  C11 UNL     1     -36.481  15.907  14.198  1.00  0.00     0.005 C 
HETATM   10  C12 UNL     1     -37.174  15.219  15.385  1.00  0.00     0.031 C 
BRANCH   7  11
HETATM   11  C2  UNL     1     -38.910  13.531  14.627  1.00  0.00     0.026 C 
HETATM   12  C1  UNL     1     -39.595  12.998  13.405  1.00  0.00     0.007 C 
ENDBRANCH   7  11
ENDBRANCH   1   7
BRANCH   5  13
HETATM   13  C5  UNL     1     -41.792  18.122  15.881  1.00  0.00     0.090 C 
HETATM   14  C6  UNL     1     -41.849  19.618  15.675  1.00  0.00     0.051 C 
HETATM   15  C7  UNL     1     -42.939  20.266  16.486  1.00  0.00     0.169 C 
HETATM   16  O2  UNL     1     -43.992  19.429  16.775  1.00  0.00    -0.391 OA
HETATM   17  C8  UNL     1     -44.209  18.571  15.720  1.00  0.00     0.169 C 
HETATM   18  C9  UNL     1     -43.159  17.483  15.784  1.00  0.00     0.051 C 
ENDBRANCH   5  13
TORSDOF 3
ENDMDL
MODEL 4
REMARK VINA RESULT: -5.425581855      0.999      1.997
REMARK  3 active torsions:
REMARK  status: ('A' for Active; 'I' for Inactive)
REMARK    1  A    between atoms: C2_2  and  C3_3 
REMARK    2  A    between atoms: C3_3  and  N1_4 
REMARK       I    between atoms: N1_4  and  C4_6 
REMARK       I    between atoms: C4_6  and  N2_8 
REMARK    3  A    between atoms: N2_8  and  C5_10 
ROOT
HETATM    1  N1  UNL     1     -38.661  17.299  14.497  1.00  0.00    -0.334 N 
ATOM      2  H1  UNL     1     -38.138  17.798  13.777  1.00  0.00     0.165 HD
HETATM    3  C4  UNL     1     -39.991  17.691  14.758  1.00  0.00     0.317 C 
HETATM    4  O1  UNL     1     -40.642  17.087  15.641  1.00  0.00    -0.247 OA
HETATM    5  N2  UNL     1     -40.570  18.753  14.024  1.00  0.00    -0.338 N 
ATOM      6  H2  UNL     1     -40.021  19.232  13.309  1.00  0.00     0.164 HD
ENDROOT
BRANCH   1   7
HETATM    7  C3  UNL     1     -38.000  16.216  15.209  1.00  0.00     0.034 C 
HETATM    8  C10 UNL     1     -38.370  14.890  14.572  1.00  0.00     0.031 C 
HETATM    9  C11 UNL     1     -37.239  15.169  13.572  1.00  0.00     0.005 C 
HETATM   10  C12 UNL     1     -36.577  15.955  14.714  1.00  0.00     0.031 C 
BRANCH   7  11
HETATM   11  C2  UNL     1     -38.126  16.233  16.705  1.00  0.00     0.026 C 
HETATM   12  C1  UNL     1     -38.128  14.855  17.293  1.00  0.00     0.007 C 
ENDBRANCH   7  11
ENDBRANCH   1   7
BRANCH   5  13
HETATM   13  C5  UNL     1     -41.937  19.168  14.280  1.00  0.00     0.090 C 
HETATM   14  C6  UNL     1     -42.802  17.929  14.240  1.00  0.00     0.051 C 
HETATM   15  C7  UNL     1     -44.189  18.184  14.767  1.00  0.00     0.169 C 
HETATM   16  O2  UNL     1     -44.261  19.215  15.673  1.00  0.00    -0.391 OA
HETATM   17  C8  UNL     1     -43.118  19.244  16.440  1.00  0.00     0.169 C 
HETATM   18  C9  UNL     1     -42.020  19.877  15.613  1.00  0.00     0.051 C 
ENDBRANCH   5  13
TORSDOF 3
ENDMDL
MODEL 5
REMARK VINA RESULT: -5.371304283      1.227      1.520
REMARK  3 active torsions:
REMARK  status: ('A' for Active; 'I' for Inactive)
REMARK    1  A    between atoms: C2_2  and  C3_3 
REMARK    2  A    between atoms: C3_3  and  N1_4 
REMARK       I    between atoms: N1_4  and  C4_6 
REMARK       I    between atoms: C4_6  and  N2_8 
REMARK    3  A    between atoms: N2_8  and  C5_10 
ROOT
HETATM    1  N1  UNL     1     -38.842  16.842  14.182  1.00  0.00    -0.334 N 
ATOM      2  H1  UNL     1     -38.177  17.471  13.731  1.00  0.00     0.165 HD
HETATM    3  C4  UNL     1     -40.144  17.317  14.448  1.00  0.00     0.317 C 
HETATM    4  O1  UNL     1     -40.969  16.554  15.002  1.00  0.00    -0.247 OA
HETATM    5  N2  UNL     1     -40.500  18.638  14.089  1.00  0.00    -0.338 N 
ATOM      6  H2  UNL     1     -39.812  19.242  13.639  1.00  0.00     0.164 HD
ENDROOT
BRANCH   1   7
HETATM    7  C3  UNL     1     -38.405  15.496  14.521  1.00  0.00     0.034 C 
HETATM    8  C10 UNL     1     -37.021  15.255  13.950  1.00  0.00     0.031 C 
HETATM    9  C11 UNL     1     -36.488  15.944  15.214  1.00  0.00     0.005 C 
HETATM   10  C12 UNL     1     -37.753  15.409  15.902  1.00  0.00     0.031 C 
BRANCH   7  11
HETATM   11  C2  UNL     1     -39.383  14.393  14.243  1.00  0.00     0.026 C 
HETATM   12  C1  UNL     1     -38.718  13.160  13.713  1.00  0.00     0.007 C 
ENDBRANCH   7  11
ENDBRANCH   1   7
BRANCH   5  13
HETATM   13  C5  UNL     1     -41.835  19.141  14.355  1.00  0.00     0.090 C 
HETATM   14  C6  UNL     1     -42.816  18.187  13.713  1.00  0.00     0.051 C 
HETATM   15  C7  UNL     1     -44.232  18.441  14.155  1.00  0.00     0.169 C 
HETATM   16  O2  UNL     1     -44.334  19.020  15.397  1.00  0.00    -0.391 OA
HETATM   17  C8  UNL     1     -43.335  18.546  16.216  1.00  0.00     0.169 C 
HETATM   18  C9  UNL     1     -42.052  19.261  15.846  1.00  0.00     0.051 C 
ENDBRANCH   5  13
TORSDOF 3
ENDMDL
