MODEL 1
REMARK VINA RESULT: -5.744184184      0.000      0.000
REMARK  4 active torsions:
REMARK  status: ('A' for Active; 'I' for Inactive)
REMARK    1  A    between atoms: N1_1  and  C1_5 
REMARK    2  A    between atoms: C4_11  and  C5_12 
REMARK    3  A    between atoms: C5_12  and  C6_13 
REMARK    4  A    between atoms: C6_13  and  C7_14 
ROOT
HETATM    1  C1  UNL     1     -43.671  18.846  16.225  1.00  0.00     0.485 C 
HETATM    2  N2  UNL     1     -43.818  18.631  14.804  1.00  0.00    -0.311 N 
ATOM      3  H2  UNL     1     -44.745  18.737  14.391  1.00  0.00     0.166 HD
HETATM    4  C2  UNL     1     -42.739  18.279  13.955  1.00  0.00     0.222 C 
HETATM    5  O1  UNL     1     -42.910  18.330  12.716  1.00  0.00    -0.273 OA
HETATM    6  C3  UNL     1     -41.473  17.872  14.613  1.00  0.00     0.136 C 
HETATM    7  C4  UNL     1     -41.834  17.325  15.959  1.00  0.00     0.199 C 
HETATM    8  N3  UNL     1     -42.429  18.358  16.752  1.00  0.00    -0.024 N 
ATOM      9  H31 UNL     1     -42.544  18.049  17.717  1.00  0.00     0.282 HD
ATOM     10  H32 UNL     1     -41.772  19.125  16.895  1.00  0.00     0.282 HD
ENDROOT
BRANCH   7  11
HETATM   11  C5  UNL     1     -40.656  16.738  16.701  1.00  0.00     0.034 C 
BRANCH  11  12
HETATM   12  C6  UNL     1     -40.364  15.335  16.295  1.00  0.00     0.007 C 
BRANCH  12  13
HETATM   13  C7  UNL     1     -39.028  15.121  15.634  1.00  0.00    -0.014 C 
HETATM   14  C8  UNL     1     -39.360  14.796  14.163  1.00  0.00     0.004 C 
HETATM   15  C9  UNL     1     -38.148  14.091  13.607  1.00  0.00     0.000 C 
HETATM   16  C10 UNL     1     -37.110  15.172  13.321  1.00  0.00     0.000 C 
HETATM   17  C11 UNL     1     -36.209  15.250  14.504  1.00  0.00     0.000 C 
HETATM   18  C12 UNL     1     -36.706  16.069  15.634  1.00  0.00     0.000 C 
HETATM   19  C13 UNL     1     -38.188  16.346  15.614  1.00  0.00     0.004 C 
ENDBRANCH  12  13
ENDBRANCH  11  12
ENDBRANCH   7  11
BRANCH   1  20
HETATM   20  N1  UNL     1     -44.764  18.122  16.880  1.00  0.00    -0.033 N 
ATOM     21  H13 UNL     1     -45.454  18.740  17.309  1.00  0.00     0.278 HD
ATOM     22  H12 UNL     1     -45.394  17.663  16.222  1.00  0.00     0.278 HD
ATOM     23  H11 UNL     1     -44.337  17.476  17.544  1.00  0.00     0.278 HD
ENDBRANCH   1  20
TORSDOF 4
ENDMDL
MODEL 2
REMARK VINA RESULT: -5.606890425      1.366      1.915
REMARK  4 active torsions:
REMARK  status: ('A' for Active; 'I' for Inactive)
REMARK    1  A    between atoms: N1_1  and  C1_5 
REMARK    2  A    between atoms: C4_11  and  C5_12 
REMARK    3  A    between atoms: C5_12  and  C6_13 
REMARK    4  A    between atoms: C6_13  and  C7_14 
ROOT
HETATM    1  C1  UNL     1     -42.933  19.747  16.395  1.00  0.00     0.485 C 
HETATM    2  N2  UNL     1     -43.992  18.991  15.767  1.00  0.00    -0.311 N 
ATOM      3  H2  UNL     1     -44.853  18.837  16.291  1.00  0.00     0.166 HD
HETATM    4  C2  UNL     1     -43.895  18.452  14.459  1.00  0.00     0.222 C 
HETATM    5  O1  UNL     1     -44.931  18.008  13.915  1.00  0.00    -0.273 OA
HETATM    6  C3  UNL     1     -42.551  18.457  13.831  1.00  0.00     0.136 C 
HETATM    7  C4  UNL     1     -41.546  18.434  14.941  1.00  0.00     0.199 C 
HETATM    8  N3  UNL     1     -41.670  19.625  15.724  1.00  0.00    -0.024 N 
ATOM      9  H31 UNL     1     -40.901  19.700  16.390  1.00  0.00     0.282 HD
ATOM     10  H32 UNL     1     -41.483  20.451  15.155  1.00  0.00     0.282 HD
ENDROOT
BRANCH   7  11
HETATM   11  C5  UNL     1     -40.122  18.297  14.455  1.00  0.00     0.034 C 
BRANCH  11  12
HETATM   12  C6  UNL     1     -39.247  17.591  15.433  1.00  0.00     0.007 C 
BRANCH  12  13
HETATM   13  C7  UNL     1     -38.572  16.351  14.912  1.00  0.00    -0.014 C 
HETATM   14  C8  UNL     1     -39.651  15.250  14.983  1.00  0.00     0.004 C 
HETATM   15  C9  UNL     1     -38.910  13.937  14.971  1.00  0.00     0.000 C 
HETATM   16  C10 UNL     1     -38.495  13.686  13.524  1.00  0.00     0.000 C 
HETATM   17  C11 UNL     1     -37.100  14.185  13.368  1.00  0.00     0.000 C 
HETATM   18  C12 UNL     1     -36.965  15.641  13.122  1.00  0.00     0.000 C 
HETATM   19  C13 UNL     1     -38.176  16.460  13.485  1.00  0.00     0.004 C 
ENDBRANCH  12  13
ENDBRANCH  11  12
ENDBRANCH   7  11
BRANCH   1  20
HETATM   20  N1  UNL     1     -42.784  19.222  17.755  1.00  0.00    -0.033 N 
ATOM     21  H13 UNL     1     -43.673  18.969  18.186  1.00  0.00     0.278 HD
ATOM     22  H12 UNL     1     -42.357  18.297  17.784  1.00  0.00     0.278 HD
ATOM     23  H11 UNL     1     -42.265  19.921  18.287  1.00  0.00     0.278 HD
ENDBRANCH   1  20
TORSDOF 4
ENDMDL
MODEL 3
REMARK VINA RESULT: -5.475809201      0.976      1.716
REMARK  4 active torsions:
REMARK  status: ('A' for Active; 'I' for Inactive)
REMARK    1  A    between atoms: N1_1  and  C1_5 
REMARK    2  A    between atoms: C4_11  and  C5_12 
REMARK    3  A    between atoms: C5_12  and  C6_13 
REMARK    4  A    between atoms: C6_13  and  C7_14 
ROOT
HETATM    1  C1  UNL     1     -44.445  17.940  15.401  1.00  0.00     0.485 C 
HETATM    2  N2  UNL     1     -44.337  18.163  13.978  1.00  0.00    -0.311 N 
ATOM      3  H2  UNL     1     -45.161  18.006  13.398  1.00  0.00     0.166 HD
HETATM    4  C2  UNL     1     -43.141  18.587  13.345  1.00  0.00     0.222 C 
HETATM    5  O1  UNL     1     -43.195  18.966  12.154  1.00  0.00    -0.273 OA
HETATM    6  C3  UNL     1     -41.901  18.547  14.159  1.00  0.00     0.136 C 
HETATM    7  C4  UNL     1     -42.096  17.493  15.204  1.00  0.00     0.199 C 
HETATM    8  N3  UNL     1     -43.176  17.865  16.066  1.00  0.00    -0.024 N 
ATOM      9  H31 UNL     1     -43.228  17.239  16.870  1.00  0.00     0.282 HD
ATOM     10  H32 UNL     1     -42.968  18.742  16.545  1.00  0.00     0.282 HD
ENDROOT
BRANCH   7  11
HETATM   11  C5  UNL     1     -40.858  17.236  16.032  1.00  0.00     0.034 C 
BRANCH  11  12
HETATM   12  C6  UNL     1     -40.384  15.827  15.935  1.00  0.00     0.007 C 
BRANCH  12  13
HETATM   13  C7  UNL     1     -39.219  15.603  15.008  1.00  0.00    -0.014 C 
HETATM   14  C8  UNL     1     -38.020  16.278  15.705  1.00  0.00     0.004 C 
HETATM   15  C9  UNL     1     -36.997  16.529  14.627  1.00  0.00     0.000 C 
HETATM   16  C10 UNL     1     -36.315  15.191  14.356  1.00  0.00     0.000 C 
HETATM   17  C11 UNL     1     -37.010  14.563  13.198  1.00  0.00     0.000 C 
HETATM   18  C12 UNL     1     -38.256  13.828  13.521  1.00  0.00     0.000 C 
HETATM   19  C13 UNL     1     -38.865  14.169  14.857  1.00  0.00     0.004 C 
ENDBRANCH  12  13
ENDBRANCH  11  12
ENDBRANCH   7  11
BRANCH   1  20
HETATM   20  N1  UNL     1     -45.135  16.660  15.580  1.00  0.00    -0.033 N 
ATOM     21  H13 UNL     1     -45.148  16.344  16.550  1.00  0.00     0.278 HD
ATOM     22  H12 UNL     1     -46.145  16.726  15.452  1.00  0.00     0.278 HD
ATOM     23  H11 UNL     1     -44.694  15.994  14.947  1.00  0.00     0.278 HD
ENDBRANCH   1  20
TORSDOF 4
ENDMDL
MODEL 4
REMARK VINA RESULT: -5.468453437      1.440      2.164
REMARK  4 active torsions:
REMARK  status: ('A' for Active; 'I' for Inactive)
REMARK    1  A    between atoms: N1_1  and  C1_5 
REMARK    2  A    between atoms: C4_11  and  C5_12 
REMARK    3  A    between atoms: C5_12  and  C6_13 
REMARK    4  A    between atoms: C6_13  and  C7_14 
ROOT
HETATM    1  C1  UNL     1     -44.606  17.523  15.108  1.00  0.00     0.485 C 
HETATM    2  N2  UNL     1     -44.619  17.843  13.699  1.00  0.00    -0.311 N 
ATOM      3  H2  UNL     1     -45.386  17.489  13.129  1.00  0.00     0.166 HD
HETATM    4  C2  UNL     1     -43.617  18.625  13.069  1.00  0.00     0.222 C 
HETATM    5  O1  UNL     1     -43.822  19.035  11.905  1.00  0.00    -0.273 OA
HETATM    6  C3  UNL     1     -42.387  18.896  13.853  1.00  0.00     0.136 C 
HETATM    7  C4  UNL     1     -42.235  17.776  14.835  1.00  0.00     0.199 C 
HETATM    8  N3  UNL     1     -43.343  17.778  15.740  1.00  0.00    -0.024 N 
ATOM      9  H31 UNL     1     -43.185  17.121  16.505  1.00  0.00     0.282 HD
ATOM     10  H32 UNL     1     -43.375  18.650  16.269  1.00  0.00     0.282 HD
ENDROOT
BRANCH   7  11
HETATM   11  C5  UNL     1     -40.945  17.839  15.619  1.00  0.00     0.034 C 
BRANCH  11  12
HETATM   12  C6  UNL     1     -39.794  18.303  14.794  1.00  0.00     0.007 C 
BRANCH  12  13
HETATM   13  C7  UNL     1     -38.586  17.404  14.814  1.00  0.00    -0.014 C 
HETATM   14  C8  UNL     1     -38.634  16.703  16.187  1.00  0.00     0.004 C 
HETATM   15  C9  UNL     1     -37.233  16.215  16.456  1.00  0.00     0.000 C 
HETATM   16  C10 UNL     1     -37.044  14.954  15.619  1.00  0.00     0.000 C 
HETATM   17  C11 UNL     1     -36.387  15.359  14.345  1.00  0.00     0.000 C 
HETATM   18  C12 UNL     1     -37.293  15.883  13.296  1.00  0.00     0.000 C 
HETATM   19  C13 UNL     1     -38.645  16.329  13.790  1.00  0.00     0.004 C 
ENDBRANCH  12  13
ENDBRANCH  11  12
ENDBRANCH   7  11
BRANCH   1  20
HETATM   20  N1  UNL     1     -44.897  16.092  15.222  1.00  0.00    -0.033 N 
ATOM     21  H13 UNL     1     -45.811  15.900  15.631  1.00  0.00     0.278 HD
ATOM     22  H12 UNL     1     -45.062  15.642  14.321  1.00  0.00     0.278 HD
ATOM     23  H11 UNL     1     -44.128  15.673  15.744  1.00  0.00     0.278 HD
ENDBRANCH   1  20
TORSDOF 4
ENDMDL
MODEL 5
REMARK VINA RESULT: -5.462170371      1.393      2.136
REMARK  4 active torsions:
REMARK  status: ('A' for Active; 'I' for Inactive)
REMARK    1  A    between atoms: N1_1  and  C1_5 
REMARK    2  A    between atoms: C4_11  and  C5_12 
REMARK    3  A    between atoms: C5_12  and  C6_13 
REMARK    4  A    between atoms: C6_13  and  C7_14 
ROOT
HETATM    1  C1  UNL     1     -42.964  19.717  16.423  1.00  0.00     0.485 C 
HETATM    2  N2  UNL     1     -43.989  18.914  15.797  1.00  0.00    -0.311 N 
ATOM      3  H2  UNL     1     -44.838  18.714  16.326  1.00  0.00     0.166 HD
HETATM    4  C2  UNL     1     -43.873  18.388  14.485  1.00  0.00     0.222 C 
HETATM    5  O1  UNL     1     -44.889  17.896  13.945  1.00  0.00    -0.273 OA
HETATM    6  C3  UNL     1     -42.535  18.464  13.849  1.00  0.00     0.136 C 
HETATM    7  C4  UNL     1     -41.524  18.484  14.952  1.00  0.00     0.199 C 
HETATM    8  N3  UNL     1     -41.701  19.663  15.744  1.00  0.00    -0.024 N 
ATOM      9  H31 UNL     1     -40.932  19.771  16.405  1.00  0.00     0.282 HD
ATOM     10  H32 UNL     1     -41.560  20.501  15.179  1.00  0.00     0.282 HD
ENDROOT
BRANCH   7  11
HETATM   11  C5  UNL     1     -40.098  18.421  14.457  1.00  0.00     0.034 C 
BRANCH  11  12
HETATM   12  C6  UNL     1     -39.275  17.426  15.200  1.00  0.00     0.007 C 
BRANCH  12  13
HETATM   13  C7  UNL     1     -38.824  16.236  14.395  1.00  0.00    -0.014 C 
HETATM   14  C8  UNL     1     -37.322  16.475  14.139  1.00  0.00     0.004 C 
HETATM   15  C9  UNL     1     -36.959  15.621  12.951  1.00  0.00     0.000 C 
HETATM   16  C10 UNL     1     -36.826  14.191  13.468  1.00  0.00     0.000 C 
HETATM   17  C11 UNL     1     -38.132  13.511  13.238  1.00  0.00     0.000 C 
HETATM   18  C12 UNL     1     -39.170  13.755  14.268  1.00  0.00     0.000 C 
HETATM   19  C13 UNL     1     -38.925  14.957  15.144  1.00  0.00     0.004 C 
ENDBRANCH  12  13
ENDBRANCH  11  12
ENDBRANCH   7  11
BRANCH   1  20
HETATM   20  N1  UNL     1     -42.781  19.193  17.779  1.00  0.00    -0.033 N 
ATOM     21  H13 UNL     1     -43.106  19.832  18.504  1.00  0.00     0.278 HD
ATOM     22  H12 UNL     1     -43.407  18.419  17.998  1.00  0.00     0.278 HD
ATOM     23  H11 UNL     1     -41.794  18.950  17.872  1.00  0.00     0.278 HD
ENDBRANCH   1  20
TORSDOF 4
ENDMDL
