MODEL 1
REMARK VINA RESULT: -4.997566316      0.000      0.000
REMARK  6 active torsions:
REMARK  status: ('A' for Active; 'I' for Inactive)
REMARK    1  A    between atoms: C2_2  and  O1_3 
REMARK    2  A    between atoms: C2_2  and  C3_5 
REMARK    3  A    between atoms: C3_5  and  O2_6 
REMARK    4  A    between atoms: C3_5  and  C4_8 
REMARK    5  A    between atoms: C4_8  and  C5_9 
REMARK    6  A    between atoms: C5_9  and  O3_10 
ROOT
HETATM    1  C4  UNL     1     -38.962  14.906  14.967  1.00  0.00     0.019 C 
HETATM    2  C6  UNL     1     -37.619  15.280  15.586  1.00  0.00    -0.005 C 
HETATM    3  C7  UNL     1     -36.499  15.522  14.659  1.00  0.00     0.011 C 
HETATM    4  C8  UNL     1     -37.786  16.330  16.668  1.00  0.00     0.005 C 
HETATM    5  C9  UNL     1     -38.668  15.711  17.725  1.00  0.00     0.001 C 
HETATM    6  C10 UNL     1     -39.108  14.336  17.423  1.00  0.00     0.010 C 
HETATM    7  C11 UNL     1     -39.654  14.100  16.020  1.00  0.00    -0.035 C 
HETATM    8  C12 UNL     1     -39.527  12.592  15.874  1.00  0.00     0.016 C 
HETATM    9  C13 UNL     1     -41.147  14.316  16.158  1.00  0.00     0.016 C 
ENDROOT
BRANCH   1  10
HETATM   10  C3  UNL     1     -39.790  16.086  14.636  1.00  0.00     0.158 C 
BRANCH  10  11
HETATM   11  C2  UNL     1     -39.461  17.430  15.168  1.00  0.00     0.143 C 
HETATM   12  C1  UNL     1     -39.087  18.471  14.136  1.00  0.00     0.042 C 
BRANCH  11  13
HETATM   13  O1  UNL     1     -40.697  17.940  15.689  1.00  0.00    -0.393 OA
ATOM     14  H1  UNL     1     -40.426  18.338  16.508  1.00  0.00     0.210 HD
ENDBRANCH  11  13
ENDBRANCH  10  11
BRANCH  10  15
HETATM   15  O2  UNL     1     -39.918  16.292  13.270  1.00  0.00    -0.392 OA
ATOM     16  H2  UNL     1     -40.275  15.473  12.949  1.00  0.00     0.210 HD
ENDBRANCH  10  15
ENDBRANCH   1  10
BRANCH   1  17
HETATM   17  C5  UNL     1     -38.614  14.070  13.760  1.00  0.00     0.177 C 
BRANCH  17  18
HETATM   18  O3  UNL     1     -39.713  13.666  13.022  1.00  0.00    -0.400 OA
ATOM     19  H3  UNL     1     -39.596  13.744  12.083  1.00  0.00     0.209 HD
ENDBRANCH  17  18
ENDBRANCH   1  17
TORSDOF 6
ENDMDL
MODEL 2
REMARK VINA RESULT: -4.463637607      1.639      3.649
REMARK  6 active torsions:
REMARK  status: ('A' for Active; 'I' for Inactive)
REMARK    1  A    between atoms: C2_2  and  O1_3 
REMARK    2  A    between atoms: C2_2  and  C3_5 
REMARK    3  A    between atoms: C3_5  and  O2_6 
REMARK    4  A    between atoms: C3_5  and  C4_8 
REMARK    5  A    between atoms: C4_8  and  C5_9 
REMARK    6  A    between atoms: C5_9  and  O3_10 
ROOT
HETATM    1  C4  UNL     1     -38.775  15.179  15.699  1.00  0.00     0.019 C 
HETATM    2  C6  UNL     1     -38.978  13.676  15.856  1.00  0.00    -0.005 C 
HETATM    3  C7  UNL     1     -39.194  13.169  17.223  1.00  0.00     0.011 C 
HETATM    4  C8  UNL     1     -39.949  13.141  14.820  1.00  0.00     0.005 C 
HETATM    5  C9  UNL     1     -39.327  13.423  13.474  1.00  0.00     0.001 C 
HETATM    6  C10 UNL     1     -38.025  14.112  13.535  1.00  0.00     0.010 C 
HETATM    7  C11 UNL     1     -37.951  15.323  14.458  1.00  0.00    -0.035 C 
HETATM    8  C12 UNL     1     -36.454  15.467  14.683  1.00  0.00     0.016 C 
HETATM    9  C13 UNL     1     -38.286  16.498  13.562  1.00  0.00     0.016 C 
ENDROOT
BRANCH   1  10
HETATM   10  C3  UNL     1     -40.045  15.915  15.526  1.00  0.00     0.158 C 
BRANCH  10  11
HETATM   11  C2  UNL     1     -41.186  15.707  16.450  1.00  0.00     0.143 C 
HETATM   12  C1  UNL     1     -41.498  16.862  17.378  1.00  0.00     0.042 C 
BRANCH  11  13
HETATM   13  O1  UNL     1     -42.347  15.664  15.608  1.00  0.00    -0.393 OA
ATOM     14  H1  UNL     1     -41.996  15.909  14.760  1.00  0.00     0.210 HD
ENDBRANCH  11  13
ENDBRANCH  10  11
BRANCH  10  15
HETATM   15  O2  UNL     1     -39.877  17.292  15.511  1.00  0.00    -0.392 OA
ATOM     16  H2  UNL     1     -39.773  17.518  16.428  1.00  0.00     0.210 HD
ENDBRANCH  10  15
ENDBRANCH   1  10
BRANCH   1  17
HETATM   17  C5  UNL     1     -38.011  15.598  16.930  1.00  0.00     0.177 C 
BRANCH  17  18
HETATM   18  O3  UNL     1     -37.762  16.959  16.999  1.00  0.00    -0.400 OA
ATOM     19  H3  UNL     1     -37.845  17.407  16.166  1.00  0.00     0.209 HD
ENDBRANCH  17  18
ENDBRANCH   1  17
TORSDOF 6
ENDMDL
MODEL 3
REMARK VINA RESULT: -4.200526723      4.482      5.766
REMARK  6 active torsions:
REMARK  status: ('A' for Active; 'I' for Inactive)
REMARK    1  A    between atoms: C2_2  and  O1_3 
REMARK    2  A    between atoms: C2_2  and  C3_5 
REMARK    3  A    between atoms: C3_5  and  O2_6 
REMARK    4  A    between atoms: C3_5  and  C4_8 
REMARK    5  A    between atoms: C4_8  and  C5_9 
REMARK    6  A    between atoms: C5_9  and  O3_10 
ROOT
HETATM    1  C4  UNL     1     -43.344  17.571  16.392  1.00  0.00     0.019 C 
HETATM    2  C6  UNL     1     -42.077  18.341  16.034  1.00  0.00    -0.005 C 
HETATM    3  C7  UNL     1     -41.196  17.743  15.015  1.00  0.00     0.011 C 
HETATM    4  C8  UNL     1     -42.369  19.816  15.833  1.00  0.00     0.005 C 
HETATM    5  C9  UNL     1     -42.906  20.324  17.149  1.00  0.00     0.001 C 
HETATM    6  C10 UNL     1     -43.003  19.298  18.204  1.00  0.00     0.010 C 
HETATM    7  C11 UNL     1     -43.650  17.979  17.799  1.00  0.00    -0.035 C 
HETATM    8  C12 UNL     1     -43.150  17.030  18.876  1.00  0.00     0.016 C 
HETATM    9  C13 UNL     1     -45.115  18.159  18.141  1.00  0.00     0.016 C 
ENDROOT
BRANCH   1  10
HETATM   10  C3  UNL     1     -44.491  17.917  15.525  1.00  0.00     0.158 C 
BRANCH  10  11
HETATM   11  C2  UNL     1     -44.458  17.656  14.066  1.00  0.00     0.143 C 
HETATM   12  C1  UNL     1     -45.614  16.847  13.518  1.00  0.00     0.042 C 
BRANCH  11  13
HETATM   13  O1  UNL     1     -44.656  18.937  13.452  1.00  0.00    -0.393 OA
ATOM     14  H1  UNL     1     -45.513  19.190  13.775  1.00  0.00     0.210 HD
ENDBRANCH  11  13
ENDBRANCH  10  11
BRANCH  10  15
HETATM   15  O2  UNL     1     -45.679  17.333  15.940  1.00  0.00    -0.392 OA
ATOM     16  H2  UNL     1     -45.420  16.463  16.217  1.00  0.00     0.210 HD
ENDBRANCH  10  15
ENDBRANCH   1  10
BRANCH   1  17
HETATM   17  C5  UNL     1     -42.952  16.117  16.303  1.00  0.00     0.177 C 
BRANCH  17  18
HETATM   18  O3  UNL     1     -44.027  15.245  16.327  1.00  0.00    -0.400 OA
ATOM     19  H3  UNL     1     -44.726  15.512  16.911  1.00  0.00     0.209 HD
ENDBRANCH  17  18
ENDBRANCH   1  17
TORSDOF 6
ENDMDL
MODEL 4
REMARK VINA RESULT: -4.198549466      1.790      3.553
REMARK  6 active torsions:
REMARK  status: ('A' for Active; 'I' for Inactive)
REMARK    1  A    between atoms: C2_2  and  O1_3 
REMARK    2  A    between atoms: C2_2  and  C3_5 
REMARK    3  A    between atoms: C3_5  and  O2_6 
REMARK    4  A    between atoms: C3_5  and  C4_8 
REMARK    5  A    between atoms: C4_8  and  C5_9 
REMARK    6  A    between atoms: C5_9  and  O3_10 
ROOT
HETATM    1  C4  UNL     1     -39.054  14.998  15.779  1.00  0.00     0.019 C 
HETATM    2  C6  UNL     1     -38.124  15.924  15.002  1.00  0.00    -0.005 C 
HETATM    3  C7  UNL     1     -36.779  15.410  14.686  1.00  0.00     0.011 C 
HETATM    4  C8  UNL     1     -38.844  16.574  13.836  1.00  0.00     0.005 C 
HETATM    5  C9  UNL     1     -39.969  17.384  14.433  1.00  0.00     0.001 C 
HETATM    6  C10 UNL     1     -40.058  17.313  15.904  1.00  0.00     0.010 C 
HETATM    7  C11 UNL     1     -39.978  15.918  16.513  1.00  0.00    -0.035 C 
HETATM    8  C12 UNL     1     -39.592  16.216  17.953  1.00  0.00     0.016 C 
HETATM    9  C13 UNL     1     -41.422  15.473  16.621  1.00  0.00     0.016 C 
ENDROOT
BRANCH   1  10
HETATM   10  C3  UNL     1     -39.847  14.112  14.901  1.00  0.00     0.158 C 
BRANCH  10  11
HETATM   11  C2  UNL     1     -39.212  13.355  13.795  1.00  0.00     0.143 C 
HETATM   12  C1  UNL     1     -39.037  11.871  14.031  1.00  0.00     0.042 C 
BRANCH  11  13
HETATM   13  O1  UNL     1     -40.164  13.389  12.722  1.00  0.00    -0.393 OA
ATOM     14  H1  UNL     1     -40.389  14.310  12.675  1.00  0.00     0.210 HD
ENDBRANCH  11  13
ENDBRANCH  10  11
BRANCH  10  15
HETATM   15  O2  UNL     1     -40.554  13.145  15.601  1.00  0.00    -0.392 OA
ATOM     16  H2  UNL     1     -41.393  13.111  15.158  1.00  0.00     0.210 HD
ENDBRANCH  10  15
ENDBRANCH   1  10
BRANCH   1  17
HETATM   17  C5  UNL     1     -38.151  14.242  16.721  1.00  0.00     0.177 C 
BRANCH  17  18
HETATM   18  O3  UNL     1     -38.782  13.211  17.396  1.00  0.00    -0.400 OA
ATOM     19  H3  UNL     1     -38.707  13.267  18.341  1.00  0.00     0.209 HD
ENDBRANCH  17  18
ENDBRANCH   1  17
TORSDOF 6
ENDMDL
MODEL 5
REMARK VINA RESULT: -4.183289034      1.514      2.394
REMARK  6 active torsions:
REMARK  status: ('A' for Active; 'I' for Inactive)
REMARK    1  A    between atoms: C2_2  and  O1_3 
REMARK    2  A    between atoms: C2_2  and  C3_5 
REMARK    3  A    between atoms: C3_5  and  O2_6 
REMARK    4  A    between atoms: C3_5  and  C4_8 
REMARK    5  A    between atoms: C4_8  and  C5_9 
REMARK    6  A    between atoms: C5_9  and  O3_10 
ROOT
HETATM    1  C4  UNL     1     -39.466  15.184  15.734  1.00  0.00     0.019 C 
HETATM    2  C6  UNL     1     -38.412  14.672  14.759  1.00  0.00    -0.005 C 
HETATM    3  C7  UNL     1     -38.888  14.204  13.444  1.00  0.00     0.011 C 
HETATM    4  C8  UNL     1     -37.214  15.601  14.705  1.00  0.00     0.005 C 
HETATM    5  C9  UNL     1     -36.635  15.624  16.098  1.00  0.00     0.001 C 
HETATM    6  C10 UNL     1     -37.361  14.790  17.075  1.00  0.00     0.010 C 
HETATM    7  C11 UNL     1     -38.877  14.943  17.089  1.00  0.00    -0.035 C 
HETATM    8  C12 UNL     1     -39.324  13.661  17.774  1.00  0.00     0.016 C 
HETATM    9  C13 UNL     1     -39.137  16.009  18.133  1.00  0.00     0.016 C 
ENDROOT
BRANCH   1  10
HETATM   10  C3  UNL     1     -39.743  16.627  15.575  1.00  0.00     0.158 C 
BRANCH  10  11
HETATM   11  C2  UNL     1     -40.212  17.183  14.283  1.00  0.00     0.143 C 
HETATM   12  C1  UNL     1     -41.434  18.074  14.357  1.00  0.00     0.042 C 
BRANCH  11  13
HETATM   13  O1  UNL     1     -39.186  18.097  13.872  1.00  0.00    -0.393 OA
ATOM     14  H1  UNL     1     -39.577  18.942  14.057  1.00  0.00     0.210 HD
ENDBRANCH  11  13
ENDBRANCH  10  11
BRANCH  10  15
HETATM   15  O2  UNL     1     -40.662  17.108  16.497  1.00  0.00    -0.392 OA
ATOM     16  H2  UNL     1     -40.577  16.515  17.233  1.00  0.00     0.210 HD
ENDBRANCH  10  15
ENDBRANCH   1  10
BRANCH   1  17
HETATM   17  C5  UNL     1     -40.676  14.318  15.487  1.00  0.00     0.177 C 
BRANCH  17  18
HETATM   18  O3  UNL     1     -41.868  14.891  15.900  1.00  0.00    -0.400 OA
ATOM     19  H3  UNL     1     -41.870  15.159  16.811  1.00  0.00     0.209 HD
ENDBRANCH  17  18
ENDBRANCH   1  17
TORSDOF 6
ENDMDL
