MODEL 1
REMARK VINA RESULT: -7.998418574      0.000      0.000
REMARK  9 active torsions:
REMARK  status: ('A' for Active; 'I' for Inactive)
REMARK    1  A    between atoms: O1_2  and  C2_3 
REMARK    2  A    between atoms: C5_6  and  N1_7 
REMARK    3  A    between atoms: N1_7  and  C6_9 
REMARK    4  A    between atoms: C6_9  and  C7_10 
REMARK    5  A    between atoms: C7_10  and  N2_11 
REMARK    6  A    between atoms: C9_16  and  C10_17 
REMARK    7  A    between atoms: C10_17  and  O2_20 
REMARK    8  A    between atoms: C15_27  and  O4_28 
REMARK    9  A    between atoms: C17_30  and  O5_31 
ROOT
HETATM    1  C2  UNL     1       3.341   2.420  17.374  1.00  0.00     0.105 A 
HETATM    2  C3  UNL     1       3.093   2.947  18.644  1.00  0.00     0.055 A 
HETATM    3  C4  UNL     1       2.722   4.272  18.790  1.00  0.00     0.024 A 
HETATM    4  C5  UNL     1       2.446   4.803  20.069  1.00  0.00     0.055 A 
HETATM    5  C9  UNL     1       2.046   6.143  20.185  1.00  0.00     0.070 A 
HETATM    6  C13 UNL     1       1.932   6.916  19.038  1.00  0.00     0.257 A 
HETATM    7  O3  UNL     1       1.576   8.106  19.147  1.00  0.00    -0.267 OA
HETATM    8  N5  UNL     1       2.203   6.381  17.828  1.00  0.00    -0.320 N 
ATOM      9  H5  UNL     1       2.116   6.959  16.991  1.00  0.00     0.169 HD
HETATM   10  C14 UNL     1       2.585   5.106  17.711  1.00  0.00     0.084 A 
HETATM   11  C15 UNL     1       2.829   4.589  16.451  1.00  0.00     0.132 A 
HETATM   12  C17 UNL     1       3.198   3.271  16.316  1.00  0.00     0.137 A 
ENDROOT
BRANCH   4  13
HETATM   13  N1  UNL     1       2.585   3.910  21.124  1.00  0.00    -0.387 N 
ATOM     14  H1  UNL     1       1.718   3.612  21.570  1.00  0.00     0.159 HD
BRANCH  13  15
HETATM   15  C6  UNL     1       3.771   3.361  21.658  1.00  0.00     0.139 C 
BRANCH  15  16
HETATM   16  C7  UNL     1       3.659   2.585  22.952  1.00  0.00     0.141 C 
BRANCH  16  17
HETATM   17  N2  UNL     1       3.582   1.140  22.647  1.00  0.00    -0.365 N 
HETATM   18  C8  UNL     1       3.605   0.243  23.552  1.00  0.00     0.197 C 
HETATM   19  N3  UNL     1       3.525  -1.116  23.145  1.00  0.00    -0.067 NA
HETATM   20  N4  UNL     1       3.706   0.602  24.924  1.00  0.00    -0.067 NA
ATOM     21  H2  UNL     1       3.507   0.850  21.672  1.00  0.00     0.161 HD
ENDBRANCH  16  17
ENDBRANCH  15  16
ENDBRANCH  13  15
ENDBRANCH   4  13
BRANCH   5  22
HETATM   22  C10 UNL     1       1.766   6.687  21.512  1.00  0.00     0.085 C 
HETATM   23  C11 UNL     1       0.231   6.649  21.782  1.00  0.00     0.051 C 
HETATM   24  C12 UNL     1       2.115   8.143  21.697  1.00  0.00     0.051 C 
BRANCH  22  25
HETATM   25  O2  UNL     1       2.414   6.020  22.550  1.00  0.00    -0.386 OA
ATOM     26  H2  UNL     1       2.829   6.595  23.182  1.00  0.00     0.211 HD
ENDBRANCH  22  25
ENDBRANCH   5  22
BRANCH   1  27
HETATM   27  O1  UNL     1       3.715   1.095  17.197  1.00  0.00    -0.353 OA
HETATM   28  C1  UNL     1       2.767   0.065  17.179  1.00  0.00     0.210 C 
ENDBRANCH   1  27
BRANCH  11  29
HETATM   29  O4  UNL     1       2.691   5.430  15.361  1.00  0.00    -0.351 OA
HETATM   30  C16 UNL     1       3.760   5.705  14.483  1.00  0.00     0.210 C 
ENDBRANCH  11  29
BRANCH  12  31
HETATM   31  O5  UNL     1       3.433   2.796  15.035  1.00  0.00    -0.351 OA
HETATM   32  C18 UNL     1       2.364   2.174  14.347  1.00  0.00     0.210 C 
ENDBRANCH  12  31
TORSDOF 9
ENDMDL
MODEL 2
REMARK VINA RESULT: -7.336024287      2.762      6.070
REMARK  9 active torsions:
REMARK  status: ('A' for Active; 'I' for Inactive)
REMARK    1  A    between atoms: O1_2  and  C2_3 
REMARK    2  A    between atoms: C5_6  and  N1_7 
REMARK    3  A    between atoms: N1_7  and  C6_9 
REMARK    4  A    between atoms: C6_9  and  C7_10 
REMARK    5  A    between atoms: C7_10  and  N2_11 
REMARK    6  A    between atoms: C9_16  and  C10_17 
REMARK    7  A    between atoms: C10_17  and  O2_20 
REMARK    8  A    between atoms: C15_27  and  O4_28 
REMARK    9  A    between atoms: C17_30  and  O5_31 
ROOT
HETATM    1  C2  UNL     1       2.879   3.958  21.459  1.00  0.00     0.105 A 
HETATM    2  C3  UNL     1       3.114   3.497  20.161  1.00  0.00     0.055 A 
HETATM    3  C4  UNL     1       2.884   4.324  19.075  1.00  0.00     0.024 A 
HETATM    4  C5  UNL     1       3.144   3.872  17.763  1.00  0.00     0.055 A 
HETATM    5  C9  UNL     1       2.928   4.740  16.682  1.00  0.00     0.070 A 
HETATM    6  C13 UNL     1       2.462   6.024  16.929  1.00  0.00     0.257 A 
HETATM    7  O3  UNL     1       2.272   6.792  15.965  1.00  0.00    -0.267 OA
HETATM    8  N5  UNL     1       2.222   6.428  18.195  1.00  0.00    -0.320 N 
ATOM      9  H5  UNL     1       1.881   7.375  18.365  1.00  0.00     0.169 HD
HETATM   10  C14 UNL     1       2.426   5.606  19.228  1.00  0.00     0.084 A 
HETATM   11  C15 UNL     1       2.192   6.067  20.512  1.00  0.00     0.132 A 
HETATM   12  C17 UNL     1       2.422   5.239  21.585  1.00  0.00     0.137 A 
ENDROOT
BRANCH   4  13
HETATM   13  N1  UNL     1       3.622   2.571  17.668  1.00  0.00    -0.387 N 
ATOM     14  H1  UNL     1       4.635   2.475  17.604  1.00  0.00     0.159 HD
BRANCH  13  15
HETATM   15  C6  UNL     1       2.888   1.365  17.648  1.00  0.00     0.139 C 
BRANCH  15  16
HETATM   16  C7  UNL     1       2.659   0.709  16.305  1.00  0.00     0.141 C 
BRANCH  16  17
HETATM   17  N2  UNL     1       3.073  -0.708  16.379  1.00  0.00    -0.365 N 
HETATM   18  C8  UNL     1       4.181  -1.128  15.909  1.00  0.00     0.197 C 
HETATM   19  N3  UNL     1       4.476  -2.512  16.036  1.00  0.00    -0.067 NA
HETATM   20  N4  UNL     1       5.087  -0.230  15.282  1.00  0.00    -0.067 NA
ATOM     21  H2  UNL     1       2.446  -1.378  16.825  1.00  0.00     0.161 HD
ENDBRANCH  16  17
ENDBRANCH  15  16
ENDBRANCH  13  15
ENDBRANCH   4  13
BRANCH   5  22
HETATM   22  C10 UNL     1       3.194   4.264  15.326  1.00  0.00     0.085 C 
HETATM   23  C11 UNL     1       3.831   5.411  14.483  1.00  0.00     0.051 C 
HETATM   24  C12 UNL     1       1.972   3.883  14.526  1.00  0.00     0.051 C 
BRANCH  22  25
HETATM   25  O2  UNL     1       4.032   3.153  15.266  1.00  0.00    -0.386 OA
ATOM     26  H2  UNL     1       3.598   2.353  14.995  1.00  0.00     0.211 HD
ENDBRANCH  22  25
ENDBRANCH   5  22
BRANCH   1  27
HETATM   27  O1  UNL     1       3.099   3.152  22.567  1.00  0.00    -0.353 OA
HETATM   28  C1  UNL     1       4.200   2.288  22.635  1.00  0.00     0.210 C 
ENDBRANCH   1  27
BRANCH  11  29
HETATM   29  O4  UNL     1       1.729   7.362  20.667  1.00  0.00    -0.351 OA
HETATM   30  C16 UNL     1       0.356   7.660  20.786  1.00  0.00     0.210 C 
ENDBRANCH  11  29
BRANCH  12  31
HETATM   31  O5  UNL     1       2.174   5.742  22.852  1.00  0.00    -0.351 OA
HETATM   32  C18 UNL     1       3.009   6.777  23.335  1.00  0.00     0.210 C 
ENDBRANCH  12  31
TORSDOF 9
ENDMDL
MODEL 3
REMARK VINA RESULT: -7.030813701      1.127      1.149
REMARK  9 active torsions:
REMARK  status: ('A' for Active; 'I' for Inactive)
REMARK    1  A    between atoms: O1_2  and  C2_3 
REMARK    2  A    between atoms: C5_6  and  N1_7 
REMARK    3  A    between atoms: N1_7  and  C6_9 
REMARK    4  A    between atoms: C6_9  and  C7_10 
REMARK    5  A    between atoms: C7_10  and  N2_11 
REMARK    6  A    between atoms: C9_16  and  C10_17 
REMARK    7  A    between atoms: C10_17  and  O2_20 
REMARK    8  A    between atoms: C15_27  and  O4_28 
REMARK    9  A    between atoms: C17_30  and  O5_31 
ROOT
HETATM    1  C2  UNL     1       3.442   2.165  17.206  1.00  0.00     0.105 A 
HETATM    2  C3  UNL     1       3.286   2.671  18.499  1.00  0.00     0.055 A 
HETATM    3  C4  UNL     1       2.905   3.988  18.691  1.00  0.00     0.024 A 
HETATM    4  C5  UNL     1       2.721   4.498  19.995  1.00  0.00     0.055 A 
HETATM    5  C9  UNL     1       2.309   5.829  20.160  1.00  0.00     0.070 A 
HETATM    6  C13 UNL     1       2.092   6.614  19.036  1.00  0.00     0.257 A 
HETATM    7  O3  UNL     1       1.725   7.796  19.188  1.00  0.00    -0.267 OA
HETATM    8  N5  UNL     1       2.276   6.098  17.801  1.00  0.00    -0.320 N 
ATOM      9  H5  UNL     1       2.112   6.685  16.982  1.00  0.00     0.169 HD
HETATM   10  C14 UNL     1       2.669   4.832  17.637  1.00  0.00     0.084 A 
HETATM   11  C15 UNL     1       2.821   4.335  16.355  1.00  0.00     0.132 A 
HETATM   12  C17 UNL     1       3.201   3.026  16.174  1.00  0.00     0.137 A 
ENDROOT
BRANCH   4  13
HETATM   13  N1  UNL     1       2.959   3.595  21.023  1.00  0.00    -0.387 N 
ATOM     14  H1  UNL     1       2.135   3.127  21.401  1.00  0.00     0.159 HD
BRANCH  13  15
HETATM   15  C6  UNL     1       4.192   3.241  21.613  1.00  0.00     0.139 C 
BRANCH  15  16
HETATM   16  C7  UNL     1       4.147   2.454  22.904  1.00  0.00     0.141 C 
BRANCH  16  17
HETATM   17  N2  UNL     1       4.757   1.125  22.685  1.00  0.00    -0.365 N 
HETATM   18  C8  UNL     1       5.920   0.822  23.111  1.00  0.00     0.197 C 
HETATM   19  N3  UNL     1       6.407  -0.485  22.842  1.00  0.00    -0.067 NA
HETATM   20  N4  UNL     1       6.695   1.769  23.833  1.00  0.00    -0.067 NA
ATOM     21  H2  UNL     1       4.225   0.422  22.171  1.00  0.00     0.161 HD
ENDBRANCH  16  17
ENDBRANCH  15  16
ENDBRANCH  13  15
ENDBRANCH   4  13
BRANCH   5  22
HETATM   22  C10 UNL     1       2.126   6.352  21.512  1.00  0.00     0.085 C 
HETATM   23  C11 UNL     1       1.231   7.627  21.465  1.00  0.00     0.051 C 
HETATM   24  C12 UNL     1       3.384   6.836  22.190  1.00  0.00     0.051 C 
BRANCH  22  25
HETATM   25  O2  UNL     1       1.557   5.445  22.403  1.00  0.00    -0.386 OA
ATOM     26  H2  UNL     1       1.502   5.759  23.297  1.00  0.00     0.211 HD
ENDBRANCH  22  25
ENDBRANCH   5  22
BRANCH   1  27
HETATM   27  O1  UNL     1       3.823   0.849  16.982  1.00  0.00    -0.353 OA
HETATM   28  C1  UNL     1       2.886  -0.192  16.970  1.00  0.00     0.210 C 
ENDBRANCH   1  27
BRANCH  11  29
HETATM   29  O4  UNL     1       2.583   5.187  15.291  1.00  0.00    -0.351 OA
HETATM   30  C16 UNL     1       3.594   5.547  14.376  1.00  0.00     0.210 C 
ENDBRANCH  11  29
BRANCH  12  31
HETATM   31  O5  UNL     1       3.342   2.570  14.873  1.00  0.00    -0.351 OA
HETATM   32  C18 UNL     1       2.212   2.005  14.236  1.00  0.00     0.210 C 
ENDBRANCH  12  31
TORSDOF 9
ENDMDL
MODEL 4
REMARK VINA RESULT: -6.992868662      5.640      9.734
REMARK  9 active torsions:
REMARK  status: ('A' for Active; 'I' for Inactive)
REMARK    1  A    between atoms: O1_2  and  C2_3 
REMARK    2  A    between atoms: C5_6  and  N1_7 
REMARK    3  A    between atoms: N1_7  and  C6_9 
REMARK    4  A    between atoms: C6_9  and  C7_10 
REMARK    5  A    between atoms: C7_10  and  N2_11 
REMARK    6  A    between atoms: C9_16  and  C10_17 
REMARK    7  A    between atoms: C10_17  and  O2_20 
REMARK    8  A    between atoms: C15_27  and  O4_28 
REMARK    9  A    between atoms: C17_30  and  O5_31 
ROOT
HETATM    1  C2  UNL     1       9.194   2.700  23.552  1.00  0.00     0.105 A 
HETATM    2  C3  UNL     1       7.948   2.068  23.580  1.00  0.00     0.055 A 
HETATM    3  C4  UNL     1       7.693   1.071  24.505  1.00  0.00     0.024 A 
HETATM    4  C5  UNL     1       6.427   0.447  24.555  1.00  0.00     0.055 A 
HETATM    5  C9  UNL     1       6.187  -0.543  25.520  1.00  0.00     0.070 A 
HETATM    6  C13 UNL     1       7.202  -0.887  26.403  1.00  0.00     0.257 A 
HETATM    7  O3  UNL     1       6.983  -1.767  27.259  1.00  0.00    -0.267 OA
HETATM    8  N5  UNL     1       8.403  -0.273  26.331  1.00  0.00    -0.320 N 
ATOM      9  H5  UNL     1       9.141  -0.533  26.986  1.00  0.00     0.169 HD
HETATM   10  C14 UNL     1       8.637   0.670  25.414  1.00  0.00     0.084 A 
HETATM   11  C15 UNL     1       9.872   1.293  25.390  1.00  0.00     0.132 A 
HETATM   12  C17 UNL     1      10.117   2.283  24.467  1.00  0.00     0.137 A 
ENDROOT
BRANCH   4  13
HETATM   13  N1  UNL     1       5.505   0.902  23.622  1.00  0.00    -0.387 N 
ATOM     14  H1  UNL     1       5.493   0.406  22.731  1.00  0.00     0.159 HD
BRANCH  13  15
HETATM   15  C6  UNL     1       4.581   1.963  23.746  1.00  0.00     0.139 C 
BRANCH  15  16
HETATM   16  C7  UNL     1       3.472   2.047  22.721  1.00  0.00     0.141 C 
BRANCH  16  17
HETATM   17  N2  UNL     1       3.986   2.707  21.502  1.00  0.00    -0.365 N 
HETATM   18  C8  UNL     1       3.502   3.799  21.054  1.00  0.00     0.197 C 
HETATM   19  N3  UNL     1       4.073   4.344  19.873  1.00  0.00    -0.067 NA
HETATM   20  N4  UNL     1       2.427   4.442  21.725  1.00  0.00    -0.067 NA
ATOM     21  H2  UNL     1       4.758   2.271  20.998  1.00  0.00     0.161 HD
ENDBRANCH  16  17
ENDBRANCH  15  16
ENDBRANCH  13  15
ENDBRANCH   4  13
BRANCH   5  22
HETATM   22  C10 UNL     1       4.877  -1.188  25.563  1.00  0.00     0.085 C 
HETATM   23  C11 UNL     1       3.873  -0.285  26.343  1.00  0.00     0.051 C 
HETATM   24  C12 UNL     1       4.827  -2.494  26.318  1.00  0.00     0.051 C 
BRANCH  22  25
HETATM   25  O2  UNL     1       4.337  -1.468  24.310  1.00  0.00    -0.386 OA
ATOM     26  H2  UNL     1       4.012  -0.706  23.847  1.00  0.00     0.211 HD
ENDBRANCH  22  25
ENDBRANCH   5  22
BRANCH   1  27
HETATM   27  O1  UNL     1       9.479   3.703  22.635  1.00  0.00    -0.353 OA
HETATM   28  C1  UNL     1       8.757   4.904  22.619  1.00  0.00     0.210 C 
ENDBRANCH   1  27
BRANCH  11  29
HETATM   29  O4  UNL     1      10.826   0.889  26.307  1.00  0.00    -0.351 OA
HETATM   30  C16 UNL     1      10.946   1.486  27.579  1.00  0.00     0.210 C 
ENDBRANCH  11  29
BRANCH  12  31
HETATM   31  O5  UNL     1      11.368   2.879  24.478  1.00  0.00    -0.351 OA
HETATM   32  C18 UNL     1      11.498   4.148  25.091  1.00  0.00     0.210 C 
ENDBRANCH  12  31
TORSDOF 9
ENDMDL
MODEL 5
REMARK VINA RESULT: -6.727391632      5.006      9.066
REMARK  9 active torsions:
REMARK  status: ('A' for Active; 'I' for Inactive)
REMARK    1  A    between atoms: O1_2  and  C2_3 
REMARK    2  A    between atoms: C5_6  and  N1_7 
REMARK    3  A    between atoms: N1_7  and  C6_9 
REMARK    4  A    between atoms: C6_9  and  C7_10 
REMARK    5  A    between atoms: C7_10  and  N2_11 
REMARK    6  A    between atoms: C9_16  and  C10_17 
REMARK    7  A    between atoms: C10_17  and  O2_20 
REMARK    8  A    between atoms: C15_27  and  O4_28 
REMARK    9  A    between atoms: C17_30  and  O5_31 
ROOT
HETATM    1  C2  UNL     1       9.130   2.870  23.225  1.00  0.00     0.105 A 
HETATM    2  C3  UNL     1       7.823   2.485  22.917  1.00  0.00     0.055 A 
HETATM    3  C4  UNL     1       7.183   1.522  23.678  1.00  0.00     0.024 A 
HETATM    4  C5  UNL     1       5.852   1.147  23.387  1.00  0.00     0.055 A 
HETATM    5  C9  UNL     1       5.219   0.187  24.191  1.00  0.00     0.070 A 
HETATM    6  C13 UNL     1       5.915  -0.372  25.253  1.00  0.00     0.257 A 
HETATM    7  O3  UNL     1       5.347  -1.224  25.964  1.00  0.00    -0.267 OA
HETATM    8  N5  UNL     1       7.187   0.006  25.506  1.00  0.00    -0.320 N 
ATOM      9  H5  UNL     1       7.689  -0.411  26.291  1.00  0.00     0.169 HD
HETATM   10  C14 UNL     1       7.796   0.919  24.745  1.00  0.00     0.084 A 
HETATM   11  C15 UNL     1       9.091   1.298  25.053  1.00  0.00     0.132 A 
HETATM   12  C17 UNL     1       9.719   2.254  24.292  1.00  0.00     0.137 A 
ENDROOT
BRANCH   4  13
HETATM   13  N1  UNL     1       5.275   1.801  22.306  1.00  0.00    -0.387 N 
ATOM     14  H1  UNL     1       5.488   1.411  21.388  1.00  0.00     0.159 HD
BRANCH  13  15
HETATM   15  C6  UNL     1       4.434   2.935  22.313  1.00  0.00     0.139 C 
BRANCH  15  16
HETATM   16  C7  UNL     1       4.554   3.899  21.154  1.00  0.00     0.141 C 
BRANCH  16  17
HETATM   17  N2  UNL     1       3.970   3.281  19.944  1.00  0.00    -0.365 N 
HETATM   18  C8  UNL     1       3.145   3.891  19.188  1.00  0.00     0.197 C 
HETATM   19  N3  UNL     1       2.647   3.198  18.052  1.00  0.00    -0.067 NA
HETATM   20  N4  UNL     1       2.745   5.223  19.481  1.00  0.00    -0.067 NA
ATOM     21  H2  UNL     1       4.239   2.325  19.706  1.00  0.00     0.161 HD
ENDBRANCH  16  17
ENDBRANCH  15  16
ENDBRANCH  13  15
ENDBRANCH   4  13
BRANCH   5  22
HETATM   22  C10 UNL     1       3.844  -0.199  23.881  1.00  0.00     0.085 C 
HETATM   23  C11 UNL     1       2.853   0.793  24.564  1.00  0.00     0.051 C 
HETATM   24  C12 UNL     1       3.416  -1.542  24.421  1.00  0.00     0.051 C 
BRANCH  22  25
HETATM   25  O2  UNL     1       3.556  -0.244  22.519  1.00  0.00    -0.386 OA
ATOM     26  H2  UNL     1       2.736   0.171  22.281  1.00  0.00     0.211 HD
ENDBRANCH  22  25
ENDBRANCH   5  22
BRANCH   1  27
HETATM   27  O1  UNL     1       9.798   3.833  22.480  1.00  0.00    -0.353 OA
HETATM   28  C1  UNL     1       9.297   5.134  22.351  1.00  0.00     0.210 C 
ENDBRANCH   1  27
BRANCH  11  29
HETATM   29  O4  UNL     1       9.710   0.689  26.130  1.00  0.00    -0.351 OA
HETATM   30  C16 UNL     1       8.991   0.243  27.258  1.00  0.00     0.210 C 
ENDBRANCH  11  29
BRANCH  12  31
HETATM   31  O5  UNL     1      11.016   2.603  24.636  1.00  0.00    -0.351 OA
HETATM   32  C18 UNL     1      11.220   3.822  25.325  1.00  0.00     0.210 C 
ENDBRANCH  12  31
TORSDOF 9
ENDMDL
