MODEL 1
REMARK VINA RESULT: -6.743898852      0.000      0.000
REMARK  3 active torsions:
REMARK  status: ('A' for Active; 'I' for Inactive)
REMARK    1  A    between atoms: N1_1  and  O1_4 
REMARK    2  A    between atoms: O1_4  and  C1_5 
REMARK    3  A    between atoms: C2_6  and  N2_7 
ROOT
HETATM    1  C1  UNL     1       9.209  17.082  32.022  1.00  0.00     0.211 A 
HETATM    2  C2  UNL     1       9.722  16.046  31.245  1.00  0.00     0.170 A 
HETATM    3  N5  UNL     1       9.041  15.736  30.128  1.00  0.00    -0.291 N 
ATOM      4  H5  UNL     1       9.383  14.984  29.530  1.00  0.00     0.172 HD
HETATM    5  C5  UNL     1       7.905  16.401  29.773  1.00  0.00     0.328 A 
HETATM    6  O3  UNL     1       7.276  16.095  28.715  1.00  0.00    -0.247 OA
HETATM    7  N6  UNL     1       7.393  17.403  30.508  1.00  0.00    -0.273 N 
ATOM      8  H6  UNL     1       6.542  17.890  30.227  1.00  0.00     0.173 HD
HETATM    9  C6  UNL     1       8.059  17.737  31.637  1.00  0.00     0.289 A 
HETATM   10  O4  UNL     1       7.603  18.667  32.342  1.00  0.00    -0.265 OA
ENDROOT
BRANCH   2  11
HETATM   11  N2  UNL     1      10.909  15.382  31.662  1.00  0.00    -0.252 N 
HETATM   12  C3  UNL     1      11.190  14.474  32.720  1.00  0.00     0.277 C 
HETATM   13  N3  UNL     1      12.580  14.723  33.024  1.00  0.00    -0.324 N 
HETATM   14  C4  UNL     1      13.180  15.181  31.822  1.00  0.00     0.336 C 
ATOM     15  H3  UNL     1      13.040  14.596  33.926  1.00  0.00     0.166 HD
HETATM   16  O2  UNL     1      14.410  15.216  31.556  1.00  0.00    -0.246 OA
HETATM   17  N4  UNL     1      12.119  15.593  30.972  1.00  0.00    -0.246 N 
ATOM     18  H4  UNL     1      12.216  15.973  30.031  1.00  0.00     0.192 HD
ENDBRANCH   2  11
BRANCH   1  19
HETATM   19  O1  UNL     1       9.922  17.388  33.169  1.00  0.00    -0.235 OA
BRANCH  19  20
HETATM   20  N1  UNL     1       9.349  17.215  34.404  1.00  0.00    -0.305 N 
ATOM     21  H12 UNL     1       9.009  16.290  34.665  1.00  0.00     0.184 HD
ATOM     22  H11 UNL     1       9.269  18.004  35.047  1.00  0.00     0.184 HD
ENDBRANCH  19  20
ENDBRANCH   1  19
TORSDOF 3
ENDMDL
MODEL 2
REMARK VINA RESULT: -6.506496560      2.063      5.229
REMARK  3 active torsions:
REMARK  status: ('A' for Active; 'I' for Inactive)
REMARK    1  A    between atoms: N1_1  and  O1_4 
REMARK    2  A    between atoms: O1_4  and  C1_5 
REMARK    3  A    between atoms: C2_6  and  N2_7 
ROOT
HETATM    1  C1  UNL     1      11.295  14.992  32.267  1.00  0.00     0.211 A 
HETATM    2  C2  UNL     1       9.945  14.654  32.223  1.00  0.00     0.170 A 
HETATM    3  N5  UNL     1       9.592  13.506  32.827  1.00  0.00    -0.291 N 
ATOM      4  H5  UNL     1       8.613  13.220  32.818  1.00  0.00     0.172 HD
HETATM    5  C5  UNL     1      10.508  12.712  33.451  1.00  0.00     0.328 A 
HETATM    6  O3  UNL     1      10.156  11.632  34.015  1.00  0.00    -0.247 OA
HETATM    7  N6  UNL     1      11.815  13.020  33.506  1.00  0.00    -0.273 N 
ATOM      8  H6  UNL     1      12.487  12.415  33.977  1.00  0.00     0.173 HD
HETATM    9  C6  UNL     1      12.199  14.171  32.907  1.00  0.00     0.289 A 
HETATM   10  O4  UNL     1      13.412  14.482  32.942  1.00  0.00    -0.265 OA
ENDROOT
BRANCH   2  11
HETATM   11  N2  UNL     1       9.031  15.515  31.556  1.00  0.00    -0.252 N 
HETATM   12  C3  UNL     1       8.023  16.405  32.021  1.00  0.00     0.277 C 
HETATM   13  N3  UNL     1       7.056  16.417  30.949  1.00  0.00    -0.324 N 
HETATM   14  C4  UNL     1       7.774  16.147  29.754  1.00  0.00     0.336 C 
ATOM     15  H3  UNL     1       6.053  16.586  31.033  1.00  0.00     0.166 HD
HETATM   16  O2  UNL     1       7.391  16.367  28.575  1.00  0.00    -0.246 OA
HETATM   17  N4  UNL     1       9.015  15.580  30.149  1.00  0.00    -0.246 N 
ATOM     18  H4  UNL     1       9.761  15.274  29.524  1.00  0.00     0.192 HD
ENDBRANCH   2  11
BRANCH   1  19
HETATM   19  O1  UNL     1      11.643  16.178  31.640  1.00  0.00    -0.235 OA
BRANCH  19  20
HETATM   20  N1  UNL     1      12.506  16.167  30.574  1.00  0.00    -0.305 N 
ATOM     21  H12 UNL     1      12.338  16.805  29.796  1.00  0.00     0.184 HD
ATOM     22  H11 UNL     1      13.301  15.527  30.564  1.00  0.00     0.184 HD
ENDBRANCH  19  20
ENDBRANCH   1  19
TORSDOF 3
ENDMDL
MODEL 3
REMARK VINA RESULT: -6.492239464      2.660      5.347
REMARK  3 active torsions:
REMARK  status: ('A' for Active; 'I' for Inactive)
REMARK    1  A    between atoms: N1_1  and  O1_4 
REMARK    2  A    between atoms: O1_4  and  C1_5 
REMARK    3  A    between atoms: C2_6  and  N2_7 
ROOT
HETATM    1  C1  UNL     1       8.974  15.249  32.232  1.00  0.00     0.211 A 
HETATM    2  C2  UNL     1       8.757  16.611  32.426  1.00  0.00     0.170 A 
HETATM    3  N5  UNL     1       9.256  17.146  33.553  1.00  0.00    -0.291 N 
ATOM      4  H5  UNL     1       9.119  18.140  33.734  1.00  0.00     0.172 HD
HETATM    5  C5  UNL     1       9.940  16.395  34.462  1.00  0.00     0.328 A 
HETATM    6  O3  UNL     1      10.404  16.917  35.521  1.00  0.00    -0.247 OA
HETATM    7  N6  UNL     1      10.161  15.080  34.294  1.00  0.00    -0.273 N 
ATOM      8  H6  UNL     1      10.676  14.533  34.985  1.00  0.00     0.173 HD
HETATM    9  C6  UNL     1       9.670  14.515  33.168  1.00  0.00     0.289 A 
HETATM   10  O4  UNL     1       9.861  13.290  32.986  1.00  0.00    -0.265 OA
ENDROOT
BRANCH   2  11
HETATM   11  N2  UNL     1       8.033  17.349  31.449  1.00  0.00    -0.252 N 
HETATM   12  C3  UNL     1       6.868  18.162  31.516  1.00  0.00     0.277 C 
HETATM   13  N3  UNL     1       6.284  18.031  30.201  1.00  0.00    -0.324 N 
HETATM   14  C4  UNL     1       7.357  17.773  29.307  1.00  0.00     0.336 C 
ATOM     15  H3  UNL     1       5.296  18.109  29.961  1.00  0.00     0.166 HD
HETATM   16  O2  UNL     1       7.344  17.899  28.054  1.00  0.00    -0.246 OA
HETATM   17  N4  UNL     1       8.452  17.345  30.103  1.00  0.00    -0.246 N 
ATOM     18  H4  UNL     1       9.376  17.081  29.762  1.00  0.00     0.192 HD
ENDBRANCH   2  11
BRANCH   1  19
HETATM   19  O1  UNL     1       8.453  14.713  31.065  1.00  0.00    -0.235 OA
BRANCH  19  20
HETATM   20  N1  UNL     1       7.311  13.954  31.106  1.00  0.00    -0.305 N 
ATOM     21  H12 UNL     1       6.494  14.316  31.598  1.00  0.00     0.184 HD
ATOM     22  H11 UNL     1       7.285  13.042  30.648  1.00  0.00     0.184 HD
ENDBRANCH  19  20
ENDBRANCH   1  19
TORSDOF 3
ENDMDL
MODEL 4
REMARK VINA RESULT: -6.405037734      1.289      2.646
REMARK  3 active torsions:
REMARK  status: ('A' for Active; 'I' for Inactive)
REMARK    1  A    between atoms: N1_1  and  O1_4 
REMARK    2  A    between atoms: O1_4  and  C1_5 
REMARK    3  A    between atoms: C2_6  and  N2_7 
ROOT
HETATM    1  C1  UNL     1       9.128  16.274  30.963  1.00  0.00     0.211 A 
HETATM    2  C2  UNL     1      10.070  16.622  31.927  1.00  0.00     0.170 A 
HETATM    3  N5  UNL     1       9.828  17.740  32.632  1.00  0.00    -0.291 N 
ATOM      4  H5  UNL     1      10.493  18.030  33.349  1.00  0.00     0.172 HD
HETATM    5  C5  UNL     1       8.715  18.498  32.415  1.00  0.00     0.328 A 
HETATM    6  O3  UNL     1       8.503  19.550  33.090  1.00  0.00    -0.247 OA
HETATM    7  N6  UNL     1       7.793  18.181  31.490  1.00  0.00    -0.273 N 
ATOM      8  H6  UNL     1       6.967  18.760  31.341  1.00  0.00     0.173 HD
HETATM    9  C6  UNL     1       8.012  17.060  30.766  1.00  0.00     0.289 A 
HETATM   10  O4  UNL     1       7.169  16.741  29.896  1.00  0.00    -0.265 OA
ENDROOT
BRANCH   2  11
HETATM   11  N2  UNL     1      11.216  15.799  32.113  1.00  0.00    -0.252 N 
HETATM   12  C3  UNL     1      11.625  14.930  33.163  1.00  0.00     0.277 C 
HETATM   13  N3  UNL     1      13.067  14.964  33.092  1.00  0.00    -0.324 N 
HETATM   14  C4  UNL     1      13.398  15.233  31.737  1.00  0.00     0.336 C 
ATOM     15  H3  UNL     1      13.720  14.823  33.863  1.00  0.00     0.166 HD
HETATM   16  O2  UNL     1      14.511  15.045  31.179  1.00  0.00    -0.246 OA
HETATM   17  N4  UNL     1      12.226  15.758  31.131  1.00  0.00    -0.246 N 
ATOM     18  H4  UNL     1      12.132  16.052  30.159  1.00  0.00     0.192 HD
ENDBRANCH   2  11
BRANCH   1  19
HETATM   19  O1  UNL     1       9.393  15.119  30.245  1.00  0.00    -0.235 OA
BRANCH  19  20
HETATM   20  N1  UNL     1       8.832  13.927  30.627  1.00  0.00    -0.305 N 
ATOM     21  H12 UNL     1       9.207  13.059  30.244  1.00  0.00     0.184 HD
ATOM     22  H11 UNL     1       8.051  13.914  31.284  1.00  0.00     0.184 HD
ENDBRANCH  19  20
ENDBRANCH   1  19
TORSDOF 3
ENDMDL
MODEL 5
REMARK VINA RESULT: -6.201646155      1.949      5.152
REMARK  3 active torsions:
REMARK  status: ('A' for Active; 'I' for Inactive)
REMARK    1  A    between atoms: N1_1  and  O1_4 
REMARK    2  A    between atoms: O1_4  and  C1_5 
REMARK    3  A    between atoms: C2_6  and  N2_7 
ROOT
HETATM    1  C1  UNL     1       9.429  14.684  32.410  1.00  0.00     0.211 A 
HETATM    2  C2  UNL     1      10.000  15.840  31.885  1.00  0.00     0.170 A 
HETATM    3  N5  UNL     1      11.331  15.969  32.018  1.00  0.00    -0.291 N 
ATOM      4  H5  UNL     1      11.789  16.801  31.647  1.00  0.00     0.172 HD
HETATM    5  C5  UNL     1      12.086  15.016  32.635  1.00  0.00     0.328 A 
HETATM    6  O3  UNL     1      13.341  15.155  32.751  1.00  0.00    -0.247 OA
HETATM    7  N6  UNL     1      11.556  13.893  33.148  1.00  0.00    -0.273 N 
ATOM      8  H6  UNL     1      12.136  13.191  33.607  1.00  0.00     0.173 HD
HETATM    9  C6  UNL     1      10.218  13.737  33.028  1.00  0.00     0.289 A 
HETATM   10  O4  UNL     1       9.697  12.699  33.499  1.00  0.00    -0.265 OA
ENDROOT
BRANCH   2  11
HETATM   11  N2  UNL     1       9.167  16.805  31.254  1.00  0.00    -0.252 N 
HETATM   12  C3  UNL     1       8.508  17.974  31.727  1.00  0.00     0.277 C 
HETATM   13  N3  UNL     1       7.350  18.084  30.871  1.00  0.00    -0.324 N 
HETATM   14  C4  UNL     1       7.705  17.484  29.633  1.00  0.00     0.336 C 
ATOM     15  H3  UNL     1       6.453  18.509  31.108  1.00  0.00     0.166 HD
HETATM   16  O2  UNL     1       7.123  17.632  28.527  1.00  0.00    -0.246 OA
HETATM   17  N4  UNL     1       8.850  16.682  29.887  1.00  0.00    -0.246 N 
ATOM     18  H4  UNL     1       9.352  16.118  29.201  1.00  0.00     0.192 HD
ENDBRANCH   2  11
BRANCH   1  19
HETATM   19  O1  UNL     1       8.056  14.567  32.266  1.00  0.00    -0.235 OA
BRANCH  19  20
HETATM   20  N1  UNL     1       7.532  13.850  31.219  1.00  0.00    -0.305 N 
ATOM     21  H12 UNL     1       8.139  13.600  30.439  1.00  0.00     0.184 HD
ATOM     22  H11 UNL     1       6.549  13.575  31.228  1.00  0.00     0.184 HD
ENDBRANCH  19  20
ENDBRANCH   1  19
TORSDOF 3
ENDMDL
