MODEL 1
REMARK VINA RESULT: -7.099884311      0.000      0.000
REMARK  4 active torsions:
REMARK  status: ('A' for Active; 'I' for Inactive)
REMARK    1  A    between atoms: N2_10  and  C8_12 
REMARK    2  A    between atoms: C8_12  and  C9_13 
REMARK    3  A    between atoms: C9_13  and  C10_14 
REMARK    4  A    between atoms: C10_14  and  N3_15 
ROOT
HETATM    1  C1  UNL     1      17.630 -35.379  -1.447  1.00  0.00     0.018 C 
HETATM    2  C2  UNL     1      18.001 -34.294  -1.851  1.00  0.00    -0.074 C 
HETATM    3  C3  UNL     1      18.423 -32.995  -2.315  1.00  0.00     0.060 A 
HETATM    4  C4  UNL     1      17.902 -31.861  -1.717  1.00  0.00     0.026 A 
HETATM    5  C5  UNL     1      18.315 -30.642  -2.171  1.00  0.00     0.019 A 
HETATM    6  C6  UNL     1      19.226 -30.536  -3.197  1.00  0.00     0.090 A 
HETATM    7  N1  UNL     1      19.699 -31.670  -3.741  1.00  0.00    -0.351 N 
ATOM      8  H1  UNL     1      20.373 -31.584  -4.502  1.00  0.00     0.166 HD
HETATM    9  C7  UNL     1      19.347 -32.908  -3.356  1.00  0.00     0.119 A 
HETATM   10  N2  UNL     1      19.772 -33.992  -3.845  1.00  0.00    -0.375 N 
ATOM     11  H2  UNL     1      19.392 -34.841  -3.425  1.00  0.00     0.161 HD
ENDROOT
BRANCH  10  12
HETATM   12  C8  UNL     1      20.701 -34.195  -4.895  1.00  0.00     0.123 C 
BRANCH  12  13
HETATM   13  C9  UNL     1      20.118 -34.901  -6.096  1.00  0.00     0.039 C 
BRANCH  13  14
HETATM   14  C10 UNL     1      19.142 -33.935  -6.776  1.00  0.00     0.123 C 
BRANCH  14  15
HETATM   15  N3  UNL     1      19.763 -33.294  -7.908  1.00  0.00    -0.367 N 
HETATM   16  C11 UNL     1      19.929 -32.031  -7.904  1.00  0.00     0.196 C 
HETATM   17  N4  UNL     1      20.533 -31.312  -8.975  1.00  0.00    -0.067 NA
HETATM   18  N5  UNL     1      19.506 -31.250  -6.793  1.00  0.00    -0.067 NA
ATOM     19  H3  UNL     1      20.067 -33.848  -8.707  1.00  0.00     0.161 HD
ENDBRANCH  14  15
ENDBRANCH  13  14
ENDBRANCH  12  13
ENDBRANCH  10  12
TORSDOF 4
ENDMDL
MODEL 2
REMARK VINA RESULT: -7.027851120      2.348      4.080
REMARK  4 active torsions:
REMARK  status: ('A' for Active; 'I' for Inactive)
REMARK    1  A    between atoms: N2_10  and  C8_12 
REMARK    2  A    between atoms: C8_12  and  C9_13 
REMARK    3  A    between atoms: C9_13  and  C10_14 
REMARK    4  A    between atoms: C10_14  and  N3_15 
ROOT
HETATM    1  C1  UNL     1      16.880 -30.799  -1.449  1.00  0.00     0.018 C 
HETATM    2  C2  UNL     1      16.954 -32.000  -1.279  1.00  0.00    -0.074 C 
HETATM    3  C3  UNL     1      17.024 -33.424  -1.057  1.00  0.00     0.060 A 
HETATM    4  C4  UNL     1      16.180 -34.007  -0.130  1.00  0.00     0.026 A 
HETATM    5  C5  UNL     1      16.263 -35.356   0.064  1.00  0.00     0.019 A 
HETATM    6  C6  UNL     1      17.161 -36.122  -0.642  1.00  0.00     0.090 A 
HETATM    7  N1  UNL     1      17.958 -35.504  -1.531  1.00  0.00    -0.351 N 
ATOM      8  H1  UNL     1      18.622 -36.078  -2.050  1.00  0.00     0.166 HD
HETATM    9  C7  UNL     1      17.942 -34.184  -1.784  1.00  0.00     0.119 A 
HETATM   10  N2  UNL     1      18.674 -33.572  -2.610  1.00  0.00    -0.375 N 
ATOM     11  H2  UNL     1      18.523 -32.565  -2.668  1.00  0.00     0.161 HD
ENDROOT
BRANCH  10  12
HETATM   12  C8  UNL     1      19.677 -34.089  -3.467  1.00  0.00     0.123 C 
BRANCH  12  13
HETATM   13  C9  UNL     1      19.481 -33.726  -4.921  1.00  0.00     0.039 C 
BRANCH  13  14
HETATM   14  C10 UNL     1      20.179 -34.795  -5.767  1.00  0.00     0.123 C 
BRANCH  14  15
HETATM   15  N3  UNL     1      19.269 -35.358  -6.732  1.00  0.00    -0.367 N 
HETATM   16  C11 UNL     1      18.691 -36.466  -6.484  1.00  0.00     0.196 C 
HETATM   17  N4  UNL     1      17.777 -37.095  -7.377  1.00  0.00    -0.067 NA
HETATM   18  N5  UNL     1      18.938 -37.151  -5.263  1.00  0.00    -0.067 NA
ATOM     19  H3  UNL     1      19.088 -34.871  -7.610  1.00  0.00     0.161 HD
ENDBRANCH  14  15
ENDBRANCH  13  14
ENDBRANCH  12  13
ENDBRANCH  10  12
TORSDOF 4
ENDMDL
MODEL 3
REMARK VINA RESULT: -7.014477464      2.366      4.076
REMARK  4 active torsions:
REMARK  status: ('A' for Active; 'I' for Inactive)
REMARK    1  A    between atoms: N2_10  and  C8_12 
REMARK    2  A    between atoms: C8_12  and  C9_13 
REMARK    3  A    between atoms: C9_13  and  C10_14 
REMARK    4  A    between atoms: C10_14  and  N3_15 
ROOT
HETATM    1  C1  UNL     1      17.774 -31.002  -1.792  1.00  0.00     0.018 C 
HETATM    2  C2  UNL     1      17.593 -32.161  -1.473  1.00  0.00    -0.074 C 
HETATM    3  C3  UNL     1      17.368 -33.528  -1.072  1.00  0.00     0.060 A 
HETATM    4  C4  UNL     1      16.625 -33.786   0.066  1.00  0.00     0.026 A 
HETATM    5  C5  UNL     1      16.423 -35.087   0.428  1.00  0.00     0.019 A 
HETATM    6  C6  UNL     1      16.942 -36.120  -0.317  1.00  0.00     0.090 A 
HETATM    7  N1  UNL     1      17.656 -35.813  -1.414  1.00  0.00    -0.351 N 
ATOM      8  H1  UNL     1      18.038 -36.584  -1.961  1.00  0.00     0.166 HD
HETATM    9  C7  UNL     1      17.902 -34.563  -1.841  1.00  0.00     0.119 A 
HETATM   10  N2  UNL     1      18.566 -34.239  -2.864  1.00  0.00    -0.375 N 
ATOM     11  H2  UNL     1      18.651 -33.237  -3.033  1.00  0.00     0.161 HD
ENDROOT
BRANCH  10  12
HETATM   12  C8  UNL     1      19.212 -35.074  -3.810  1.00  0.00     0.123 C 
BRANCH  12  13
HETATM   13  C9  UNL     1      19.102 -34.578  -5.233  1.00  0.00     0.039 C 
BRANCH  13  14
HETATM   14  C10 UNL     1      20.310 -35.114  -6.008  1.00  0.00     0.123 C 
BRANCH  14  15
HETATM   15  N3  UNL     1      21.514 -34.423  -5.619  1.00  0.00    -0.367 N 
HETATM   16  C11 UNL     1      22.526 -35.090  -5.229  1.00  0.00     0.196 C 
HETATM   17  N4  UNL     1      23.756 -34.494  -4.827  1.00  0.00    -0.067 NA
HETATM   18  N5  UNL     1      22.477 -36.511  -5.174  1.00  0.00    -0.067 NA
ATOM     19  H3  UNL     1      21.555 -33.405  -5.655  1.00  0.00     0.161 HD
ENDBRANCH  14  15
ENDBRANCH  13  14
ENDBRANCH  12  13
ENDBRANCH  10  12
TORSDOF 4
ENDMDL
MODEL 4
REMARK VINA RESULT: -6.959382073      2.505      3.394
REMARK  4 active torsions:
REMARK  status: ('A' for Active; 'I' for Inactive)
REMARK    1  A    between atoms: N2_10  and  C8_12 
REMARK    2  A    between atoms: C8_12  and  C9_13 
REMARK    3  A    between atoms: C9_13  and  C10_14 
REMARK    4  A    between atoms: C10_14  and  N3_15 
ROOT
HETATM    1  C1  UNL     1      16.399 -37.286  -1.103  1.00  0.00     0.018 C 
HETATM    2  C2  UNL     1      16.611 -36.090  -1.111  1.00  0.00    -0.074 C 
HETATM    3  C3  UNL     1      16.842 -34.666  -1.106  1.00  0.00     0.060 A 
HETATM    4  C4  UNL     1      16.076 -33.859  -0.284  1.00  0.00     0.026 A 
HETATM    5  C5  UNL     1      16.311 -32.514  -0.294  1.00  0.00     0.019 A 
HETATM    6  C6  UNL     1      17.284 -31.968  -1.098  1.00  0.00     0.090 A 
HETATM    7  N1  UNL     1      18.000 -32.798  -1.877  1.00  0.00    -0.351 N 
ATOM      8  H1  UNL     1      18.719 -32.387  -2.471  1.00  0.00     0.166 HD
HETATM    9  C7  UNL     1      17.834 -34.131  -1.929  1.00  0.00     0.119 A 
HETATM   10  N2  UNL     1      18.488 -34.938  -2.647  1.00  0.00    -0.375 N 
ATOM     11  H2  UNL     1      18.223 -35.919  -2.555  1.00  0.00     0.161 HD
ENDROOT
BRANCH  10  12
HETATM   12  C8  UNL     1      19.536 -34.672  -3.562  1.00  0.00     0.123 C 
BRANCH  12  13
HETATM   13  C9  UNL     1      19.090 -34.633  -5.005  1.00  0.00     0.039 C 
BRANCH  13  14
HETATM   14  C10 UNL     1      20.246 -35.151  -5.865  1.00  0.00     0.123 C 
BRANCH  14  15
HETATM   15  N3  UNL     1      21.467 -34.450  -5.555  1.00  0.00    -0.367 N 
HETATM   16  C11 UNL     1      22.512 -35.109  -5.245  1.00  0.00     0.196 C 
HETATM   17  N4  UNL     1      23.760 -34.503  -4.925  1.00  0.00    -0.067 NA
HETATM   18  N5  UNL     1      22.482 -36.531  -5.201  1.00  0.00    -0.067 NA
ATOM     19  H3  UNL     1      21.494 -33.431  -5.584  1.00  0.00     0.161 HD
ENDBRANCH  14  15
ENDBRANCH  13  14
ENDBRANCH  12  13
ENDBRANCH  10  12
TORSDOF 4
ENDMDL
MODEL 5
REMARK VINA RESULT: -6.958393998      2.399      3.376
REMARK  4 active torsions:
REMARK  status: ('A' for Active; 'I' for Inactive)
REMARK    1  A    between atoms: N2_10  and  C8_12 
REMARK    2  A    between atoms: C8_12  and  C9_13 
REMARK    3  A    between atoms: C9_13  and  C10_14 
REMARK    4  A    between atoms: C10_14  and  N3_15 
ROOT
HETATM    1  C1  UNL     1      16.854 -37.376  -1.833  1.00  0.00     0.018 C 
HETATM    2  C2  UNL     1      16.936 -36.184  -1.614  1.00  0.00    -0.074 C 
HETATM    3  C3  UNL     1      17.013 -34.769  -1.340  1.00  0.00     0.060 A 
HETATM    4  C4  UNL     1      16.126 -34.206  -0.439  1.00  0.00     0.026 A 
HETATM    5  C5  UNL     1      16.216 -32.866  -0.194  1.00  0.00     0.019 A 
HETATM    6  C6  UNL     1      17.161 -32.090  -0.823  1.00  0.00     0.090 A 
HETATM    7  N1  UNL     1      17.997 -32.689  -1.689  1.00  0.00    -0.351 N 
ATOM      8  H1  UNL     1      18.695 -32.107  -2.152  1.00  0.00     0.166 HD
HETATM    9  C7  UNL     1      17.979 -33.999  -1.988  1.00  0.00     0.119 A 
HETATM   10  N2  UNL     1      18.747 -34.593  -2.794  1.00  0.00    -0.375 N 
ATOM     11  H2  UNL     1      18.586 -35.594  -2.896  1.00  0.00     0.161 HD
ENDROOT
BRANCH  10  12
HETATM   12  C8  UNL     1      19.803 -34.062  -3.576  1.00  0.00     0.123 C 
BRANCH  12  13
HETATM   13  C9  UNL     1      19.396 -33.709  -4.988  1.00  0.00     0.039 C 
BRANCH  13  14
HETATM   14  C10 UNL     1      20.128 -34.662  -5.937  1.00  0.00     0.123 C 
BRANCH  14  15
HETATM   15  N3  UNL     1      19.203 -35.288  -6.848  1.00  0.00    -0.367 N 
HETATM   16  C11 UNL     1      18.640 -36.384  -6.521  1.00  0.00     0.196 C 
HETATM   17  N4  UNL     1      17.714 -37.072  -7.355  1.00  0.00    -0.067 NA
HETATM   18  N5  UNL     1      18.920 -36.993  -5.267  1.00  0.00    -0.067 NA
ATOM     19  H3  UNL     1      18.999 -34.857  -7.748  1.00  0.00     0.161 HD
ENDBRANCH  14  15
ENDBRANCH  13  14
ENDBRANCH  12  13
ENDBRANCH  10  12
TORSDOF 4
ENDMDL
