MODEL 1
REMARK VINA RESULT: -6.777958357      0.000      0.000
REMARK  6 active torsions:
REMARK  status: ('A' for Active; 'I' for Inactive)
REMARK    1  A    between atoms: N1_1  and  C1_4 
REMARK    2  A    between atoms: C2_9  and  N4_10 
REMARK    3  A    between atoms: N4_10  and  C3_12 
REMARK    4  A    between atoms: C3_12  and  C4_13 
REMARK    5  A    between atoms: C4_13  and  C5_14 
REMARK    6  A    between atoms: C5_14  and  N5_15 
ROOT
HETATM    1  C1  UNL     1      24.209 -34.025  -4.257  1.00  0.00     0.705 A 
HETATM    2  N2  UNL     1      24.021 -32.941  -5.005  1.00  0.00    -0.118 N 
ATOM      3  H2  UNL     1      24.617 -32.113  -5.018  1.00  0.00     0.206 HD
HETATM    4  N3  UNL     1      22.922 -33.123  -5.734  1.00  0.00    -0.117 N 
ATOM      5  H3  UNL     1      22.541 -32.449  -6.399  1.00  0.00     0.206 HD
HETATM    6  C2  UNL     1      22.389 -34.326  -5.465  1.00  0.00     0.707 A 
HETATM    7  N6  UNL     1      23.195 -34.880  -4.546  1.00  0.00    -0.020 N 
ATOM      8  H6  UNL     1      23.065 -35.802  -4.129  1.00  0.00     0.203 HD
ENDROOT
BRANCH   6   9
HETATM    9  N4  UNL     1      21.348 -34.864  -5.950  1.00  0.00    -0.224 N 
ATOM     10  H4  UNL     1      21.138 -34.695  -6.934  1.00  0.00     0.177 HD
BRANCH   9  11
HETATM   11  C3  UNL     1      20.436 -35.704  -5.199  1.00  0.00     0.139 C 
BRANCH  11  12
HETATM   12  C4  UNL     1      19.227 -34.915  -4.763  1.00  0.00     0.040 C 
BRANCH  12  13
HETATM   13  C5  UNL     1      19.253 -34.481  -3.348  1.00  0.00     0.129 C 
BRANCH  13  14
HETATM   14  N5  UNL     1      19.086 -33.067  -3.142  1.00  0.00    -0.366 N 
HETATM   15  C6  UNL     1      19.744 -32.180  -3.889  1.00  0.00     0.090 A 
HETATM   16  C7  UNL     1      19.558 -30.836  -3.661  1.00  0.00     0.017 A 
HETATM   17  C8  UNL     1      18.702 -30.406  -2.674  1.00  0.00     0.003 A 
HETATM   18  C9  UNL     1      18.030 -31.313  -1.911  1.00  0.00     0.017 A 
HETATM   19  C10 UNL     1      18.255 -32.656  -2.182  1.00  0.00     0.090 A 
ENDBRANCH  13  14
ENDBRANCH  12  13
ENDBRANCH  11  12
ENDBRANCH   9  11
ENDBRANCH   6   9
BRANCH   1  20
HETATM   20  N1  UNL     1      25.156 -34.256  -3.412  1.00  0.00    -0.233 N 
ATOM     21  H12 UNL     1      25.335 -33.711  -2.568  1.00  0.00     0.174 HD
ATOM     22  H11 UNL     1      25.861 -34.993  -3.441  1.00  0.00     0.174 HD
ENDBRANCH   1  20
TORSDOF 6
ENDMDL
MODEL 2
REMARK VINA RESULT: -6.772810363      0.111      1.176
REMARK  6 active torsions:
REMARK  status: ('A' for Active; 'I' for Inactive)
REMARK    1  A    between atoms: N1_1  and  C1_4 
REMARK    2  A    between atoms: C2_9  and  N4_10 
REMARK    3  A    between atoms: N4_10  and  C3_12 
REMARK    4  A    between atoms: C3_12  and  C4_13 
REMARK    5  A    between atoms: C4_13  and  C5_14 
REMARK    6  A    between atoms: C5_14  and  N5_15 
ROOT
HETATM    1  C1  UNL     1      24.219 -33.982  -4.344  1.00  0.00     0.705 A 
HETATM    2  N2  UNL     1      24.042 -32.922  -5.131  1.00  0.00    -0.118 N 
ATOM      3  H2  UNL     1      24.652 -32.106  -5.179  1.00  0.00     0.206 HD
HETATM    4  N3  UNL     1      22.932 -33.112  -5.842  1.00  0.00    -0.117 N 
ATOM      5  H3  UNL     1      22.557 -32.456  -6.528  1.00  0.00     0.206 HD
HETATM    6  C2  UNL     1      22.382 -34.294  -5.523  1.00  0.00     0.707 A 
HETATM    7  N6  UNL     1      23.187 -34.828  -4.593  1.00  0.00    -0.020 N 
ATOM      8  H6  UNL     1      23.046 -35.732  -4.141  1.00  0.00     0.203 HD
ENDROOT
BRANCH   6   9
HETATM    9  N4  UNL     1      21.327 -34.832  -5.979  1.00  0.00    -0.224 N 
ATOM     10  H4  UNL     1      21.083 -34.653  -6.954  1.00  0.00     0.177 HD
BRANCH   9  11
HETATM   11  C3  UNL     1      20.444 -35.683  -5.206  1.00  0.00     0.139 C 
BRANCH  11  12
HETATM   12  C4  UNL     1      19.223 -34.918  -4.764  1.00  0.00     0.040 C 
BRANCH  12  13
HETATM   13  C5  UNL     1      19.205 -34.563  -3.327  1.00  0.00     0.129 C 
BRANCH  13  14
HETATM   14  N5  UNL     1      19.037 -33.162  -3.048  1.00  0.00    -0.366 N 
HETATM   15  C6  UNL     1      18.183 -32.743  -2.114  1.00  0.00     0.090 A 
HETATM   16  C7  UNL     1      18.052 -31.394  -1.877  1.00  0.00     0.017 A 
HETATM   17  C8  UNL     1      18.791 -30.482  -2.593  1.00  0.00     0.003 A 
HETATM   18  C9  UNL     1      19.664 -30.912  -3.548  1.00  0.00     0.017 A 
HETATM   19  C10 UNL     1      19.758 -32.282  -3.747  1.00  0.00     0.090 A 
ENDBRANCH  13  14
ENDBRANCH  12  13
ENDBRANCH  11  12
ENDBRANCH   9  11
ENDBRANCH   6   9
BRANCH   1  20
HETATM   20  N1  UNL     1      25.170 -34.198  -3.501  1.00  0.00    -0.233 N 
ATOM     21  H12 UNL     1      26.105 -34.527  -3.741  1.00  0.00     0.174 HD
ATOM     22  H11 UNL     1      25.152 -34.082  -2.487  1.00  0.00     0.174 HD
ENDBRANCH   1  20
TORSDOF 6
ENDMDL
MODEL 3
REMARK VINA RESULT: -6.683375479      1.811      2.748
REMARK  6 active torsions:
REMARK  status: ('A' for Active; 'I' for Inactive)
REMARK    1  A    between atoms: N1_1  and  C1_4 
REMARK    2  A    between atoms: C2_9  and  N4_10 
REMARK    3  A    between atoms: N4_10  and  C3_12 
REMARK    4  A    between atoms: C3_12  and  C4_13 
REMARK    5  A    between atoms: C4_13  and  C5_14 
REMARK    6  A    between atoms: C5_14  and  N5_15 
ROOT
HETATM    1  C1  UNL     1      24.075 -33.848  -4.460  1.00  0.00     0.705 A 
HETATM    2  N2  UNL     1      24.016 -32.989  -5.475  1.00  0.00    -0.118 N 
ATOM      3  H2  UNL     1      24.787 -32.416  -5.819  1.00  0.00     0.206 HD
HETATM    4  N3  UNL     1      22.777 -33.006  -5.964  1.00  0.00    -0.117 N 
ATOM      5  H3  UNL     1      22.449 -32.442  -6.749  1.00  0.00     0.206 HD
HETATM    6  C2  UNL     1      22.024 -33.875  -5.270  1.00  0.00     0.707 A 
HETATM    7  N6  UNL     1      22.839 -34.394  -4.338  1.00  0.00    -0.020 N 
ATOM      8  H6  UNL     1      22.569 -35.091  -3.644  1.00  0.00     0.203 HD
ENDROOT
BRANCH   6   9
HETATM    9  N4  UNL     1      20.801 -34.174  -5.428  1.00  0.00    -0.224 N 
ATOM     10  H4  UNL     1      20.580 -35.099  -5.796  1.00  0.00     0.177 HD
BRANCH   9  11
HETATM   11  C3  UNL     1      19.697 -33.286  -5.120  1.00  0.00     0.139 C 
BRANCH  11  12
HETATM   12  C4  UNL     1      19.396 -33.308  -3.643  1.00  0.00     0.040 C 
BRANCH  12  13
HETATM   13  C5  UNL     1      19.016 -34.637  -3.112  1.00  0.00     0.129 C 
BRANCH  13  14
HETATM   14  N5  UNL     1      18.032 -34.614  -2.062  1.00  0.00    -0.366 N 
HETATM   15  C6  UNL     1      17.469 -35.739  -1.621  1.00  0.00     0.090 A 
HETATM   16  C7  UNL     1      16.533 -35.676  -0.616  1.00  0.00     0.017 A 
HETATM   17  C8  UNL     1      16.177 -34.466  -0.066  1.00  0.00     0.003 A 
HETATM   18  C9  UNL     1      16.753 -33.317  -0.518  1.00  0.00     0.017 A 
HETATM   19  C10 UNL     1      17.692 -33.437  -1.533  1.00  0.00     0.090 A 
ENDBRANCH  13  14
ENDBRANCH  12  13
ENDBRANCH  11  12
ENDBRANCH   9  11
ENDBRANCH   6   9
BRANCH   1  20
HETATM   20  N1  UNL     1      25.089 -34.132  -3.715  1.00  0.00    -0.233 N 
ATOM     21  H12 UNL     1      25.910 -33.540  -3.590  1.00  0.00     0.174 HD
ATOM     22  H11 UNL     1      25.238 -34.965  -3.145  1.00  0.00     0.174 HD
ENDBRANCH   1  20
TORSDOF 6
ENDMDL
MODEL 4
REMARK VINA RESULT: -6.675460451      1.822      2.707
REMARK  6 active torsions:
REMARK  status: ('A' for Active; 'I' for Inactive)
REMARK    1  A    between atoms: N1_1  and  C1_4 
REMARK    2  A    between atoms: C2_9  and  N4_10 
REMARK    3  A    between atoms: N4_10  and  C3_12 
REMARK    4  A    between atoms: C3_12  and  C4_13 
REMARK    5  A    between atoms: C4_13  and  C5_14 
REMARK    6  A    between atoms: C5_14  and  N5_15 
ROOT
HETATM    1  C1  UNL     1      24.079 -33.845  -4.452  1.00  0.00     0.705 A 
HETATM    2  N2  UNL     1      24.019 -32.980  -5.463  1.00  0.00    -0.118 N 
ATOM      3  H2  UNL     1      24.788 -32.401  -5.800  1.00  0.00     0.206 HD
HETATM    4  N3  UNL     1      22.783 -33.001  -5.957  1.00  0.00    -0.117 N 
ATOM      5  H3  UNL     1      22.455 -32.435  -6.740  1.00  0.00     0.206 HD
HETATM    6  C2  UNL     1      22.032 -33.879  -5.272  1.00  0.00     0.707 A 
HETATM    7  N6  UNL     1      22.845 -34.399  -4.340  1.00  0.00    -0.020 N 
ATOM      8  H6  UNL     1      22.576 -35.102  -3.651  1.00  0.00     0.203 HD
ENDROOT
BRANCH   6   9
HETATM    9  N4  UNL     1      20.812 -34.183  -5.437  1.00  0.00    -0.224 N 
ATOM     10  H4  UNL     1      20.597 -35.108  -5.810  1.00  0.00     0.177 HD
BRANCH   9  11
HETATM   11  C3  UNL     1      19.701 -33.303  -5.130  1.00  0.00     0.139 C 
BRANCH  11  12
HETATM   12  C4  UNL     1      19.423 -33.299  -3.649  1.00  0.00     0.040 C 
BRANCH  12  13
HETATM   13  C5  UNL     1      19.027 -34.612  -3.093  1.00  0.00     0.129 C 
BRANCH  13  14
HETATM   14  N5  UNL     1      18.042 -34.558  -2.046  1.00  0.00    -0.366 N 
HETATM   15  C6  UNL     1      17.674 -33.396  -1.504  1.00  0.00     0.090 A 
HETATM   16  C7  UNL     1      16.729 -33.387  -0.505  1.00  0.00     0.017 A 
HETATM   17  C8  UNL     1      16.163 -34.561  -0.065  1.00  0.00     0.003 A 
HETATM   18  C9  UNL     1      16.540 -35.748  -0.619  1.00  0.00     0.017 A 
HETATM   19  C10 UNL     1      17.497 -35.701  -1.623  1.00  0.00     0.090 A 
ENDBRANCH  13  14
ENDBRANCH  12  13
ENDBRANCH  11  12
ENDBRANCH   9  11
ENDBRANCH   6   9
BRANCH   1  20
HETATM   20  N1  UNL     1      25.091 -34.128  -3.705  1.00  0.00    -0.233 N 
ATOM     21  H12 UNL     1      25.970 -34.528  -4.034  1.00  0.00     0.174 HD
ATOM     22  H11 UNL     1      25.183 -34.006  -2.696  1.00  0.00     0.174 HD
ENDBRANCH   1  20
TORSDOF 6
ENDMDL
MODEL 5
REMARK VINA RESULT: -6.501125689      2.878      4.390
REMARK  6 active torsions:
REMARK  status: ('A' for Active; 'I' for Inactive)
REMARK    1  A    between atoms: N1_1  and  C1_4 
REMARK    2  A    between atoms: C2_9  and  N4_10 
REMARK    3  A    between atoms: N4_10  and  C3_12 
REMARK    4  A    between atoms: C3_12  and  C4_13 
REMARK    5  A    between atoms: C4_13  and  C5_14 
REMARK    6  A    between atoms: C5_14  and  N5_15 
ROOT
HETATM    1  C1  UNL     1      20.474 -32.334  -8.090  1.00  0.00     0.705 A 
HETATM    2  N2  UNL     1      19.410 -33.124  -8.225  1.00  0.00    -0.118 N 
ATOM      3  H2  UNL     1      18.760 -33.121  -9.010  1.00  0.00     0.206 HD
HETATM    4  N3  UNL     1      19.343 -33.918  -7.158  1.00  0.00    -0.117 N 
ATOM      5  H3  UNL     1      18.625 -34.625  -6.998  1.00  0.00     0.206 HD
HETATM    6  C2  UNL     1      20.361 -33.649  -6.324  1.00  0.00     0.707 A 
HETATM    7  N6  UNL     1      21.058 -32.664  -6.911  1.00  0.00    -0.020 N 
ATOM      8  H6  UNL     1      21.899 -32.231  -6.529  1.00  0.00     0.203 HD
ENDROOT
BRANCH   6   9
HETATM    9  N4  UNL     1      20.641 -34.186  -5.209  1.00  0.00    -0.224 N 
ATOM     10  H4  UNL     1      20.939 -35.162  -5.212  1.00  0.00     0.177 HD
BRANCH   9  11
HETATM   11  C3  UNL     1      20.567 -33.504  -3.932  1.00  0.00     0.139 C 
BRANCH  11  12
HETATM   12  C4  UNL     1      19.174 -33.596  -3.363  1.00  0.00     0.040 C 
BRANCH  12  13
HETATM   13  C5  UNL     1      18.713 -34.974  -3.083  1.00  0.00     0.129 C 
BRANCH  13  14
HETATM   14  N5  UNL     1      17.827 -35.102  -1.956  1.00  0.00    -0.366 N 
HETATM   15  C6  UNL     1      17.566 -34.062  -1.163  1.00  0.00     0.090 A 
HETATM   16  C7  UNL     1      16.714 -34.226  -0.096  1.00  0.00     0.017 A 
HETATM   17  C8  UNL     1      16.134 -35.447   0.156  1.00  0.00     0.003 A 
HETATM   18  C9  UNL     1      16.402 -36.509  -0.655  1.00  0.00     0.017 A 
HETATM   19  C10 UNL     1      17.268 -36.290  -1.717  1.00  0.00     0.090 A 
ENDBRANCH  13  14
ENDBRANCH  12  13
ENDBRANCH  11  12
ENDBRANCH   9  11
ENDBRANCH   6   9
BRANCH   1  20
HETATM   20  N1  UNL     1      20.897 -31.423  -8.899  1.00  0.00    -0.233 N 
ATOM     21  H12 UNL     1      20.703 -31.391  -9.901  1.00  0.00     0.174 HD
ATOM     22  H11 UNL     1      21.475 -30.610  -8.686  1.00  0.00     0.174 HD
ENDBRANCH   1  20
TORSDOF 6
ENDMDL
