MODEL 1
REMARK VINA RESULT: -6.929950090      0.000      0.000
REMARK  4 active torsions:
REMARK  status: ('A' for Active; 'I' for Inactive)
REMARK    1  A    between atoms: C3_3  and  C4_4 
REMARK    2  A    between atoms: C4_4  and  N1_5 
REMARK    3  A    between atoms: N4_15  and  C9_17 
REMARK    4  A    between atoms: C9_17  and  C10_18 
ROOT
HETATM    1  C1  UNL     1      16.074 -33.173   0.047  1.00  0.00     0.012 C 
HETATM    2  C2  UNL     1      16.329 -34.335  -0.151  1.00  0.00    -0.116 C 
HETATM    3  C3  UNL     1      16.655 -35.763  -0.378  1.00  0.00     0.113 C 
ENDROOT
BRANCH   3   4
HETATM    4  C4  UNL     1      17.110 -35.912  -1.818  1.00  0.00     0.150 C 
BRANCH   4   5
HETATM    5  N1  UNL     1      18.256 -35.083  -2.103  1.00  0.00    -0.225 N 
HETATM    6  C5  UNL     1      18.922 -35.095  -3.212  1.00  0.00     0.694 A 
HETATM    7  N2  UNL     1      18.604 -35.942  -4.310  1.00  0.00    -0.177 N 
HETATM    8  N5  UNL     1      20.035 -34.228  -3.368  1.00  0.00    -0.022 N 
HETATM    9  C6  UNL     1      19.372 -35.921  -5.521  1.00  0.00     0.127 A 
ATOM     10  H2  UNL     1      17.812 -36.579  -4.234  1.00  0.00     0.185 HD
HETATM   11  C7  UNL     1      19.037 -36.724  -6.511  1.00  0.00     0.064 C 
HETATM   12  N3  UNL     1      20.487 -35.051  -5.678  1.00  0.00    -0.177 N 
HETATM   13  C8  UNL     1      20.812 -34.203  -4.589  1.00  0.00     0.694 A 
ATOM     14  H3  UNL     1      21.032 -35.038  -6.540  1.00  0.00     0.185 HD
HETATM   15  N4  UNL     1      21.810 -33.396  -4.671  1.00  0.00    -0.222 N 
ATOM     16  H4  UNL     1      21.997 -32.811  -3.857  1.00  0.00     0.178 HD
ATOM     17  H5  UNL     1      20.293 -33.607  -2.602  1.00  0.00     0.203 HD
ATOM     18  H1  UNL     1      18.564 -34.438  -1.375  1.00  0.00     0.177 HD
BRANCH  15  19
HETATM   19  C9  UNL     1      22.675 -33.240  -5.782  1.00  0.00     0.164 C 
BRANCH  19  20
HETATM   20  C10 UNL     1      24.039 -33.741  -5.372  1.00  0.00    -0.017 C 
HETATM   21  C11 UNL     1      24.392 -33.784  -4.100  1.00  0.00     0.008 C 
ENDBRANCH  19  20
ENDBRANCH  15  19
ENDBRANCH   4   5
ENDBRANCH   3   4
TORSDOF 4
ENDMDL
MODEL 2
REMARK VINA RESULT: -6.881836219      0.703      1.301
REMARK  4 active torsions:
REMARK  status: ('A' for Active; 'I' for Inactive)
REMARK    1  A    between atoms: C3_3  and  C4_4 
REMARK    2  A    between atoms: C4_4  and  N1_5 
REMARK    3  A    between atoms: N4_15  and  C9_17 
REMARK    4  A    between atoms: C9_17  and  C10_18 
ROOT
HETATM    1  C1  UNL     1      15.361 -37.677   0.413  1.00  0.00     0.012 C 
HETATM    2  C2  UNL     1      15.958 -36.704   0.025  1.00  0.00    -0.116 C 
HETATM    3  C3  UNL     1      16.675 -35.496  -0.448  1.00  0.00     0.113 C 
ENDROOT
BRANCH   3   4
HETATM    4  C4  UNL     1      17.230 -35.796  -1.828  1.00  0.00     0.150 C 
BRANCH   4   5
HETATM    5  N1  UNL     1      18.366 -34.963  -2.140  1.00  0.00    -0.225 N 
HETATM    6  C5  UNL     1      19.025 -34.995  -3.252  1.00  0.00     0.694 A 
HETATM    7  N2  UNL     1      18.709 -35.870  -4.328  1.00  0.00    -0.177 N 
HETATM    8  N5  UNL     1      20.128 -34.121  -3.435  1.00  0.00    -0.022 N 
HETATM    9  C6  UNL     1      19.469 -35.869  -5.544  1.00  0.00     0.127 A 
ATOM     10  H2  UNL     1      17.924 -36.513  -4.233  1.00  0.00     0.185 HD
HETATM   11  C7  UNL     1      19.137 -36.699  -6.513  1.00  0.00     0.064 C 
HETATM   12  N3  UNL     1      20.575 -34.993  -5.728  1.00  0.00    -0.177 N 
HETATM   13  C8  UNL     1      20.898 -34.117  -4.661  1.00  0.00     0.694 A 
ATOM     14  H3  UNL     1      21.114 -34.995  -6.593  1.00  0.00     0.185 HD
HETATM   15  N4  UNL     1      21.887 -33.302  -4.768  1.00  0.00    -0.222 N 
ATOM     16  H4  UNL     1      22.073 -32.696  -3.969  1.00  0.00     0.178 HD
ATOM     17  H5  UNL     1      20.384 -33.479  -2.685  1.00  0.00     0.203 HD
ATOM     18  H1  UNL     1      18.672 -34.299  -1.429  1.00  0.00     0.177 HD
BRANCH  15  19
HETATM   19  C9  UNL     1      22.744 -33.163  -5.887  1.00  0.00     0.164 C 
BRANCH  19  20
HETATM   20  C10 UNL     1      24.130 -33.576  -5.455  1.00  0.00    -0.017 C 
HETATM   21  C11 UNL     1      24.396 -33.838  -4.187  1.00  0.00     0.008 C 
ENDBRANCH  19  20
ENDBRANCH  15  19
ENDBRANCH   4   5
ENDBRANCH   3   4
TORSDOF 4
ENDMDL
MODEL 3
REMARK VINA RESULT: -6.719075162      1.728      2.817
REMARK  4 active torsions:
REMARK  status: ('A' for Active; 'I' for Inactive)
REMARK    1  A    between atoms: C3_3  and  C4_4 
REMARK    2  A    between atoms: C4_4  and  N1_5 
REMARK    3  A    between atoms: N4_15  and  C9_17 
REMARK    4  A    between atoms: C9_17  and  C10_18 
ROOT
HETATM    1  C1  UNL     1      15.391 -37.633  -0.104  1.00  0.00     0.012 C 
HETATM    2  C2  UNL     1      16.107 -36.668   0.001  1.00  0.00    -0.116 C 
HETATM    3  C3  UNL     1      16.977 -35.477   0.148  1.00  0.00     0.113 C 
ENDROOT
BRANCH   3   4
HETATM    4  C4  UNL     1      16.931 -34.706  -1.159  1.00  0.00     0.150 C 
BRANCH   4   5
HETATM    5  N1  UNL     1      18.061 -35.014  -2.000  1.00  0.00    -0.225 N 
HETATM    6  C5  UNL     1      18.786 -34.138  -2.618  1.00  0.00     0.694 A 
HETATM    7  N2  UNL     1      18.556 -32.736  -2.544  1.00  0.00    -0.177 N 
HETATM    8  N5  UNL     1      19.874 -34.572  -3.419  1.00  0.00    -0.022 N 
HETATM    9  C6  UNL     1      19.387 -31.802  -3.247  1.00  0.00     0.127 A 
ATOM     10  H2  UNL     1      17.783 -32.387  -1.979  1.00  0.00     0.185 HD
HETATM   11  C7  UNL     1      19.135 -30.512  -3.147  1.00  0.00     0.064 C 
HETATM   12  N3  UNL     1      20.478 -32.237  -4.050  1.00  0.00    -0.177 N 
HETATM   13  C8  UNL     1      20.715 -33.632  -4.130  1.00  0.00     0.694 A 
ATOM     14  H3  UNL     1      21.067 -31.571  -4.549  1.00  0.00     0.185 HD
HETATM   15  N4  UNL     1      21.686 -34.086  -4.841  1.00  0.00    -0.222 N 
ATOM     16  H4  UNL     1      21.807 -35.098  -4.861  1.00  0.00     0.178 HD
ATOM     17  H5  UNL     1      20.068 -35.570  -3.496  1.00  0.00     0.203 HD
ATOM     18  H1  UNL     1      18.307 -35.997  -2.117  1.00  0.00     0.177 HD
BRANCH  15  19
HETATM   19  C9  UNL     1      22.603 -33.317  -5.598  1.00  0.00     0.164 C 
BRANCH  19  20
HETATM   20  C10 UNL     1      23.991 -33.813  -5.273  1.00  0.00    -0.017 C 
HETATM   21  C11 UNL     1      24.410 -33.889  -4.022  1.00  0.00     0.008 C 
ENDBRANCH  19  20
ENDBRANCH  15  19
ENDBRANCH   4   5
ENDBRANCH   3   4
TORSDOF 4
ENDMDL
MODEL 4
REMARK VINA RESULT: -6.605886679      0.466      6.118
REMARK  4 active torsions:
REMARK  status: ('A' for Active; 'I' for Inactive)
REMARK    1  A    between atoms: C3_3  and  C4_4 
REMARK    2  A    between atoms: C4_4  and  N1_5 
REMARK    3  A    between atoms: N4_15  and  C9_17 
REMARK    4  A    between atoms: C9_17  and  C10_18 
ROOT
HETATM    1  C1  UNL     1      24.659 -34.264  -3.462  1.00  0.00     0.012 C 
HETATM    2  C2  UNL     1      24.340 -33.662  -4.456  1.00  0.00    -0.116 C 
HETATM    3  C3  UNL     1      23.956 -32.903  -5.671  1.00  0.00     0.113 C 
ENDROOT
BRANCH   3   4
HETATM    4  C4  UNL     1      22.507 -33.233  -5.983  1.00  0.00     0.150 C 
BRANCH   4   5
HETATM    5  N1  UNL     1      21.710 -33.322  -4.784  1.00  0.00    -0.225 N 
HETATM    6  C5  UNL     1      20.718 -34.135  -4.613  1.00  0.00     0.694 A 
HETATM    7  N2  UNL     1      20.280 -35.060  -5.600  1.00  0.00    -0.177 N 
HETATM    8  N5  UNL     1      20.011 -34.123  -3.382  1.00  0.00    -0.022 N 
HETATM    9  C6  UNL     1      19.175 -35.942  -5.365  1.00  0.00     0.127 A 
ATOM     10  H2  UNL     1      20.764 -35.096  -6.497  1.00  0.00     0.185 HD
HETATM   11  C7  UNL     1      18.807 -36.782  -6.311  1.00  0.00     0.064 C 
HETATM   12  N3  UNL     1      18.466 -35.931  -4.131  1.00  0.00    -0.177 N 
HETATM   13  C8  UNL     1      18.895 -35.012  -3.140  1.00  0.00     0.694 A 
ATOM     14  H3  UNL     1      17.680 -36.559  -3.966  1.00  0.00     0.185 HD
HETATM   15  N4  UNL     1      18.293 -34.955  -2.005  1.00  0.00    -0.222 N 
ATOM     16  H4  UNL     1      18.644 -34.275  -1.331  1.00  0.00     0.178 HD
ATOM     17  H5  UNL     1      20.297 -33.472  -2.650  1.00  0.00     0.203 HD
ATOM     18  H1  UNL     1      21.946 -32.696  -4.014  1.00  0.00     0.177 HD
BRANCH  15  19
HETATM   19  C9  UNL     1      17.189 -35.744  -1.598  1.00  0.00     0.164 C 
BRANCH  19  20
HETATM   20  C10 UNL     1      16.463 -34.988  -0.513  1.00  0.00    -0.017 C 
HETATM   21  C11 UNL     1      16.165 -33.709  -0.659  1.00  0.00     0.008 C 
ENDBRANCH  19  20
ENDBRANCH  15  19
ENDBRANCH   4   5
ENDBRANCH   3   4
TORSDOF 4
ENDMDL
MODEL 5
REMARK VINA RESULT: -6.601446479      1.857      6.858
REMARK  4 active torsions:
REMARK  status: ('A' for Active; 'I' for Inactive)
REMARK    1  A    between atoms: C3_3  and  C4_4 
REMARK    2  A    between atoms: C4_4  and  N1_5 
REMARK    3  A    between atoms: N4_15  and  C9_17 
REMARK    4  A    between atoms: C9_17  and  C10_18 
ROOT
HETATM    1  C1  UNL     1      24.751 -33.869  -3.771  1.00  0.00     0.012 C 
HETATM    2  C2  UNL     1      23.887 -33.780  -4.606  1.00  0.00    -0.116 C 
HETATM    3  C3  UNL     1      22.837 -33.663  -5.647  1.00  0.00     0.113 C 
ENDROOT
BRANCH   3   4
HETATM    4  C4  UNL     1      21.627 -33.002  -5.012  1.00  0.00     0.150 C 
BRANCH   4   5
HETATM    5  N1  UNL     1      20.810 -33.957  -4.303  1.00  0.00    -0.225 N 
HETATM    6  C5  UNL     1      19.850 -33.651  -3.491  1.00  0.00     0.694 A 
HETATM    7  N2  UNL     1      19.472 -32.314  -3.189  1.00  0.00    -0.177 N 
HETATM    8  N5  UNL     1      19.119 -34.687  -2.854  1.00  0.00    -0.022 N 
HETATM    9  C6  UNL     1      18.400 -32.024  -2.282  1.00  0.00     0.127 A 
ATOM     10  H2  UNL     1      19.975 -31.543  -3.628  1.00  0.00     0.185 HD
HETATM   11  C7  UNL     1      18.087 -30.768  -2.034  1.00  0.00     0.064 C 
HETATM   12  N3  UNL     1      17.667 -33.062  -1.643  1.00  0.00    -0.177 N 
HETATM   13  C8  UNL     1      18.036 -34.399  -1.938  1.00  0.00     0.694 A 
ATOM     14  H3  UNL     1      16.905 -32.853  -0.998  1.00  0.00     0.185 HD
HETATM   15  N4  UNL     1      17.410 -35.380  -1.390  1.00  0.00    -0.222 N 
ATOM     16  H4  UNL     1      17.720 -36.319  -1.639  1.00  0.00     0.178 HD
ATOM     17  H5  UNL     1      19.362 -35.659  -3.046  1.00  0.00     0.203 HD
ATOM     18  H1  UNL     1      21.003 -34.947  -4.454  1.00  0.00     0.177 HD
BRANCH  15  19
HETATM   19  C9  UNL     1      16.333 -35.284  -0.475  1.00  0.00     0.164 C 
BRANCH  19  20
HETATM   20  C10 UNL     1      16.275 -36.579   0.299  1.00  0.00    -0.017 C 
HETATM   21  C11 UNL     1      15.467 -37.556  -0.071  1.00  0.00     0.008 C 
ENDBRANCH  19  20
ENDBRANCH  15  19
ENDBRANCH   4   5
ENDBRANCH   3   4
TORSDOF 4
ENDMDL
