MODEL 1
REMARK VINA RESULT: -7.587302337      0.000      0.000
REMARK  6 active torsions:
REMARK  status: ('A' for Active; 'I' for Inactive)
REMARK    1  A    between atoms: N1_1  and  N2_4 
REMARK    2  A    between atoms: N2_4  and  C1_6 
REMARK    3  A    between atoms: N3_7  and  C2_9 
REMARK    4  A    between atoms: C2_9  and  C3_10 
REMARK    5  A    between atoms: C3_10  and  N4_11 
REMARK    6  A    between atoms: N4_11  and  C4_13 
ROOT
HETATM    1  N4  UNL     1      19.479 -32.645  -3.747  1.00  0.00    -0.388 N 
ATOM      2  H4  UNL     1      19.269 -33.370  -3.061  1.00  0.00     0.159 HD
ENDROOT
BRANCH   1   3
HETATM    3  C3  UNL     1      19.787 -31.289  -3.339  1.00  0.00     0.139 C 
BRANCH   3   4
HETATM    4  C2  UNL     1      18.705 -30.712  -2.455  1.00  0.00     0.140 C 
BRANCH   4   5
HETATM    5  N3  UNL     1      17.975 -29.661  -3.099  1.00  0.00    -0.384 N 
HETATM    6  C1  UNL     1      16.998 -29.023  -2.597  1.00  0.00     0.192 C 
ATOM      7  H3  UNL     1      18.265 -29.402  -4.043  1.00  0.00     0.160 HD
BRANCH   6   8
HETATM    8  N2  UNL     1      16.371 -28.001  -3.362  1.00  0.00    -0.303 N 
ATOM      9  H2  UNL     1      15.565 -28.225  -3.945  1.00  0.00     0.187 HD
BRANCH   8  10
HETATM   10  N1  UNL     1      16.859 -26.684  -3.315  1.00  0.00    -0.344 N 
ATOM     11  H12 UNL     1      16.864 -26.128  -4.170  1.00  0.00     0.176 HD
ATOM     12  H11 UNL     1      17.202 -26.296  -2.436  1.00  0.00     0.176 HD
ENDBRANCH   8  10
ENDBRANCH   6   8
ENDBRANCH   4   5
ENDBRANCH   3   4
ENDBRANCH   1   3
BRANCH   1  13
HETATM   13  C4  UNL     1      19.480 -32.901  -5.006  1.00  0.00     0.042 A 
HETATM   14  C5  UNL     1      19.688 -31.933  -5.979  1.00  0.00     0.047 A 
HETATM   15  C6  UNL     1      19.669 -32.311  -7.287  1.00  0.00     0.090 A 
HETATM   16  N5  UNL     1      19.457 -33.590  -7.691  1.00  0.00    -0.365 N 
HETATM   17  C7  UNL     1      19.253 -34.552  -6.774  1.00  0.00     0.044 A 
ATOM     18  H5  UNL     1      19.453 -33.820  -8.685  1.00  0.00     0.165 HD
HETATM   19  C8  UNL     1      19.038 -35.849  -7.182  1.00  0.00     0.030 A 
HETATM   20  C12 UNL     1      19.267 -34.197  -5.449  1.00  0.00     0.017 A 
HETATM   21  C9  UNL     1      18.827 -36.844  -6.229  1.00  0.00     0.002 A 
HETATM   22  C10 UNL     1      18.840 -36.495  -4.888  1.00  0.00     0.001 A 
HETATM   23  C11 UNL     1      19.058 -35.175  -4.479  1.00  0.00     0.016 A 
ENDBRANCH   1  13
TORSDOF 6
ENDMDL
MODEL 2
REMARK VINA RESULT: -7.472637422      1.724      2.243
REMARK  6 active torsions:
REMARK  status: ('A' for Active; 'I' for Inactive)
REMARK    1  A    between atoms: N1_1  and  N2_4 
REMARK    2  A    between atoms: N2_4  and  C1_6 
REMARK    3  A    between atoms: N3_7  and  C2_9 
REMARK    4  A    between atoms: C2_9  and  C3_10 
REMARK    5  A    between atoms: C3_10  and  N4_11 
REMARK    6  A    between atoms: N4_11  and  C4_13 
ROOT
HETATM    1  N4  UNL     1      19.390 -32.550  -3.656  1.00  0.00    -0.388 N 
ATOM      2  H4  UNL     1      19.117 -33.257  -2.973  1.00  0.00     0.159 HD
ENDROOT
BRANCH   1   3
HETATM    3  C3  UNL     1      19.737 -31.204  -3.246  1.00  0.00     0.139 C 
BRANCH   3   4
HETATM    4  C2  UNL     1      18.517 -30.413  -2.833  1.00  0.00     0.140 C 
BRANCH   4   5
HETATM    5  N3  UNL     1      17.989 -30.841  -1.571  1.00  0.00    -0.384 N 
HETATM    6  C1  UNL     1      16.794 -31.213  -1.358  1.00  0.00     0.192 C 
ATOM      7  H3  UNL     1      18.629 -30.847  -0.776  1.00  0.00     0.160 HD
BRANCH   6   8
HETATM    8  N2  UNL     1      16.416 -31.612  -0.046  1.00  0.00    -0.303 N 
ATOM      9  H2  UNL     1      16.657 -31.027   0.753  1.00  0.00     0.187 HD
BRANCH   8  10
HETATM   10  N1  UNL     1      15.710 -32.812   0.151  1.00  0.00    -0.344 N 
ATOM     11  H12 UNL     1      15.000 -32.852   0.881  1.00  0.00     0.176 HD
ATOM     12  H11 UNL     1      15.911 -33.626  -0.430  1.00  0.00     0.176 HD
ENDBRANCH   8  10
ENDBRANCH   6   8
ENDBRANCH   4   5
ENDBRANCH   3   4
ENDBRANCH   1   3
BRANCH   1  13
HETATM   13  C4  UNL     1      19.437 -32.820  -4.911  1.00  0.00     0.042 A 
HETATM   14  C5  UNL     1      19.675 -31.862  -5.886  1.00  0.00     0.047 A 
HETATM   15  C6  UNL     1      19.705 -32.255  -7.191  1.00  0.00     0.090 A 
HETATM   16  N5  UNL     1      19.513 -33.539  -7.587  1.00  0.00    -0.365 N 
HETATM   17  C7  UNL     1      19.280 -34.492  -6.667  1.00  0.00     0.044 A 
ATOM     18  H5  UNL     1      19.546 -33.781  -8.578  1.00  0.00     0.165 HD
HETATM   19  C8  UNL     1      19.085 -35.795  -7.068  1.00  0.00     0.030 A 
HETATM   20  C12 UNL     1      19.245 -34.122  -5.347  1.00  0.00     0.017 A 
HETATM   21  C9  UNL     1      18.844 -36.779  -6.112  1.00  0.00     0.002 A 
HETATM   22  C10 UNL     1      18.807 -36.415  -4.776  1.00  0.00     0.001 A 
HETATM   23  C11 UNL     1      19.006 -35.090  -4.374  1.00  0.00     0.016 A 
ENDBRANCH   1  13
TORSDOF 6
ENDMDL
MODEL 3
REMARK VINA RESULT: -7.397901058      2.727      5.687
REMARK  6 active torsions:
REMARK  status: ('A' for Active; 'I' for Inactive)
REMARK    1  A    between atoms: N1_1  and  N2_4 
REMARK    2  A    between atoms: N2_4  and  C1_6 
REMARK    3  A    between atoms: N3_7  and  C2_9 
REMARK    4  A    between atoms: C2_9  and  C3_10 
REMARK    5  A    between atoms: C3_10  and  N4_11 
REMARK    6  A    between atoms: N4_11  and  C4_13 
ROOT
HETATM    1  N4  UNL     1      19.368 -34.547  -3.687  1.00  0.00    -0.388 N 
ATOM      2  H4  UNL     1      19.338 -35.528  -3.410  1.00  0.00     0.159 HD
ENDROOT
BRANCH   1   3
HETATM    3  C3  UNL     1      19.978 -34.137  -4.936  1.00  0.00     0.139 C 
BRANCH   3   4
HETATM    4  C2  UNL     1      19.133 -34.531  -6.126  1.00  0.00     0.140 C 
BRANCH   4   5
HETATM    5  N3  UNL     1      19.544 -33.872  -7.331  1.00  0.00    -0.384 N 
HETATM    6  C1  UNL     1      19.831 -32.639  -7.438  1.00  0.00     0.192 C 
ATOM      7  H3  UNL     1      19.612 -34.442  -8.174  1.00  0.00     0.160 HD
BRANCH   6   8
HETATM    8  N2  UNL     1      20.224 -32.127  -8.705  1.00  0.00    -0.303 N 
ATOM      9  H2  UNL     1      19.554 -32.099  -9.473  1.00  0.00     0.187 HD
BRANCH   8  10
HETATM   10  N1  UNL     1      21.536 -31.661  -8.902  1.00  0.00    -0.344 N 
ATOM     11  H12 UNL     1      22.158 -31.585  -8.098  1.00  0.00     0.176 HD
ATOM     12  H11 UNL     1      21.854 -31.405  -9.837  1.00  0.00     0.176 HD
ENDBRANCH   8  10
ENDBRANCH   6   8
ENDBRANCH   4   5
ENDBRANCH   3   4
ENDBRANCH   1   3
BRANCH   1  13
HETATM   13  C4  UNL     1      18.868 -33.629  -2.940  1.00  0.00     0.042 A 
HETATM   14  C5  UNL     1      19.157 -32.281  -3.096  1.00  0.00     0.047 A 
HETATM   15  C6  UNL     1      18.571 -31.388  -2.250  1.00  0.00     0.090 A 
HETATM   16  N5  UNL     1      17.717 -31.750  -1.259  1.00  0.00    -0.365 N 
HETATM   17  C7  UNL     1      17.415 -33.049  -1.081  1.00  0.00     0.044 A 
ATOM     18  H5  UNL     1      17.305 -31.041  -0.652  1.00  0.00     0.165 HD
HETATM   19  C8  UNL     1      16.549 -33.417  -0.077  1.00  0.00     0.030 A 
HETATM   20  C12 UNL     1      17.992 -33.968  -1.921  1.00  0.00     0.017 A 
HETATM   21  C9  UNL     1      16.239 -34.763   0.105  1.00  0.00     0.002 A 
HETATM   22  C10 UNL     1      16.816 -35.699  -0.739  1.00  0.00     0.001 A 
HETATM   23  C11 UNL     1      17.696 -35.319  -1.758  1.00  0.00     0.016 A 
ENDBRANCH   1  13
TORSDOF 6
ENDMDL
MODEL 4
REMARK VINA RESULT: -7.195999073      2.750      5.843
REMARK  6 active torsions:
REMARK  status: ('A' for Active; 'I' for Inactive)
REMARK    1  A    between atoms: N1_1  and  N2_4 
REMARK    2  A    between atoms: N2_4  and  C1_6 
REMARK    3  A    between atoms: N3_7  and  C2_9 
REMARK    4  A    between atoms: C2_9  and  C3_10 
REMARK    5  A    between atoms: C3_10  and  N4_11 
REMARK    6  A    between atoms: N4_11  and  C4_13 
ROOT
HETATM    1  N4  UNL     1      20.393 -34.166  -4.378  1.00  0.00    -0.388 N 
ATOM      2  H4  UNL     1      21.286 -33.674  -4.363  1.00  0.00     0.159 HD
ENDROOT
BRANCH   1   3
HETATM    3  C3  UNL     1      20.070 -35.108  -5.431  1.00  0.00     0.139 C 
BRANCH   3   4
HETATM    4  C2  UNL     1      19.054 -34.541  -6.396  1.00  0.00     0.140 C 
BRANCH   4   5
HETATM    5  N3  UNL     1      19.666 -33.825  -7.476  1.00  0.00    -0.384 N 
HETATM    6  C1  UNL     1      19.677 -32.563  -7.614  1.00  0.00     0.192 C 
ATOM      7  H3  UNL     1      20.134 -34.377  -8.196  1.00  0.00     0.160 HD
BRANCH   6   8
HETATM    8  N2  UNL     1      20.328 -31.994  -8.744  1.00  0.00    -0.303 N 
ATOM      9  H2  UNL     1      19.790 -31.771  -9.581  1.00  0.00     0.187 HD
BRANCH   8  10
HETATM   10  N1  UNL     1      21.710 -31.739  -8.709  1.00  0.00    -0.344 N 
ATOM     11  H12 UNL     1      22.332 -32.314  -9.276  1.00  0.00     0.176 HD
ATOM     12  H11 UNL     1      22.078 -30.991  -8.122  1.00  0.00     0.176 HD
ENDBRANCH   8  10
ENDBRANCH   6   8
ENDBRANCH   4   5
ENDBRANCH   3   4
ENDBRANCH   1   3
BRANCH   1  13
HETATM   13  C4  UNL     1      19.511 -33.973  -3.463  1.00  0.00     0.042 A 
HETATM   14  C5  UNL     1      18.900 -35.006  -2.766  1.00  0.00     0.047 A 
HETATM   15  C6  UNL     1      17.977 -34.691  -1.815  1.00  0.00     0.090 A 
HETATM   16  N5  UNL     1      17.623 -33.415  -1.512  1.00  0.00    -0.365 N 
HETATM   17  C7  UNL     1      18.196 -32.391  -2.170  1.00  0.00     0.044 A 
ATOM     18  H5  UNL     1      16.925 -33.234  -0.790  1.00  0.00     0.165 HD
HETATM   19  C8  UNL     1      17.838 -31.098  -1.864  1.00  0.00     0.030 A 
HETATM   20  C12 UNL     1      19.129 -32.682  -3.132  1.00  0.00     0.017 A 
HETATM   21  C9  UNL     1      18.434 -30.040  -2.546  1.00  0.00     0.002 A 
HETATM   22  C10 UNL     1      19.378 -30.323  -3.520  1.00  0.00     0.001 A 
HETATM   23  C11 UNL     1      19.739 -31.640  -3.827  1.00  0.00     0.016 A 
ENDBRANCH   1  13
TORSDOF 6
ENDMDL
MODEL 5
REMARK VINA RESULT: -7.085563816      3.352      6.112
REMARK  6 active torsions:
REMARK  status: ('A' for Active; 'I' for Inactive)
REMARK    1  A    between atoms: N1_1  and  N2_4 
REMARK    2  A    between atoms: N2_4  and  C1_6 
REMARK    3  A    between atoms: N3_7  and  C2_9 
REMARK    4  A    between atoms: C2_9  and  C3_10 
REMARK    5  A    between atoms: C3_10  and  N4_11 
REMARK    6  A    between atoms: N4_11  and  C4_13 
ROOT
HETATM    1  N4  UNL     1      19.739 -35.160  -3.981  1.00  0.00    -0.388 N 
ATOM      2  H4  UNL     1      19.581 -36.085  -3.582  1.00  0.00     0.159 HD
ENDROOT
BRANCH   1   3
HETATM    3  C3  UNL     1      20.471 -34.992  -5.221  1.00  0.00     0.139 C 
BRANCH   3   4
HETATM    4  C2  UNL     1      21.715 -35.851  -5.256  1.00  0.00     0.140 C 
BRANCH   4   5
HETATM    5  N3  UNL     1      22.882 -35.143  -4.819  1.00  0.00    -0.384 N 
HETATM    6  C1  UNL     1      23.129 -33.917  -5.041  1.00  0.00     0.192 C 
ATOM      7  H3  UNL     1      23.573 -35.669  -4.283  1.00  0.00     0.160 HD
BRANCH   6   8
HETATM    8  N2  UNL     1      24.334 -33.352  -4.541  1.00  0.00    -0.303 N 
ATOM      9  H2  UNL     1      24.621 -32.420  -4.840  1.00  0.00     0.187 HD
BRANCH   8  10
HETATM   10  N1  UNL     1      25.131 -34.075  -3.636  1.00  0.00    -0.344 N 
ATOM     11  H12 UNL     1      24.762 -34.934  -3.231  1.00  0.00     0.176 HD
ATOM     12  H11 UNL     1      26.063 -33.740  -3.393  1.00  0.00     0.176 HD
ENDBRANCH   8  10
ENDBRANCH   6   8
ENDBRANCH   4   5
ENDBRANCH   3   4
ENDBRANCH   1   3
BRANCH   1  13
HETATM   13  C4  UNL     1      19.295 -34.101  -3.404  1.00  0.00     0.042 A 
HETATM   14  C5  UNL     1      19.748 -32.825  -3.707  1.00  0.00     0.047 A 
HETATM   15  C6  UNL     1      19.211 -31.768  -3.035  1.00  0.00     0.090 A 
HETATM   16  N5  UNL     1      18.252 -31.899  -2.083  1.00  0.00    -0.365 N 
HETATM   17  C7  UNL     1      17.792 -33.123  -1.766  1.00  0.00     0.044 A 
ATOM     18  H5  UNL     1      17.883 -31.074  -1.610  1.00  0.00     0.165 HD
HETATM   19  C8  UNL     1      16.820 -33.257  -0.800  1.00  0.00     0.030 A 
HETATM   20  C12 UNL     1      18.317 -34.203  -2.428  1.00  0.00     0.017 A 
HETATM   21  C9  UNL     1      16.345 -34.526  -0.475  1.00  0.00     0.002 A 
HETATM   22  C10 UNL     1      16.869 -35.623  -1.139  1.00  0.00     0.001 A 
HETATM   23  C11 UNL     1      17.857 -35.481  -2.120  1.00  0.00     0.016 A 
ENDBRANCH   1  13
TORSDOF 6
ENDMDL
