MODEL 1
REMARK VINA RESULT: -7.235022170      0.000      0.000
REMARK  5 active torsions:
REMARK  status: ('A' for Active; 'I' for Inactive)
REMARK       I    between atoms: C2_5  and  N3_6 
REMARK       I    between atoms: C2_5  and  N5_11 
REMARK    1  A    between atoms: N3_6  and  N4_8 
REMARK    2  A    between atoms: N5_11  and  C3_13 
REMARK    3  A    between atoms: C3_13  and  C4_14 
REMARK    4  A    between atoms: C4_14  and  C5_15 
REMARK    5  A    between atoms: C5_15  and  N6_16 
ROOT
HETATM    1  N1  UNL     1      18.546 -37.360  -6.987  1.00  0.00    -0.171 NA
HETATM    2  C1  UNL     1      18.949 -36.284  -7.197  1.00  0.00     0.196 C 
HETATM    3  N2  UNL     1      19.423 -35.044  -7.476  1.00  0.00    -0.125 N 
ATOM      4  H2  UNL     1      19.630 -34.865  -8.458  1.00  0.00     0.197 HD
HETATM    5  C2  UNL     1      19.640 -34.091  -6.698  1.00  0.00     0.701 C 
HETATM    6  N3  UNL     1      20.152 -32.857  -7.262  1.00  0.00    -0.138 N 
ATOM      7  H3  UNL     1      21.135 -32.772  -7.522  1.00  0.00     0.205 HD
HETATM    8  N5  UNL     1      19.445 -34.051  -5.277  1.00  0.00    -0.224 N 
ATOM      9  H5  UNL     1      18.992 -33.221  -4.896  1.00  0.00     0.177 HD
ENDROOT
BRANCH   6  10
HETATM   10  N4  UNL     1      19.288 -31.807  -7.437  1.00  0.00    -0.331 N 
ATOM     11  H42 UNL     1      18.607 -31.586  -6.711  1.00  0.00     0.177 HD
ATOM     12  H41 UNL     1      19.347 -31.266  -8.300  1.00  0.00     0.177 HD
ENDBRANCH   6  10
BRANCH   8  13
HETATM   13  C3  UNL     1      19.826 -35.060  -4.352  1.00  0.00     0.139 C 
BRANCH  13  14
HETATM   14  C4  UNL     1      18.587 -35.498  -3.555  1.00  0.00     0.040 C 
BRANCH  14  15
HETATM   15  C5  UNL     1      18.393 -34.640  -2.345  1.00  0.00     0.129 C 
BRANCH  15  16
HETATM   16  N6  UNL     1      17.565 -35.366  -1.396  1.00  0.00    -0.366 N 
HETATM   17  C6  UNL     1      17.002 -36.526  -1.802  1.00  0.00     0.090 A 
HETATM   18  C7  UNL     1      16.204 -37.283  -1.003  1.00  0.00     0.017 A 
HETATM   19  C8  UNL     1      15.946 -36.857   0.299  1.00  0.00     0.003 A 
HETATM   20  C9  UNL     1      16.518 -35.678   0.712  1.00  0.00     0.017 A 
HETATM   21  C10 UNL     1      17.316 -34.961  -0.149  1.00  0.00     0.090 A 
ENDBRANCH  15  16
ENDBRANCH  14  15
ENDBRANCH  13  14
ENDBRANCH   8  13
TORSDOF 5
ENDMDL
MODEL 2
REMARK VINA RESULT: -7.186047065      1.459      3.049
REMARK  5 active torsions:
REMARK  status: ('A' for Active; 'I' for Inactive)
REMARK       I    between atoms: C2_5  and  N3_6 
REMARK       I    between atoms: C2_5  and  N5_11 
REMARK    1  A    between atoms: N3_6  and  N4_8 
REMARK    2  A    between atoms: N5_11  and  C3_13 
REMARK    3  A    between atoms: C3_13  and  C4_14 
REMARK    4  A    between atoms: C4_14  and  C5_15 
REMARK    5  A    between atoms: C5_15  and  N6_16 
ROOT
HETATM    1  N1  UNL     1      20.266 -30.927  -8.095  1.00  0.00    -0.171 NA
HETATM    2  C1  UNL     1      19.885 -32.025  -7.971  1.00  0.00     0.196 C 
HETATM    3  N2  UNL     1      19.432 -33.299  -7.861  1.00  0.00    -0.125 N 
ATOM      4  H2  UNL     1      19.058 -33.706  -8.719  1.00  0.00     0.197 HD
HETATM    5  C2  UNL     1      19.407 -34.043  -6.858  1.00  0.00     0.701 C 
HETATM    6  N3  UNL     1      18.863 -35.377  -7.015  1.00  0.00    -0.138 N 
ATOM      7  H3  UNL     1      17.856 -35.527  -7.058  1.00  0.00     0.205 HD
HETATM    8  N5  UNL     1      19.859 -33.745  -5.529  1.00  0.00    -0.224 N 
ATOM      9  H5  UNL     1      20.415 -34.459  -5.059  1.00  0.00     0.177 HD
ENDROOT
BRANCH   6  10
HETATM   10  N4  UNL     1      19.733 -36.434  -7.103  1.00  0.00    -0.331 N 
ATOM     11  H42 UNL     1      20.221 -36.616  -7.980  1.00  0.00     0.177 HD
ATOM     12  H41 UNL     1      19.872 -37.021  -6.280  1.00  0.00     0.177 HD
ENDBRANCH   6  10
BRANCH   8  13
HETATM   13  C3  UNL     1      19.603 -32.548  -4.808  1.00  0.00     0.139 C 
BRANCH  13  14
HETATM   14  C4  UNL     1      19.274 -32.906  -3.350  1.00  0.00     0.040 C 
BRANCH  14  15
HETATM   15  C5  UNL     1      19.092 -34.382  -3.185  1.00  0.00     0.129 C 
BRANCH  15  16
HETATM   16  N6  UNL     1      18.092 -34.608  -2.153  1.00  0.00    -0.366 N 
HETATM   17  C6  UNL     1      17.648 -33.540  -1.455  1.00  0.00     0.090 A 
HETATM   18  C7  UNL     1      16.721 -33.635  -0.464  1.00  0.00     0.017 A 
HETATM   19  C8  UNL     1      16.194 -34.885  -0.144  1.00  0.00     0.003 A 
HETATM   20  C9  UNL     1      16.646 -35.971  -0.853  1.00  0.00     0.017 A 
HETATM   21  C10 UNL     1      17.586 -35.805  -1.844  1.00  0.00     0.090 A 
ENDBRANCH  15  16
ENDBRANCH  14  15
ENDBRANCH  13  14
ENDBRANCH   8  13
TORSDOF 5
ENDMDL
MODEL 3
REMARK VINA RESULT: -7.157889996      1.486      2.885
REMARK  5 active torsions:
REMARK  status: ('A' for Active; 'I' for Inactive)
REMARK       I    between atoms: C2_5  and  N3_6 
REMARK       I    between atoms: C2_5  and  N5_11 
REMARK    1  A    between atoms: N3_6  and  N4_8 
REMARK    2  A    between atoms: N5_11  and  C3_13 
REMARK    3  A    between atoms: C3_13  and  C4_14 
REMARK    4  A    between atoms: C4_14  and  C5_15 
REMARK    5  A    between atoms: C5_15  and  N6_16 
ROOT
HETATM    1  N1  UNL     1      20.278 -30.919  -8.109  1.00  0.00    -0.171 NA
HETATM    2  C1  UNL     1      19.894 -32.017  -7.993  1.00  0.00     0.196 C 
HETATM    3  N2  UNL     1      19.437 -33.290  -7.891  1.00  0.00    -0.125 N 
ATOM      4  H2  UNL     1      19.053 -33.687  -8.749  1.00  0.00     0.197 HD
HETATM    5  C2  UNL     1      19.420 -34.044  -6.896  1.00  0.00     0.701 C 
HETATM    6  N3  UNL     1      18.869 -35.375  -7.060  1.00  0.00    -0.138 N 
ATOM      7  H3  UNL     1      17.861 -35.521  -7.095  1.00  0.00     0.205 HD
HETATM    8  N5  UNL     1      19.887 -33.761  -5.568  1.00  0.00    -0.224 N 
ATOM      9  H5  UNL     1      20.445 -34.482  -5.111  1.00  0.00     0.177 HD
ENDROOT
BRANCH   6  10
HETATM   10  N4  UNL     1      19.733 -36.433  -7.168  1.00  0.00    -0.331 N 
ATOM     11  H42 UNL     1      20.427 -36.597  -6.439  1.00  0.00     0.177 HD
ATOM     12  H41 UNL     1      19.662 -37.040  -7.986  1.00  0.00     0.177 HD
ENDBRANCH   6  10
BRANCH   8  13
HETATM   13  C3  UNL     1      19.642 -32.571  -4.832  1.00  0.00     0.139 C 
BRANCH  13  14
HETATM   14  C4  UNL     1      19.458 -32.932  -3.349  1.00  0.00     0.040 C 
BRANCH  14  15
HETATM   15  C5  UNL     1      19.077 -34.370  -3.187  1.00  0.00     0.129 C 
BRANCH  15  16
HETATM   16  N6  UNL     1      18.090 -34.466  -2.124  1.00  0.00    -0.366 N 
HETATM   17  C6  UNL     1      17.599 -35.688  -1.822  1.00  0.00     0.090 A 
HETATM   18  C7  UNL     1      16.668 -35.894  -0.852  1.00  0.00     0.017 A 
HETATM   19  C8  UNL     1      16.190 -34.804  -0.126  1.00  0.00     0.003 A 
HETATM   20  C9  UNL     1      16.689 -33.562  -0.433  1.00  0.00     0.017 A 
HETATM   21  C10 UNL     1      17.631 -33.424  -1.426  1.00  0.00     0.090 A 
ENDBRANCH  15  16
ENDBRANCH  14  15
ENDBRANCH  13  14
ENDBRANCH   8  13
TORSDOF 5
ENDMDL
MODEL 4
REMARK VINA RESULT: -7.140095554      1.856      2.973
REMARK  5 active torsions:
REMARK  status: ('A' for Active; 'I' for Inactive)
REMARK       I    between atoms: C2_5  and  N3_6 
REMARK       I    between atoms: C2_5  and  N5_11 
REMARK    1  A    between atoms: N3_6  and  N4_8 
REMARK    2  A    between atoms: N5_11  and  C3_13 
REMARK    3  A    between atoms: C3_13  and  C4_14 
REMARK    4  A    between atoms: C4_14  and  C5_15 
REMARK    5  A    between atoms: C5_15  and  N6_16 
ROOT
HETATM    1  N1  UNL     1      22.644 -35.874  -4.009  1.00  0.00    -0.171 NA
HETATM    2  C1  UNL     1      21.935 -35.949  -4.935  1.00  0.00     0.196 C 
HETATM    3  N2  UNL     1      21.135 -36.058  -6.025  1.00  0.00    -0.125 N 
ATOM      4  H2  UNL     1      21.442 -36.730  -6.728  1.00  0.00     0.197 HD
HETATM    5  C2  UNL     1      20.075 -35.451  -6.288  1.00  0.00     0.701 C 
HETATM    6  N3  UNL     1      19.408 -35.760  -7.538  1.00  0.00    -0.138 N 
ATOM      7  H3  UNL     1      19.755 -35.384  -8.420  1.00  0.00     0.205 HD
HETATM    8  N5  UNL     1      19.408 -34.459  -5.496  1.00  0.00    -0.224 N 
ATOM      9  H5  UNL     1      18.397 -34.550  -5.395  1.00  0.00     0.177 HD
ENDROOT
BRANCH   6  10
HETATM   10  N4  UNL     1      18.301 -36.567  -7.508  1.00  0.00    -0.331 N 
ATOM     11  H42 UNL     1      18.402 -37.572  -7.656  1.00  0.00     0.177 HD
ATOM     12  H41 UNL     1      17.389 -36.140  -7.339  1.00  0.00     0.177 HD
ENDBRANCH   6  10
BRANCH   8  13
HETATM   13  C3  UNL     1      20.024 -33.360  -4.839  1.00  0.00     0.139 C 
BRANCH  13  14
HETATM   14  C4  UNL     1      19.459 -33.251  -3.414  1.00  0.00     0.040 C 
BRANCH  14  15
HETATM   15  C5  UNL     1      18.941 -34.571  -2.936  1.00  0.00     0.129 C 
BRANCH  15  16
HETATM   16  N6  UNL     1      17.937 -34.327  -1.913  1.00  0.00    -0.366 N 
HETATM   17  C6  UNL     1      17.689 -33.047  -1.560  1.00  0.00     0.090 A 
HETATM   18  C7  UNL     1      16.777 -32.703  -0.611  1.00  0.00     0.017 A 
HETATM   19  C8  UNL     1      16.057 -33.706   0.035  1.00  0.00     0.003 A 
HETATM   20  C9  UNL     1      16.310 -35.008  -0.323  1.00  0.00     0.017 A 
HETATM   21  C10 UNL     1      17.246 -35.286  -1.292  1.00  0.00     0.090 A 
ENDBRANCH  15  16
ENDBRANCH  14  15
ENDBRANCH  13  14
ENDBRANCH   8  13
TORSDOF 5
ENDMDL
MODEL 5
REMARK VINA RESULT: -7.136629949      0.120      1.173
REMARK  5 active torsions:
REMARK  status: ('A' for Active; 'I' for Inactive)
REMARK       I    between atoms: C2_5  and  N3_6 
REMARK       I    between atoms: C2_5  and  N5_11 
REMARK    1  A    between atoms: N3_6  and  N4_8 
REMARK    2  A    between atoms: N5_11  and  C3_13 
REMARK    3  A    between atoms: C3_13  and  C4_14 
REMARK    4  A    between atoms: C4_14  and  C5_15 
REMARK    5  A    between atoms: C5_15  and  N6_16 
ROOT
HETATM    1  N1  UNL     1      18.703 -37.316  -6.834  1.00  0.00    -0.171 NA
HETATM    2  C1  UNL     1      19.064 -36.234  -7.089  1.00  0.00     0.196 C 
HETATM    3  N2  UNL     1      19.488 -34.989  -7.419  1.00  0.00    -0.125 N 
ATOM      4  H2  UNL     1      19.683 -34.841  -8.409  1.00  0.00     0.197 HD
HETATM    5  C2  UNL     1      19.672 -33.998  -6.680  1.00  0.00     0.701 C 
HETATM    6  N3  UNL     1      20.134 -32.769  -7.295  1.00  0.00    -0.138 N 
ATOM      7  H3  UNL     1      21.111 -32.657  -7.565  1.00  0.00     0.205 HD
HETATM    8  N5  UNL     1      19.484 -33.910  -5.261  1.00  0.00    -0.224 N 
ATOM      9  H5  UNL     1      19.001 -33.083  -4.909  1.00  0.00     0.177 HD
ENDROOT
BRANCH   6  10
HETATM   10  N4  UNL     1      19.230 -31.761  -7.506  1.00  0.00    -0.331 N 
ATOM     11  H42 UNL     1      19.244 -30.935  -6.907  1.00  0.00     0.177 HD
ATOM     12  H41 UNL     1      18.555 -31.861  -8.266  1.00  0.00     0.177 HD
ENDBRANCH   6  10
BRANCH   8  13
HETATM   13  C3  UNL     1      19.908 -34.866  -4.300  1.00  0.00     0.139 C 
BRANCH  13  14
HETATM   14  C4  UNL     1      18.674 -35.413  -3.564  1.00  0.00     0.040 C 
BRANCH  14  15
HETATM   15  C5  UNL     1      18.386 -34.618  -2.330  1.00  0.00     0.129 C 
BRANCH  15  16
HETATM   16  N6  UNL     1      17.539 -35.415  -1.458  1.00  0.00    -0.366 N 
HETATM   17  C6  UNL     1      17.286 -34.946  -0.216  1.00  0.00     0.090 A 
HETATM   18  C7  UNL     1      16.515 -35.611   0.686  1.00  0.00     0.017 A 
HETATM   19  C8  UNL     1      15.950 -36.833   0.326  1.00  0.00     0.003 A 
HETATM   20  C9  UNL     1      16.207 -37.311  -0.936  1.00  0.00     0.017 A 
HETATM   21  C10 UNL     1      16.996 -36.586  -1.799  1.00  0.00     0.090 A 
ENDBRANCH  15  16
ENDBRANCH  14  15
ENDBRANCH  13  14
ENDBRANCH   8  13
TORSDOF 5
ENDMDL
