MODEL 1
REMARK VINA RESULT: -4.330502016      0.000      0.000
REMARK  2 active torsions:
REMARK  status: ('A' for Active; 'I' for Inactive)
REMARK    1  A    between atoms: C2_4  and  O1_5 
REMARK    2  A    between atoms: C2_4  and  C4_7 
ROOT
HETATM    1  C4  UNL     1      14.754  25.913  21.014  1.00  0.00     0.060 C 
HETATM    2  C5  UNL     1      15.647  25.441  19.890  1.00  0.00     0.013 C 
HETATM    3  C6  UNL     1      17.069  25.271  20.309  1.00  0.00     0.001 C 
HETATM    4  C7  UNL     1      17.676  26.483  20.944  1.00  0.00     0.000 C 
HETATM    5  C8  UNL     1      18.280  26.168  22.318  1.00  0.00     0.000 C 
HETATM    6  C9  UNL     1      17.610  26.986  23.360  1.00  0.00     0.000 C 
HETATM    7  C10 UNL     1      17.034  26.216  24.499  1.00  0.00     0.000 C 
HETATM    8  C11 UNL     1      16.146  25.087  24.099  1.00  0.00     0.000 C 
HETATM    9  C12 UNL     1      14.843  25.533  23.492  1.00  0.00     0.001 C 
HETATM   10  C13 UNL     1      14.633  24.887  22.122  1.00  0.00     0.013 C 
ENDROOT
BRANCH   1  11
HETATM   11  C2  UNL     1      13.373  26.099  20.424  1.00  0.00     0.116 C 
HETATM   12  N1  UNL     1      12.461  25.264  20.571  1.00  0.00    -0.378 N 
HETATM   13  C1  UNL     1      11.126  25.153  20.165  1.00  0.00     0.148 C 
ATOM     14  H1  UNL     1      12.760  24.463  21.126  1.00  0.00     0.160 HD
BRANCH  11  15
HETATM   15  O1  UNL     1      13.179  27.257  19.705  1.00  0.00    -0.344 OA
HETATM   16  C3  UNL     1      13.059  28.545  20.223  1.00  0.00     0.211 C 
ENDBRANCH  11  15
ENDBRANCH   1  11
TORSDOF 2
ENDMDL
MODEL 2
REMARK VINA RESULT: -4.075649500      2.450      4.072
REMARK  2 active torsions:
REMARK  status: ('A' for Active; 'I' for Inactive)
REMARK    1  A    between atoms: C2_4  and  O1_5 
REMARK    2  A    between atoms: C2_4  and  C4_7 
ROOT
HETATM    1  C4  UNL     1      15.320  25.927  22.940  1.00  0.00     0.060 C 
HETATM    2  C5  UNL     1      14.240  25.215  22.159  1.00  0.00     0.013 C 
HETATM    3  C6  UNL     1      14.483  25.230  20.686  1.00  0.00     0.001 C 
HETATM    4  C7  UNL     1      14.690  26.595  20.107  1.00  0.00     0.000 C 
HETATM    5  C8  UNL     1      15.999  26.688  19.312  1.00  0.00     0.000 C 
HETATM    6  C9  UNL     1      16.878  27.722  19.913  1.00  0.00     0.000 C 
HETATM    7  C10 UNL     1      18.248  27.258  20.277  1.00  0.00     0.000 C 
HETATM    8  C11 UNL     1      18.283  26.022  21.111  1.00  0.00     0.000 C 
HETATM    9  C12 UNL     1      17.774  26.228  22.511  1.00  0.00     0.001 C 
HETATM   10  C13 UNL     1      16.661  25.230  22.837  1.00  0.00     0.013 C 
ENDROOT
BRANCH   1  11
HETATM   11  C2  UNL     1      14.905  25.883  24.394  1.00  0.00     0.116 C 
HETATM   12  N1  UNL     1      14.577  24.829  24.969  1.00  0.00    -0.378 N 
HETATM   13  C1  UNL     1      14.159  24.474  26.257  1.00  0.00     0.148 C 
ATOM     14  H1  UNL     1      14.624  24.023  24.347  1.00  0.00     0.160 HD
BRANCH  11  15
HETATM   15  O1  UNL     1      14.909  27.091  25.056  1.00  0.00    -0.344 OA
HETATM   16  C3  UNL     1      15.274  28.327  24.525  1.00  0.00     0.211 C 
ENDBRANCH  11  15
ENDBRANCH   1  11
TORSDOF 2
ENDMDL
MODEL 3
REMARK VINA RESULT: -4.038880639      2.777      4.675
REMARK  2 active torsions:
REMARK  status: ('A' for Active; 'I' for Inactive)
REMARK    1  A    between atoms: C2_4  and  O1_5 
REMARK    2  A    between atoms: C2_4  and  C4_7 
ROOT
HETATM    1  C4  UNL     1      15.920  25.488  24.084  1.00  0.00     0.060 C 
HETATM    2  C5  UNL     1      16.896  26.575  24.470  1.00  0.00     0.013 C 
HETATM    3  C6  UNL     1      16.854  26.904  25.925  1.00  0.00     0.001 C 
HETATM    4  C7  UNL     1      15.494  27.257  26.442  1.00  0.00     0.000 C 
HETATM    5  C8  UNL     1      15.097  26.397  27.647  1.00  0.00     0.000 C 
HETATM    6  C9  UNL     1      13.864  25.633  27.334  1.00  0.00     0.000 C 
HETATM    7  C10 UNL     1      13.964  24.157  27.525  1.00  0.00     0.000 C 
HETATM    8  C11 UNL     1      15.134  23.522  26.851  1.00  0.00     0.000 C 
HETATM    9  C12 UNL     1      15.029  23.514  25.350  1.00  0.00     0.001 C 
HETATM   10  C13 UNL     1      16.265  24.155  24.716  1.00  0.00     0.013 C 
ENDROOT
BRANCH   1  11
HETATM   11  C2  UNL     1      16.033  25.315  22.586  1.00  0.00     0.116 C 
HETATM   12  N1  UNL     1      17.048  25.644  21.944  1.00  0.00    -0.378 N 
HETATM   13  C1  UNL     1      17.444  25.611  20.602  1.00  0.00     0.148 C 
ATOM     14  H1  UNL     1      17.772  26.035  22.547  1.00  0.00     0.160 HD
BRANCH  11  15
HETATM   15  O1  UNL     1      14.935  24.766  21.961  1.00  0.00    -0.344 OA
HETATM   16  C3  UNL     1      13.893  25.463  21.352  1.00  0.00     0.211 C 
ENDBRANCH  11  15
ENDBRANCH   1  11
TORSDOF 2
ENDMDL
MODEL 4
REMARK VINA RESULT: -4.028484118      2.220      3.304
REMARK  2 active torsions:
REMARK  status: ('A' for Active; 'I' for Inactive)
REMARK    1  A    between atoms: C2_4  and  O1_5 
REMARK    2  A    between atoms: C2_4  and  C4_7 
ROOT
HETATM    1  C4  UNL     1      12.469  27.107  19.379  1.00  0.00     0.060 C 
HETATM    2  C5  UNL     1      12.795  27.416  17.935  1.00  0.00     0.013 C 
HETATM    3  C6  UNL     1      14.255  27.337  17.640  1.00  0.00     0.001 C 
HETATM    4  C7  UNL     1      15.114  28.181  18.529  1.00  0.00     0.000 C 
HETATM    5  C8  UNL     1      16.225  27.362  19.198  1.00  0.00     0.000 C 
HETATM    6  C9  UNL     1      16.079  27.431  20.674  1.00  0.00     0.000 C 
HETATM    7  C10 UNL     1      16.004  26.113  21.368  1.00  0.00     0.000 C 
HETATM    8  C11 UNL     1      14.991  25.173  20.806  1.00  0.00     0.000 C 
HETATM    9  C12 UNL     1      13.570  25.602  21.057  1.00  0.00     0.001 C 
HETATM   10  C13 UNL     1      12.785  25.672  19.745  1.00  0.00     0.013 C 
ENDROOT
BRANCH   1  11
HETATM   11  C2  UNL     1      10.976  27.290  19.536  1.00  0.00     0.116 C 
HETATM   12  N1  UNL     1      10.244  26.433  20.065  1.00  0.00    -0.378 N 
HETATM   13  C1  UNL     1       8.878  26.312  20.347  1.00  0.00     0.148 C 
ATOM     14  H1  UNL     1      10.771  25.615  20.369  1.00  0.00     0.160 HD
BRANCH  11  15
HETATM   15  O1  UNL     1      10.463  28.474  19.054  1.00  0.00    -0.344 OA
HETATM   16  C3  UNL     1      10.465  29.705  19.706  1.00  0.00     0.211 C 
ENDBRANCH  11  15
ENDBRANCH   1  11
TORSDOF 2
ENDMDL
MODEL 5
REMARK VINA RESULT: -4.021226811      3.101      5.245
REMARK  2 active torsions:
REMARK  status: ('A' for Active; 'I' for Inactive)
REMARK    1  A    between atoms: C2_4  and  O1_5 
REMARK    2  A    between atoms: C2_4  and  C4_7 
ROOT
HETATM    1  C4  UNL     1      16.470  25.491  24.334  1.00  0.00     0.060 C 
HETATM    2  C5  UNL     1      17.160  26.813  24.584  1.00  0.00     0.013 C 
HETATM    3  C6  UNL     1      17.458  27.559  23.326  1.00  0.00     0.001 C 
HETATM    4  C7  UNL     1      18.240  26.780  22.315  1.00  0.00     0.000 C 
HETATM    5  C8  UNL     1      17.543  26.753  20.949  1.00  0.00     0.000 C 
HETATM    6  C9  UNL     1      17.244  25.350  20.567  1.00  0.00     0.000 C 
HETATM    7  C10 UNL     1      15.818  25.073  20.231  1.00  0.00     0.000 C 
HETATM    8  C11 UNL     1      14.838  25.534  21.257  1.00  0.00     0.000 C 
HETATM    9  C12 UNL     1      14.890  24.742  22.535  1.00  0.00     0.001 C 
HETATM   10  C13 UNL     1      15.089  25.666  23.738  1.00  0.00     0.013 C 
ENDROOT
BRANCH   1  11
HETATM   11  C2  UNL     1      16.294  24.831  25.684  1.00  0.00     0.116 C 
HETATM   12  N1  UNL     1      17.063  25.040  26.641  1.00  0.00    -0.378 N 
HETATM   13  C1  UNL     1      17.162  24.599  27.966  1.00  0.00     0.148 C 
ATOM     14  H1  UNL     1      17.805  25.696  26.400  1.00  0.00     0.160 HD
BRANCH  11  15
HETATM   15  O1  UNL     1      15.223  23.974  25.797  1.00  0.00    -0.344 OA
HETATM   16  C3  UNL     1      14.086  24.166  26.580  1.00  0.00     0.211 C 
ENDBRANCH  11  15
ENDBRANCH   1  11
TORSDOF 2
ENDMDL
