MODEL 1
REMARK VINA RESULT: -3.986297559      0.000      0.000
REMARK  2 active torsions:
REMARK  status: ('A' for Active; 'I' for Inactive)
REMARK    1  A    between atoms: C2_2  and  C3_3 
REMARK    2  A    between atoms: C7_7  and  O1_8 
ROOT
HETATM    1  C3  UNL     1      12.221  28.553  19.744  1.00  0.00     0.021 C 
HETATM    2  C4  UNL     1      12.570  29.211  21.059  1.00  0.00     0.015 C 
HETATM    3  C5  UNL     1      11.596  30.368  21.024  1.00  0.00     0.004 C 
HETATM    4  C6  UNL     1      10.414  29.922  20.262  1.00  0.00     0.038 C 
HETATM    5  C7  UNL     1      10.708  28.511  19.694  1.00  0.00     0.068 C 
HETATM    6  C8  UNL     1       9.878  27.619  20.432  1.00  0.00     0.039 C 
HETATM    7  C9  UNL     1       9.533  26.200  20.105  1.00  0.00     0.014 C 
HETATM    8  C10 UNL     1      10.813  25.298  20.002  1.00  0.00     0.082 C 
HETATM    9  C11 UNL     1      11.881  26.192  19.802  1.00  0.00    -0.157 C 
HETATM   10  C12 UNL     1      12.877  27.172  19.599  1.00  0.00     0.107 C 
HETATM   11  C13 UNL     1      14.034  26.986  20.586  1.00  0.00     0.045 C 
HETATM   12  C14 UNL     1      13.539  27.070  18.273  1.00  0.00     0.082 C 
HETATM   13  N1  UNL     1      14.055  26.966  17.220  1.00  0.00    -0.195 NA
ENDROOT
BRANCH   1  14
HETATM   14  C2  UNL     1      12.602  29.490  18.633  1.00  0.00     0.011 C 
HETATM   15  C1  UNL     1      13.835  30.265  18.781  1.00  0.00     0.006 C 
ENDBRANCH   1  14
BRANCH   5  16
HETATM   16  O1  UNL     1      10.223  28.640  18.361  1.00  0.00    -0.389 OA
ATOM     17  H1  UNL     1      10.033  27.793  17.975  1.00  0.00     0.210 HD
ENDBRANCH   5  16
TORSDOF 2
ENDMDL
MODEL 2
REMARK VINA RESULT: -3.959536467      5.466      7.030
REMARK  2 active torsions:
REMARK  status: ('A' for Active; 'I' for Inactive)
REMARK    1  A    between atoms: C2_2  and  C3_3 
REMARK    2  A    between atoms: C7_7  and  O1_8 
ROOT
HETATM    1  C3  UNL     1      16.208  26.788  24.344  1.00  0.00     0.021 C 
HETATM    2  C4  UNL     1      17.531  27.516  24.405  1.00  0.00     0.015 C 
HETATM    3  C5  UNL     1      17.239  28.466  25.544  1.00  0.00     0.004 C 
HETATM    4  C6  UNL     1      16.276  27.795  26.438  1.00  0.00     0.038 C 
HETATM    5  C7  UNL     1      15.855  26.458  25.779  1.00  0.00     0.068 C 
HETATM    6  C8  UNL     1      16.453  25.434  26.567  1.00  0.00     0.039 C 
HETATM    7  C9  UNL     1      16.137  23.972  26.569  1.00  0.00     0.014 C 
HETATM    8  C10 UNL     1      16.343  23.328  25.153  1.00  0.00     0.082 C 
HETATM    9  C11 UNL     1      16.319  24.405  24.250  1.00  0.00    -0.157 C 
HETATM   10  C12 UNL     1      16.272  25.554  23.430  1.00  0.00     0.107 C 
HETATM   11  C13 UNL     1      17.482  25.604  22.491  1.00  0.00     0.045 C 
HETATM   12  C14 UNL     1      15.115  25.564  22.497  1.00  0.00     0.082 C 
HETATM   13  N1  UNL     1      14.196  25.547  21.762  1.00  0.00    -0.195 NA
ENDROOT
BRANCH   1  14
HETATM   14  C2  UNL     1      15.151  27.766  23.917  1.00  0.00     0.011 C 
HETATM   15  C1  UNL     1      15.506  28.761  22.903  1.00  0.00     0.006 C 
ENDBRANCH   1  14
BRANCH   5  16
HETATM   16  O1  UNL     1      14.446  26.476  25.988  1.00  0.00    -0.389 OA
ATOM     17  H1  UNL     1      14.230  26.446  26.913  1.00  0.00     0.210 HD
ENDBRANCH   5  16
TORSDOF 2
ENDMDL
MODEL 3
REMARK VINA RESULT: -3.929499909      1.818      3.119
REMARK  2 active torsions:
REMARK  status: ('A' for Active; 'I' for Inactive)
REMARK    1  A    between atoms: C2_2  and  C3_3 
REMARK    2  A    between atoms: C7_7  and  O1_8 
ROOT
HETATM    1  C3  UNL     1      13.317  27.643  18.651  1.00  0.00     0.021 C 
HETATM    2  C4  UNL     1      13.289  29.017  19.281  1.00  0.00     0.015 C 
HETATM    3  C5  UNL     1      11.921  28.969  19.922  1.00  0.00     0.004 C 
HETATM    4  C6  UNL     1      11.649  27.561  20.269  1.00  0.00     0.038 C 
HETATM    5  C7  UNL     1      12.807  26.693  19.715  1.00  0.00     0.068 C 
HETATM    6  C8  UNL     1      13.538  26.254  20.855  1.00  0.00     0.039 C 
HETATM    7  C9  UNL     1      14.556  25.160  20.929  1.00  0.00     0.014 C 
HETATM    8  C10 UNL     1      15.764  25.422  19.963  1.00  0.00     0.082 C 
HETATM    9  C11 UNL     1      15.290  26.352  19.020  1.00  0.00    -0.157 C 
HETATM   10  C12 UNL     1      14.713  27.279  18.124  1.00  0.00     0.107 C 
HETATM   11  C13 UNL     1      15.604  28.517  17.972  1.00  0.00     0.045 C 
HETATM   12  C14 UNL     1      14.603  26.763  16.735  1.00  0.00     0.082 C 
HETATM   13  N1  UNL     1      14.534  26.336  15.640  1.00  0.00    -0.195 NA
ENDROOT
BRANCH   1  14
HETATM   14  C2  UNL     1      12.267  27.596  17.578  1.00  0.00     0.011 C 
HETATM   15  C1  UNL     1      12.059  28.798  16.767  1.00  0.00     0.006 C 
ENDBRANCH   1  14
BRANCH   5  16
HETATM   16  O1  UNL     1      12.090  25.603  19.144  1.00  0.00    -0.389 OA
ATOM     17  H1  UNL     1      11.225  25.516  19.526  1.00  0.00     0.210 HD
ENDBRANCH   5  16
TORSDOF 2
ENDMDL
MODEL 4
REMARK VINA RESULT: -3.919682729      6.796      8.416
REMARK  2 active torsions:
REMARK  status: ('A' for Active; 'I' for Inactive)
REMARK    1  A    between atoms: C2_2  and  C3_3 
REMARK    2  A    between atoms: C7_7  and  O1_8 
ROOT
HETATM    1  C3  UNL     1      15.596  25.321  25.840  1.00  0.00     0.021 C 
HETATM    2  C4  UNL     1      16.456  24.258  26.483  1.00  0.00     0.015 C 
HETATM    3  C5  UNL     1      15.941  23.042  25.746  1.00  0.00     0.004 C 
HETATM    4  C6  UNL     1      15.511  23.491  24.408  1.00  0.00     0.038 C 
HETATM    5  C7  UNL     1      15.633  25.035  24.353  1.00  0.00     0.068 C 
HETATM    6  C8  UNL     1      16.727  25.304  23.482  1.00  0.00     0.039 C 
HETATM    7  C9  UNL     1      17.092  26.604  22.838  1.00  0.00     0.014 C 
HETATM    8  C10 UNL     1      17.357  27.727  23.902  1.00  0.00     0.082 C 
HETATM    9  C11 UNL     1      16.731  27.278  25.078  1.00  0.00    -0.157 C 
HETATM   10  C12 UNL     1      16.066  26.739  26.201  1.00  0.00     0.107 C 
HETATM   11  C13 UNL     1      16.983  26.737  27.430  1.00  0.00     0.045 C 
HETATM   12  C14 UNL     1      14.904  27.552  26.643  1.00  0.00     0.082 C 
HETATM   13  N1  UNL     1      13.992  28.216  26.979  1.00  0.00    -0.195 NA
ENDROOT
BRANCH   1  14
HETATM   14  C2  UNL     1      14.168  25.072  26.230  1.00  0.00     0.011 C 
HETATM   15  C1  UNL     1      13.902  24.568  27.579  1.00  0.00     0.006 C 
ENDBRANCH   1  14
BRANCH   5  16
HETATM   16  O1  UNL     1      14.407  25.389  23.721  1.00  0.00    -0.389 OA
ATOM     17  H1  UNL     1      14.262  24.881  22.931  1.00  0.00     0.210 HD
ENDBRANCH   5  16
TORSDOF 2
ENDMDL
MODEL 5
REMARK VINA RESULT: -3.861626244      6.644      8.428
REMARK  2 active torsions:
REMARK  status: ('A' for Active; 'I' for Inactive)
REMARK    1  A    between atoms: C2_2  and  C3_3 
REMARK    2  A    between atoms: C7_7  and  O1_8 
ROOT
HETATM    1  C3  UNL     1      15.728  25.721  26.525  1.00  0.00     0.021 C 
HETATM    2  C4  UNL     1      16.998  25.173  27.134  1.00  0.00     0.015 C 
HETATM    3  C5  UNL     1      16.451  23.905  27.750  1.00  0.00     0.004 C 
HETATM    4  C6  UNL     1      15.318  23.465  26.913  1.00  0.00     0.038 C 
HETATM    5  C7  UNL     1      15.065  24.548  25.833  1.00  0.00     0.068 C 
HETATM    6  C8  UNL     1      15.480  23.967  24.601  1.00  0.00     0.039 C 
HETATM    7  C9  UNL     1      15.183  24.443  23.214  1.00  0.00     0.014 C 
HETATM    8  C10 UNL     1      15.705  25.903  22.974  1.00  0.00     0.082 C 
HETATM    9  C11 UNL     1      15.875  26.452  24.257  1.00  0.00    -0.157 C 
HETATM   10  C12 UNL     1      16.003  26.907  25.588  1.00  0.00     0.107 C 
HETATM   11  C13 UNL     1      17.392  27.509  25.827  1.00  0.00     0.045 C 
HETATM   12  C14 UNL     1      15.084  28.027  25.917  1.00  0.00     0.082 C 
HETATM   13  N1  UNL     1      14.352  28.918  26.153  1.00  0.00    -0.195 NA
ENDROOT
BRANCH   1  14
HETATM   14  C2  UNL     1      14.785  26.075  27.639  1.00  0.00     0.011 C 
HETATM   15  C1  UNL     1      15.350  26.661  28.857  1.00  0.00     0.006 C 
ENDBRANCH   1  14
BRANCH   5  16
HETATM   16  O1  UNL     1      13.645  24.651  25.871  1.00  0.00    -0.389 OA
ATOM     17  H1  UNL     1      13.236  23.802  25.987  1.00  0.00     0.210 HD
ENDBRANCH   5  16
TORSDOF 2
ENDMDL
