MODEL 1
REMARK VINA RESULT: -4.707369185      0.000      0.000
REMARK  2 active torsions:
REMARK  status: ('A' for Active; 'I' for Inactive)
REMARK    1  A    between atoms: C2_2  and  N1_4 
REMARK    2  A    between atoms: N1_4  and  N2_6 
ROOT
HETATM    1  N2  UNL     1      15.464  25.956  24.469  1.00  0.00    -0.308 N 
ATOM      2  H2  UNL     1      16.016  26.583  25.055  1.00  0.00     0.186 HD
HETATM    3  C3  UNL     1      15.791  25.823  23.230  1.00  0.00     0.008 C 
HETATM    4  C4  UNL     1      14.921  24.901  22.513  1.00  0.00     0.054 C 
HETATM    5  C5  UNL     1      14.739  25.187  21.046  1.00  0.00     0.006 C 
HETATM    6  C6  UNL     1      15.978  25.157  20.242  1.00  0.00     0.005 C 
HETATM    7  C7  UNL     1      16.767  26.396  20.116  1.00  0.00    -0.014 C 
HETATM    8  C8  UNL     1      18.141  26.170  20.772  1.00  0.00     0.005 C 
HETATM    9  C9  UNL     1      17.974  25.780  22.217  1.00  0.00     0.011 C 
HETATM   10  C10 UNL     1      16.973  26.663  22.911  1.00  0.00     0.033 C 
HETATM   11  C11 UNL     1      16.586  27.882  22.140  1.00  0.00     0.011 C 
HETATM   12  C12 UNL     1      16.223  27.640  20.704  1.00  0.00     0.005 C 
ENDROOT
BRANCH   1  13
HETATM   13  N1  UNL     1      14.389  25.280  25.044  1.00  0.00    -0.294 N 
ATOM     14  H1  UNL     1      13.454  25.374  24.648  1.00  0.00     0.187 HD
BRANCH  13  15
HETATM   15  C2  UNL     1      14.602  24.462  26.184  1.00  0.00     0.088 C 
HETATM   16  C1  UNL     1      15.665  23.410  26.196  1.00  0.00     0.083 C 
HETATM   17  S1  UNL     1      13.688  24.645  27.527  1.00  0.00    -0.064 SA
ENDBRANCH  13  15
ENDBRANCH   1  13
TORSDOF 2
ENDMDL
MODEL 2
REMARK VINA RESULT: -4.616218984      1.190      2.415
REMARK  2 active torsions:
REMARK  status: ('A' for Active; 'I' for Inactive)
REMARK    1  A    between atoms: C2_2  and  N1_4 
REMARK    2  A    between atoms: N1_4  and  N2_6 
ROOT
HETATM    1  N2  UNL     1      14.884  24.803  22.960  1.00  0.00    -0.308 N 
ATOM      2  H2  UNL     1      14.917  23.835  22.639  1.00  0.00     0.186 HD
HETATM    3  C3  UNL     1      15.171  25.739  22.123  1.00  0.00     0.008 C 
HETATM    4  C4  UNL     1      15.085  27.068  22.713  1.00  0.00     0.054 C 
HETATM    5  C5  UNL     1      16.015  28.099  22.130  1.00  0.00     0.006 C 
HETATM    6  C6  UNL     1      15.829  28.370  20.689  1.00  0.00     0.005 C 
HETATM    7  C7  UNL     1      16.563  27.541  19.715  1.00  0.00    -0.014 C 
HETATM    8  C8  UNL     1      15.542  26.750  18.878  1.00  0.00     0.005 C 
HETATM    9  C9  UNL     1      14.680  25.898  19.772  1.00  0.00     0.011 C 
HETATM   10  C10 UNL     1      15.504  25.166  20.795  1.00  0.00     0.033 C 
HETATM   11  C11 UNL     1      16.976  25.198  20.538  1.00  0.00     0.011 C 
HETATM   12  C12 UNL     1      17.540  26.553  20.226  1.00  0.00     0.005 C 
ENDROOT
BRANCH   1  13
HETATM   13  N1  UNL     1      14.530  25.054  24.284  1.00  0.00    -0.294 N 
ATOM     14  H1  UNL     1      13.910  25.832  24.511  1.00  0.00     0.187 HD
BRANCH  13  15
HETATM   15  C2  UNL     1      15.038  24.223  25.317  1.00  0.00     0.088 C 
HETATM   16  C1  UNL     1      16.267  23.396  25.113  1.00  0.00     0.083 C 
HETATM   17  S1  UNL     1      14.292  24.145  26.769  1.00  0.00    -0.064 SA
ENDBRANCH  13  15
ENDBRANCH   1  13
TORSDOF 2
ENDMDL
MODEL 3
REMARK VINA RESULT: -4.539464956      3.602      4.918
REMARK  2 active torsions:
REMARK  status: ('A' for Active; 'I' for Inactive)
REMARK    1  A    between atoms: C2_2  and  N1_4 
REMARK    2  A    between atoms: N1_4  and  N2_6 
ROOT
HETATM    1  N2  UNL     1      13.197  25.646  19.747  1.00  0.00    -0.308 N 
ATOM      2  H2  UNL     1      13.151  24.634  19.628  1.00  0.00     0.186 HD
HETATM    3  C3  UNL     1      14.192  26.144  20.396  1.00  0.00     0.008 C 
HETATM    4  C4  UNL     1      14.133  27.596  20.491  1.00  0.00     0.054 C 
HETATM    5  C5  UNL     1      14.758  28.192  21.724  1.00  0.00     0.006 C 
HETATM    6  C6  UNL     1      16.200  27.914  21.894  1.00  0.00     0.005 C 
HETATM    7  C7  UNL     1      16.601  26.687  22.606  1.00  0.00    -0.014 C 
HETATM    8  C8  UNL     1      17.362  25.779  21.623  1.00  0.00     0.005 C 
HETATM    9  C9  UNL     1      16.499  25.456  20.432  1.00  0.00     0.011 C 
HETATM   10  C10 UNL     1      15.107  25.068  20.852  1.00  0.00     0.033 C 
HETATM   11  C11 UNL     1      14.956  24.804  22.315  1.00  0.00     0.011 C 
HETATM   12  C12 UNL     1      15.545  25.849  23.216  1.00  0.00     0.005 C 
ENDROOT
BRANCH   1  13
HETATM   13  N1  UNL     1      12.182  26.428  19.201  1.00  0.00    -0.294 N 
ATOM     14  H1  UNL     1      12.373  27.030  18.399  1.00  0.00     0.187 HD
BRANCH  13  15
HETATM   15  C2  UNL     1      10.880  26.385  19.765  1.00  0.00     0.088 C 
HETATM   16  C1  UNL     1      10.197  25.084  20.040  1.00  0.00     0.083 C 
HETATM   17  S1  UNL     1      10.085  27.764  20.137  1.00  0.00    -0.064 SA
ENDBRANCH  13  15
ENDBRANCH   1  13
TORSDOF 2
ENDMDL
MODEL 4
REMARK VINA RESULT: -4.500759311      3.503      4.918
REMARK  2 active torsions:
REMARK  status: ('A' for Active; 'I' for Inactive)
REMARK    1  A    between atoms: C2_2  and  N1_4 
REMARK    2  A    between atoms: N1_4  and  N2_6 
ROOT
HETATM    1  N2  UNL     1      13.405  25.605  19.757  1.00  0.00    -0.308 N 
ATOM      2  H2  UNL     1      13.403  24.595  19.609  1.00  0.00     0.186 HD
HETATM    3  C3  UNL     1      14.346  26.121  20.469  1.00  0.00     0.008 C 
HETATM    4  C4  UNL     1      14.225  27.567  20.599  1.00  0.00     0.054 C 
HETATM    5  C5  UNL     1      14.766  28.151  21.877  1.00  0.00     0.006 C 
HETATM    6  C6  UNL     1      16.206  27.923  22.113  1.00  0.00     0.005 C 
HETATM    7  C7  UNL     1      16.619  26.691  22.812  1.00  0.00    -0.014 C 
HETATM    8  C8  UNL     1      17.463  25.841  21.845  1.00  0.00     0.005 C 
HETATM    9  C9  UNL     1      16.673  25.519  20.604  1.00  0.00     0.011 C 
HETATM   10  C10 UNL     1      15.278  25.068  20.942  1.00  0.00     0.033 C 
HETATM   11  C11 UNL     1      15.065  24.757  22.388  1.00  0.00     0.011 C 
HETATM   12  C12 UNL     1      15.567  25.798  23.345  1.00  0.00     0.005 C 
ENDROOT
BRANCH   1  13
HETATM   13  N1  UNL     1      12.388  26.364  19.181  1.00  0.00    -0.294 N 
ATOM     14  H1  UNL     1      12.588  26.968  18.383  1.00  0.00     0.187 HD
BRANCH  13  15
HETATM   15  C2  UNL     1      11.073  26.294  19.710  1.00  0.00     0.088 C 
HETATM   16  C1  UNL     1      10.255  27.528  19.921  1.00  0.00     0.083 C 
HETATM   17  S1  UNL     1      10.407  24.855  20.105  1.00  0.00    -0.064 SA
ENDBRANCH  13  15
ENDBRANCH   1  13
TORSDOF 2
ENDMDL
MODEL 5
REMARK VINA RESULT: -4.385656086      3.249      4.386
REMARK  2 active torsions:
REMARK  status: ('A' for Active; 'I' for Inactive)
REMARK    1  A    between atoms: C2_2  and  N1_4 
REMARK    2  A    between atoms: N1_4  and  N2_6 
ROOT
HETATM    1  N2  UNL     1      13.405  25.610  21.398  1.00  0.00    -0.308 N 
ATOM      2  H2  UNL     1      12.800  25.793  22.199  1.00  0.00     0.186 HD
HETATM    3  C3  UNL     1      14.682  25.631  21.574  1.00  0.00     0.008 C 
HETATM    4  C4  UNL     1      15.423  25.356  20.350  1.00  0.00     0.054 C 
HETATM    5  C5  UNL     1      16.774  26.012  20.248  1.00  0.00     0.006 C 
HETATM    6  C6  UNL     1      17.737  25.635  21.303  1.00  0.00     0.005 C 
HETATM    7  C7  UNL     1      17.749  26.411  22.557  1.00  0.00    -0.014 C 
HETATM    8  C8  UNL     1      17.344  25.479  23.713  1.00  0.00     0.005 C 
HETATM    9  C9  UNL     1      15.984  24.886  23.456  1.00  0.00     0.011 C 
HETATM   10  C10 UNL     1      15.008  25.932  22.990  1.00  0.00     0.033 C 
HETATM   11  C11 UNL     1      15.486  27.338  23.155  1.00  0.00     0.011 C 
HETATM   12  C12 UNL     1      16.876  27.602  22.655  1.00  0.00     0.005 C 
ENDROOT
BRANCH   1  13
HETATM   13  N1  UNL     1      12.815  25.350  20.163  1.00  0.00    -0.294 N 
ATOM     14  H1  UNL     1      13.353  24.898  19.424  1.00  0.00     0.187 HD
BRANCH  13  15
HETATM   15  C2  UNL     1      11.463  25.718  19.939  1.00  0.00     0.088 C 
HETATM   16  C1  UNL     1      10.360  24.713  20.034  1.00  0.00     0.083 C 
HETATM   17  S1  UNL     1      11.067  27.261  19.570  1.00  0.00    -0.064 SA
ENDBRANCH  13  15
ENDBRANCH   1  13
TORSDOF 2
ENDMDL
