MODEL 1
REMARK VINA RESULT: -4.493406911      0.000      0.000
REMARK  1 active torsions:
REMARK  status: ('A' for Active; 'I' for Inactive)
REMARK    1  A    between atoms: C10_10  and  C11_11 
ROOT
HETATM    1  C11 UNL     1      15.975  24.830  24.952  1.00  0.00     0.097 C 
HETATM    2  C12 UNL     1      16.031  23.353  24.769  1.00  0.00     0.026 C 
HETATM    3  C13 UNL     1      14.760  25.187  25.685  1.00  0.00     0.064 C 
HETATM    4  N1  UNL     1      13.784  25.476  26.269  1.00  0.00    -0.197 NA
ENDROOT
BRANCH   1   5
HETATM    5  C10 UNL     1      15.988  25.616  23.677  1.00  0.00    -0.023 C 
HETATM    6  C9  UNL     1      17.275  25.344  22.894  1.00  0.00     0.016 C 
HETATM    7  C8  UNL     1      17.242  26.072  21.579  1.00  0.00    -0.009 C 
HETATM    8  C2  UNL     1      17.046  27.548  21.710  1.00  0.00    -0.010 C 
HETATM    9  C7  UNL     1      16.030  25.531  20.808  1.00  0.00     0.014 C 
HETATM   10  C1  UNL     1      18.283  28.296  22.115  1.00  0.00     0.011 C 
HETATM   11  C3  UNL     1      15.862  27.816  22.586  1.00  0.00    -0.009 C 
HETATM   12  C4  UNL     1      14.625  27.357  21.813  1.00  0.00     0.014 C 
HETATM   13  C14 UNL     1      15.952  27.110  23.919  1.00  0.00     0.016 C 
HETATM   14  C5  UNL     1      14.767  25.887  21.527  1.00  0.00    -0.043 C 
HETATM   15  C6  UNL     1      13.596  25.436  20.715  1.00  0.00     0.015 C 
HETATM   16  C15 UNL     1      14.772  25.170  22.864  1.00  0.00     0.020 C 
ENDBRANCH   1   5
TORSDOF 1
ENDMDL
MODEL 2
REMARK VINA RESULT: -4.396053260      2.772      4.931
REMARK  1 active torsions:
REMARK  status: ('A' for Active; 'I' for Inactive)
REMARK    1  A    between atoms: C10_10  and  C11_11 
ROOT
HETATM    1  C11 UNL     1      11.457  26.796  19.488  1.00  0.00     0.097 C 
HETATM    2  C12 UNL     1      10.707  27.848  20.229  1.00  0.00     0.026 C 
HETATM    3  C13 UNL     1      10.910  25.479  19.820  1.00  0.00     0.064 C 
HETATM    4  N1  UNL     1      10.476  24.423  20.088  1.00  0.00    -0.197 NA
ENDROOT
BRANCH   1   5
HETATM    5  C10 UNL     1      12.927  26.765  19.769  1.00  0.00    -0.023 C 
HETATM    6  C9  UNL     1      13.409  28.137  20.247  1.00  0.00     0.016 C 
HETATM    7  C8  UNL     1      14.868  28.076  20.606  1.00  0.00    -0.009 C 
HETATM    8  C2  UNL     1      15.745  27.606  19.489  1.00  0.00    -0.010 C 
HETATM    9  C7  UNL     1      14.999  27.045  21.735  1.00  0.00     0.014 C 
HETATM   10  C1  UNL     1      16.024  28.652  18.450  1.00  0.00     0.011 C 
HETATM   11  C3  UNL     1      15.198  26.328  18.932  1.00  0.00    -0.009 C 
HETATM   12  C4  UNL     1      15.384  25.259  20.009  1.00  0.00     0.014 C 
HETATM   13  C14 UNL     1      13.744  26.441  18.536  1.00  0.00     0.016 C 
HETATM   14  C5  UNL     1      14.623  25.686  21.234  1.00  0.00    -0.043 C 
HETATM   15  C6  UNL     1      14.847  24.683  22.319  1.00  0.00     0.015 C 
HETATM   16  C15 UNL     1      13.153  25.717  20.859  1.00  0.00     0.020 C 
ENDBRANCH   1   5
TORSDOF 1
ENDMDL
MODEL 3
REMARK VINA RESULT: -4.346118405      1.915      3.969
REMARK  1 active torsions:
REMARK  status: ('A' for Active; 'I' for Inactive)
REMARK    1  A    between atoms: C10_10  and  C11_11 
ROOT
HETATM    1  C11 UNL     1      14.498  25.547  19.560  1.00  0.00     0.097 C 
HETATM    2  C12 UNL     1      14.796  26.271  18.293  1.00  0.00     0.026 C 
HETATM    3  C13 UNL     1      13.081  25.704  19.891  1.00  0.00     0.064 C 
HETATM    4  N1  UNL     1      11.946  25.832  20.161  1.00  0.00    -0.197 NA
ENDROOT
BRANCH   1   5
HETATM    5  C10 UNL     1      15.297  26.003  20.741  1.00  0.00    -0.023 C 
HETATM    6  C9  UNL     1      14.979  27.465  21.068  1.00  0.00     0.016 C 
HETATM    7  C8  UNL     1      15.723  27.890  22.304  1.00  0.00    -0.009 C 
HETATM    8  C2  UNL     1      17.205  27.716  22.207  1.00  0.00    -0.010 C 
HETATM    9  C7  UNL     1      15.244  26.977  23.440  1.00  0.00     0.014 C 
HETATM   10  C1  UNL     1      17.894  28.780  21.403  1.00  0.00     0.011 C 
HETATM   11  C3  UNL     1      17.513  26.322  21.758  1.00  0.00    -0.009 C 
HETATM   12  C4  UNL     1      17.116  25.389  22.903  1.00  0.00     0.014 C 
HETATM   13  C14 UNL     1      16.788  25.946  20.486  1.00  0.00     0.016 C 
HETATM   14  C5  UNL     1      15.646  25.562  23.164  1.00  0.00    -0.043 C 
HETATM   15  C6  UNL     1      15.254  24.704  24.324  1.00  0.00     0.015 C 
HETATM   16  C15 UNL     1      14.913  25.104  21.916  1.00  0.00     0.020 C 
ENDBRANCH   1   5
TORSDOF 1
ENDMDL
MODEL 4
REMARK VINA RESULT: -4.313345372      1.194      1.345
REMARK  1 active torsions:
REMARK  status: ('A' for Active; 'I' for Inactive)
REMARK    1  A    between atoms: C10_10  and  C11_11 
ROOT
HETATM    1  C11 UNL     1      16.134  25.556  24.063  1.00  0.00     0.097 C 
HETATM    2  C12 UNL     1      15.751  24.132  24.275  1.00  0.00     0.026 C 
HETATM    3  C13 UNL     1      15.356  26.411  24.962  1.00  0.00     0.064 C 
HETATM    4  N1  UNL     1      14.732  27.098  25.678  1.00  0.00    -0.197 NA
ENDROOT
BRANCH   1   5
HETATM    5  C10 UNL     1      15.929  26.055  22.666  1.00  0.00    -0.023 C 
HETATM    6  C9  UNL     1      16.957  25.430  21.720  1.00  0.00     0.016 C 
HETATM    7  C8  UNL     1      16.693  25.872  20.307  1.00  0.00    -0.009 C 
HETATM    8  C2  UNL     1      16.694  27.356  20.128  1.00  0.00    -0.010 C 
HETATM    9  C7  UNL     1      15.282  25.384  19.952  1.00  0.00     0.014 C 
HETATM   10  C1  UNL     1      18.065  27.965  20.082  1.00  0.00     0.011 C 
HETATM   11  C3  UNL     1      15.787  27.979  21.142  1.00  0.00    -0.009 C 
HETATM   12  C4  UNL     1      14.360  27.573  20.771  1.00  0.00     0.014 C 
HETATM   13  C14 UNL     1      16.113  27.553  22.555  1.00  0.00     0.016 C 
HETATM   14  C5  UNL     1      14.271  26.073  20.812  1.00  0.00    -0.043 C 
HETATM   15  C6  UNL     1      12.899  25.656  20.389  1.00  0.00     0.015 C 
HETATM   16  C15 UNL     1      14.515  25.650  22.250  1.00  0.00     0.020 C 
ENDBRANCH   1   5
TORSDOF 1
ENDMDL
MODEL 5
REMARK VINA RESULT: -4.300279246      3.016      4.965
REMARK  1 active torsions:
REMARK  status: ('A' for Active; 'I' for Inactive)
REMARK    1  A    between atoms: C10_10  and  C11_11 
ROOT
HETATM    1  C11 UNL     1      11.669  26.542  20.177  1.00  0.00     0.097 C 
HETATM    2  C12 UNL     1      11.138  25.188  19.853  1.00  0.00     0.026 C 
HETATM    3  C13 UNL     1      11.152  27.514  19.211  1.00  0.00     0.064 C 
HETATM    4  N1  UNL     1      10.742  28.293  18.437  1.00  0.00    -0.197 NA
ENDROOT
BRANCH   1   5
HETATM    5  C10 UNL     1      13.163  26.642  20.171  1.00  0.00    -0.023 C 
HETATM    6  C9  UNL     1      13.602  28.086  20.429  1.00  0.00     0.016 C 
HETATM    7  C8  UNL     1      15.102  28.164  20.504  1.00  0.00    -0.009 C 
HETATM    8  C2  UNL     1      15.795  27.647  19.284  1.00  0.00    -0.010 C 
HETATM    9  C7  UNL     1      15.530  27.263  21.671  1.00  0.00     0.014 C 
HETATM   10  C1  UNL     1      15.784  28.600  18.125  1.00  0.00     0.011 C 
HETATM   11  C3  UNL     1      15.270  26.284  18.954  1.00  0.00    -0.009 C 
HETATM   12  C4  UNL     1      15.745  25.345  20.063  1.00  0.00     0.014 C 
HETATM   13  C14 UNL     1      13.763  26.254  18.837  1.00  0.00     0.016 C 
HETATM   14  C5  UNL     1      15.189  25.838  21.370  1.00  0.00    -0.043 C 
HETATM   15  C6  UNL     1      15.697  24.967  22.473  1.00  0.00     0.015 C 
HETATM   16  C15 UNL     1      13.678  25.728  21.283  1.00  0.00     0.020 C 
ENDBRANCH   1   5
TORSDOF 1
ENDMDL
