MODEL 1
REMARK VINA RESULT: -9.173036426      0.000      0.000
REMARK  2 active torsions:
REMARK  status: ('A' for Active; 'I' for Inactive)
REMARK    1  A    between atoms: C3_3  and  C4_4 
REMARK    2  A    between atoms: C5_7  and  C6_8 
ROOT
HETATM    1  C1  UNL     1     -38.998   7.493 -17.441  1.00  0.00     0.030 C 
HETATM    2  C2  UNL     1     -40.230   7.101 -17.055  1.00  0.00     0.035 A 
HETATM    3  C3  UNL     1     -40.488   5.794 -16.935  1.00  0.00     0.074 A 
HETATM    4  N3  UNL     1     -41.851   5.499 -16.971  1.00  0.00    -0.339 N 
ATOM      5  H3  UNL     1     -42.140   4.525 -16.895  1.00  0.00     0.167 HD
HETATM    6  C13 UNL     1     -42.781   6.420 -17.098  1.00  0.00     0.120 A 
HETATM    7  C14 UNL     1     -42.501   7.757 -17.206  1.00  0.00     0.059 A 
HETATM    8  C15 UNL     1     -41.171   8.123 -17.185  1.00  0.00     0.197 A 
HETATM    9  O1  UNL     1     -40.833   9.314 -17.279  1.00  0.00    -0.286 OA
HETATM   10  C16 UNL     1     -43.570   8.757 -17.344  1.00  0.00     0.021 A 
HETATM   11  C17 UNL     1     -44.826   8.360 -17.362  1.00  0.00     0.018 A 
HETATM   12  C18 UNL     1     -45.106   6.936 -17.245  1.00  0.00     0.090 A 
HETATM   13  N4  UNL     1     -44.168   6.062 -17.126  1.00  0.00    -0.351 N 
ATOM     14  H4  UNL     1     -44.422   5.077 -17.047  1.00  0.00     0.166 HD
ENDROOT
BRANCH   3  15
HETATM   15  C4  UNL     1     -39.682   4.853 -16.438  1.00  0.00     0.066 A 
HETATM   16  N1  UNL     1     -38.463   5.201 -15.897  1.00  0.00    -0.352 N 
HETATM   17  C5  UNL     1     -37.699   4.168 -15.633  1.00  0.00     0.057 A 
ATOM     18  H1  UNL     1     -38.183   6.166 -15.719  1.00  0.00     0.166 HD
HETATM   19  C10 UNL     1     -38.379   3.046 -15.991  1.00  0.00     0.040 A 
HETATM   20  C11 UNL     1     -39.626   3.491 -16.501  1.00  0.00    -0.031 A 
HETATM   21  C12 UNL     1     -40.508   2.472 -17.115  1.00  0.00     0.050 C 
BRANCH  17  22
HETATM   22  C6  UNL     1     -36.457   4.190 -15.099  1.00  0.00     0.046 C 
HETATM   23  C7  UNL     1     -35.304   4.770 -15.857  1.00  0.00     0.140 C 
HETATM   24  S1  UNL     1     -34.046   3.577 -15.210  1.00  0.00    -0.111 SA
HETATM   25  C8  UNL     1     -34.916   3.317 -13.647  1.00  0.00     0.043 C 
HETATM   26  C9  UNL     1     -34.273   2.751 -12.406  1.00  0.00     0.076 C 
HETATM   27  N2  UNL     1     -36.096   3.695 -13.838  1.00  0.00    -0.355 N 
ATOM     28  H2  UNL     1     -36.783   3.644 -13.086  1.00  0.00     0.166 HD
ENDBRANCH  17  22
ENDBRANCH   3  15
TORSDOF 2
ENDMDL
MODEL 2
REMARK VINA RESULT: -8.807412411      3.830      8.382
REMARK  2 active torsions:
REMARK  status: ('A' for Active; 'I' for Inactive)
REMARK    1  A    between atoms: C3_3  and  C4_4 
REMARK    2  A    between atoms: C5_7  and  C6_8 
ROOT
HETATM    1  C1  UNL     1     -42.792   2.931 -16.269  1.00  0.00     0.030 C 
HETATM    2  C2  UNL     1     -41.742   3.720 -15.959  1.00  0.00     0.035 A 
HETATM    3  C3  UNL     1     -41.790   5.019 -16.275  1.00  0.00     0.074 A 
HETATM    4  N3  UNL     1     -40.531   5.618 -16.319  1.00  0.00    -0.339 N 
ATOM      5  H3  UNL     1     -40.471   6.607 -16.560  1.00  0.00     0.167 HD
HETATM    6  C13 UNL     1     -39.417   4.968 -16.064  1.00  0.00     0.120 A 
HETATM    7  C14 UNL     1     -39.386   3.640 -15.729  1.00  0.00     0.059 A 
HETATM    8  C15 UNL     1     -40.595   2.978 -15.672  1.00  0.00     0.197 A 
HETATM    9  O1  UNL     1     -40.653   1.774 -15.377  1.00  0.00    -0.286 OA
HETATM   10  C16 UNL     1     -38.120   2.948 -15.447  1.00  0.00     0.021 A 
HETATM   11  C17 UNL     1     -36.989   3.620 -15.517  1.00  0.00     0.018 A 
HETATM   12  C18 UNL     1     -37.039   5.032 -15.874  1.00  0.00     0.090 A 
HETATM   13  N4  UNL     1     -38.150   5.635 -16.121  1.00  0.00    -0.351 N 
ATOM     14  H4  UNL     1     -38.127   6.625 -16.366  1.00  0.00     0.166 HD
ENDROOT
BRANCH   3  15
HETATM   15  C4  UNL     1     -42.842   5.836 -16.181  1.00  0.00     0.066 A 
HETATM   16  N1  UNL     1     -43.332   6.466 -17.305  1.00  0.00    -0.352 N 
HETATM   17  C5  UNL     1     -44.230   7.383 -17.035  1.00  0.00     0.057 A 
ATOM     18  H1  UNL     1     -43.026   6.241 -18.252  1.00  0.00     0.166 HD
HETATM   19  C10 UNL     1     -44.394   7.419 -15.686  1.00  0.00     0.040 A 
HETATM   20  C11 UNL     1     -43.511   6.442 -15.158  1.00  0.00    -0.031 A 
HETATM   21  C12 UNL     1     -43.372   6.381 -13.686  1.00  0.00     0.050 C 
BRANCH  17  22
HETATM   22  C6  UNL     1     -44.888   8.162 -17.922  1.00  0.00     0.046 C 
HETATM   23  C7  UNL     1     -44.761   9.653 -17.880  1.00  0.00     0.140 C 
HETATM   24  S1  UNL     1     -46.502   9.996 -18.407  1.00  0.00    -0.111 SA
HETATM   25  C8  UNL     1     -46.645   8.467 -19.361  1.00  0.00     0.043 C 
HETATM   26  C9  UNL     1     -47.681   8.232 -20.430  1.00  0.00     0.076 C 
HETATM   27  N2  UNL     1     -45.738   7.710 -18.942  1.00  0.00    -0.355 N 
ATOM     28  H2  UNL     1     -45.619   6.777 -19.338  1.00  0.00     0.166 HD
ENDBRANCH  17  22
ENDBRANCH   3  15
TORSDOF 2
ENDMDL
MODEL 3
REMARK VINA RESULT: -8.799022277      4.449      9.439
REMARK  2 active torsions:
REMARK  status: ('A' for Active; 'I' for Inactive)
REMARK    1  A    between atoms: C3_3  and  C4_4 
REMARK    2  A    between atoms: C5_7  and  C6_8 
ROOT
HETATM    1  C1  UNL     1     -34.358   1.919 -12.357  1.00  0.00     0.030 C 
HETATM    2  C2  UNL     1     -34.184   1.292 -13.539  1.00  0.00     0.035 A 
HETATM    3  C3  UNL     1     -35.125   1.410 -14.482  1.00  0.00     0.074 A 
HETATM    4  N3  UNL     1     -35.063   0.403 -15.446  1.00  0.00    -0.339 N 
ATOM      5  H3  UNL     1     -35.749   0.409 -16.200  1.00  0.00     0.167 HD
HETATM    6  C13 UNL     1     -34.161  -0.553 -15.427  1.00  0.00     0.120 A 
HETATM    7  C14 UNL     1     -33.195  -0.652 -14.462  1.00  0.00     0.059 A 
HETATM    8  C15 UNL     1     -33.198   0.306 -13.470  1.00  0.00     0.197 A 
HETATM    9  O1  UNL     1     -32.357   0.287 -12.557  1.00  0.00    -0.286 OA
HETATM   10  C16 UNL     1     -32.201  -1.736 -14.477  1.00  0.00     0.021 A 
HETATM   11  C17 UNL     1     -32.239  -2.631 -15.443  1.00  0.00     0.018 A 
HETATM   12  C18 UNL     1     -33.272  -2.511 -16.462  1.00  0.00     0.090 A 
HETATM   13  N4  UNL     1     -34.142  -1.561 -16.446  1.00  0.00    -0.351 N 
ATOM     14  H4  UNL     1     -34.843  -1.526 -17.185  1.00  0.00     0.166 HD
ENDROOT
BRANCH   3  15
HETATM   15  C4  UNL     1     -35.818   2.506 -14.800  1.00  0.00     0.066 A 
HETATM   16  N1  UNL     1     -37.143   2.406 -15.165  1.00  0.00    -0.352 N 
HETATM   17  C5  UNL     1     -37.637   3.524 -15.640  1.00  0.00     0.057 A 
ATOM     18  H1  UNL     1     -37.686   1.546 -15.075  1.00  0.00     0.166 HD
HETATM   19  C10 UNL     1     -36.647   4.456 -15.619  1.00  0.00     0.040 A 
HETATM   20  C11 UNL     1     -35.504   3.801 -15.092  1.00  0.00    -0.031 A 
HETATM   21  C12 UNL     1     -34.228   4.551 -15.108  1.00  0.00     0.050 C 
BRANCH  17  22
HETATM   22  C6  UNL     1     -38.899   3.736 -16.075  1.00  0.00     0.046 C 
HETATM   23  C7  UNL     1     -39.305   5.060 -16.644  1.00  0.00     0.140 C 
HETATM   24  S1  UNL     1     -41.031   5.020 -15.977  1.00  0.00    -0.111 SA
HETATM   25  C8  UNL     1     -41.128   3.215 -15.998  1.00  0.00     0.043 C 
HETATM   26  C9  UNL     1     -42.420   2.438 -15.958  1.00  0.00     0.076 C 
HETATM   27  N2  UNL     1     -39.945   2.803 -16.049  1.00  0.00    -0.355 N 
ATOM     28  H2  UNL     1     -39.746   1.803 -16.071  1.00  0.00     0.166 HD
ENDBRANCH  17  22
ENDBRANCH   3  15
TORSDOF 2
ENDMDL
MODEL 4
REMARK VINA RESULT: -8.794034411      4.375      7.914
REMARK  2 active torsions:
REMARK  status: ('A' for Active; 'I' for Inactive)
REMARK    1  A    between atoms: C3_3  and  C4_4 
REMARK    2  A    between atoms: C5_7  and  C6_8 
ROOT
HETATM    1  C1  UNL     1     -43.504   7.187 -14.473  1.00  0.00     0.030 C 
HETATM    2  C2  UNL     1     -42.676   6.404 -15.197  1.00  0.00     0.035 A 
HETATM    3  C3  UNL     1     -43.079   5.176 -15.542  1.00  0.00     0.074 A 
HETATM    4  N3  UNL     1     -42.024   4.329 -15.880  1.00  0.00    -0.339 N 
ATOM      5  H3  UNL     1     -42.238   3.369 -16.149  1.00  0.00     0.167 HD
HETATM    6  C13 UNL     1     -40.766   4.710 -15.868  1.00  0.00     0.120 A 
HETATM    7  C14 UNL     1     -40.370   5.975 -15.524  1.00  0.00     0.059 A 
HETATM    8  C15 UNL     1     -41.360   6.868 -15.171  1.00  0.00     0.197 A 
HETATM    9  O1  UNL     1     -41.085   8.034 -14.846  1.00  0.00    -0.286 OA
HETATM   10  C16 UNL     1     -38.952   6.363 -15.526  1.00  0.00     0.021 A 
HETATM   11  C17 UNL     1     -38.040   5.476 -15.867  1.00  0.00     0.018 A 
HETATM   12  C18 UNL     1     -38.478   4.135 -16.231  1.00  0.00     0.090 A 
HETATM   13  N4  UNL     1     -39.721   3.797 -16.228  1.00  0.00    -0.351 N 
ATOM     14  H4  UNL     1     -39.970   2.844 -16.491  1.00  0.00     0.166 HD
ENDROOT
BRANCH   3  15
HETATM   15  C4  UNL     1     -44.298   4.809 -15.943  1.00  0.00     0.066 A 
HETATM   16  N1  UNL     1     -44.670   3.482 -15.903  1.00  0.00    -0.352 N 
HETATM   17  C5  UNL     1     -45.809   3.244 -16.509  1.00  0.00     0.057 A 
ATOM     18  H1  UNL     1     -44.114   2.758 -15.448  1.00  0.00     0.166 HD
HETATM   19  C10 UNL     1     -46.273   4.424 -16.999  1.00  0.00     0.040 A 
HETATM   20  C11 UNL     1     -45.310   5.403 -16.640  1.00  0.00    -0.031 A 
HETATM   21  C12 UNL     1     -45.492   6.764 -17.192  1.00  0.00     0.050 C 
BRANCH  17  22
HETATM   22  C6  UNL     1     -46.430   2.050 -16.633  1.00  0.00     0.046 C 
HETATM   23  C7  UNL     1     -46.311   1.007 -15.566  1.00  0.00     0.140 C 
HETATM   24  S1  UNL     1     -46.331  -0.437 -16.724  1.00  0.00    -0.111 SA
HETATM   25  C8  UNL     1     -47.324   0.418 -17.969  1.00  0.00     0.043 C 
HETATM   26  C9  UNL     1     -48.096  -0.281 -19.060  1.00  0.00     0.076 C 
HETATM   27  N2  UNL     1     -47.219   1.642 -17.718  1.00  0.00    -0.355 N 
ATOM     28  H2  UNL     1     -47.700   2.332 -18.295  1.00  0.00     0.166 HD
ENDBRANCH  17  22
ENDBRANCH   3  15
TORSDOF 2
ENDMDL
MODEL 5
REMARK VINA RESULT: -8.739280482      4.532      8.790
REMARK  2 active torsions:
REMARK  status: ('A' for Active; 'I' for Inactive)
REMARK    1  A    between atoms: C3_3  and  C4_4 
REMARK    2  A    between atoms: C5_7  and  C6_8 
ROOT
HETATM    1  C1  UNL     1     -35.126   1.505 -13.355  1.00  0.00     0.030 C 
HETATM    2  C2  UNL     1     -35.007   1.227 -14.671  1.00  0.00     0.035 A 
HETATM    3  C3  UNL     1     -35.928   1.695 -15.521  1.00  0.00     0.074 A 
HETATM    4  N3  UNL     1     -35.957   1.004 -16.731  1.00  0.00    -0.339 N 
ATOM      5  H3  UNL     1     -36.636   1.288 -17.437  1.00  0.00     0.167 HD
HETATM    6  C13 UNL     1     -35.151   0.002 -17.005  1.00  0.00     0.120 A 
HETATM    7  C14 UNL     1     -34.204  -0.457 -16.129  1.00  0.00     0.059 A 
HETATM    8  C15 UNL     1     -34.120   0.175 -14.906  1.00  0.00     0.197 A 
HETATM    9  O1  UNL     1     -33.289  -0.181 -14.056  1.00  0.00    -0.286 OA
HETATM   10  C16 UNL     1     -33.318  -1.579 -16.474  1.00  0.00     0.021 A 
HETATM   11  C17 UNL     1     -33.435  -2.155 -17.653  1.00  0.00     0.018 A 
HETATM   12  C18 UNL     1     -34.448  -1.654 -18.573  1.00  0.00     0.090 A 
HETATM   13  N4  UNL     1     -35.223  -0.672 -18.268  1.00  0.00    -0.351 N 
ATOM     14  H4  UNL     1     -35.914  -0.362 -18.951  1.00  0.00     0.166 HD
ENDROOT
BRANCH   3  15
HETATM   15  C4  UNL     1     -36.511   2.896 -15.499  1.00  0.00     0.066 A 
HETATM   16  N1  UNL     1     -37.878   3.004 -15.639  1.00  0.00    -0.352 N 
HETATM   17  C5  UNL     1     -38.287   4.240 -15.800  1.00  0.00     0.057 A 
ATOM     18  H1  UNL     1     -38.509   2.202 -15.620  1.00  0.00     0.166 HD
HETATM   19  C10 UNL     1     -37.192   5.046 -15.775  1.00  0.00     0.040 A 
HETATM   20  C11 UNL     1     -36.078   4.187 -15.589  1.00  0.00    -0.031 A 
HETATM   21  C12 UNL     1     -34.732   4.795 -15.685  1.00  0.00     0.050 C 
BRANCH  17  22
HETATM   22  C6  UNL     1     -39.562   4.661 -15.959  1.00  0.00     0.046 C 
HETATM   23  C7  UNL     1     -40.414   4.130 -17.069  1.00  0.00     0.140 C 
HETATM   24  S1  UNL     1     -41.331   5.710 -17.363  1.00  0.00    -0.111 SA
HETATM   25  C8  UNL     1     -41.164   6.269 -15.652  1.00  0.00     0.043 C 
HETATM   26  C9  UNL     1     -42.029   7.332 -15.022  1.00  0.00     0.076 C 
HETATM   27  N2  UNL     1     -40.223   5.604 -15.159  1.00  0.00    -0.355 N 
ATOM     28  H2  UNL     1     -39.942   5.746 -14.189  1.00  0.00     0.166 HD
ENDBRANCH  17  22
ENDBRANCH   3  15
TORSDOF 2
ENDMDL
