MODEL 1
REMARK VINA RESULT: -6.187881478      0.000      0.000
REMARK  0 active torsions:
REMARK  status: ('A' for Active; 'I' for Inactive)
ROOT
HETATM    1  C1  UNL     1     -46.668   5.287 -15.781  1.00  0.00     0.272 C 
HETATM    2  N1  UNL     1     -45.462   5.634 -16.514  1.00  0.00    -0.075 N 
HETATM    3  C2  UNL     1     -45.890   6.267 -17.746  1.00  0.00     0.272 C 
HETATM    4  C3  UNL     1     -44.709   4.450 -16.889  1.00  0.00     0.236 C 
HETATM    5  C4  UNL     1     -44.836   3.345 -15.879  1.00  0.00     0.029 C 
HETATM    6  C5  UNL     1     -43.478   2.801 -15.464  1.00  0.00     0.017 C 
HETATM    7  C6  UNL     1     -43.106   1.626 -16.335  1.00  0.00     0.140 C 
HETATM    8  S1  UNL     1     -41.396   1.226 -16.231  1.00  0.00     0.144 S 
HETATM    9  O1  UNL     1     -41.272  -0.268 -16.473  1.00  0.00    -0.228 OA
HETATM   10  O2  UNL     1     -40.935   1.468 -14.835  1.00  0.00    -0.228 OA
HETATM   11  C7  UNL     1     -40.413   2.033 -17.440  1.00  0.00     0.140 C 
HETATM   12  C8  UNL     1     -40.237   3.506 -17.203  1.00  0.00     0.015 C 
HETATM   13  C9  UNL     1     -39.652   3.842 -15.875  1.00  0.00     0.002 C 
HETATM   14  C10 UNL     1     -39.089   5.249 -15.936  1.00  0.00     0.020 C 
HETATM   15  C11 UNL     1     -40.245   6.244 -15.755  1.00  0.00     0.124 C 
HETATM   16  N2  UNL     1     -39.787   7.600 -16.002  1.00  0.00    -0.343 N 
ATOM     17  H2  UNL     1     -38.901   7.891 -15.588  1.00  0.00     0.164 HD
HETATM   18  C12 UNL     1     -40.500   8.542 -16.787  1.00  0.00     0.316 C 
HETATM   19  O3  UNL     1     -39.824   9.389 -17.429  1.00  0.00    -0.247 OA
HETATM   20  N3  UNL     1     -41.910   8.626 -16.921  1.00  0.00    -0.343 N 
ATOM     21  H3  UNL     1     -42.274   8.968 -17.810  1.00  0.00     0.164 HD
HETATM   22  C13 UNL     1     -42.861   8.273 -15.916  1.00  0.00     0.126 C 
HETATM   23  C14 UNL     1     -44.104   7.672 -16.538  1.00  0.00     0.048 C 
HETATM   24  C15 UNL     1     -44.658   6.536 -15.739  1.00  0.00     0.238 C 
ENDROOT
TORSDOF 0
ENDMDL
MODEL 2
REMARK VINA RESULT: -5.781947240      8.560     11.012
REMARK  0 active torsions:
REMARK  status: ('A' for Active; 'I' for Inactive)
ROOT
HETATM    1  C1  UNL     1     -50.657  -3.623 -21.950  1.00  0.00     0.272 C 
HETATM    2  N1  UNL     1     -49.501  -3.954 -21.134  1.00  0.00    -0.075 N 
HETATM    3  C2  UNL     1     -48.966  -5.198 -21.654  1.00  0.00     0.272 C 
HETATM    4  C3  UNL     1     -49.879  -4.203 -19.754  1.00  0.00     0.236 C 
HETATM    5  C4  UNL     1     -51.051  -3.369 -19.320  1.00  0.00     0.029 C 
HETATM    6  C5  UNL     1     -50.771  -2.637 -18.017  1.00  0.00     0.017 C 
HETATM    7  C6  UNL     1     -51.245  -3.466 -16.849  1.00  0.00     0.140 C 
HETATM    8  S1  UNL     1     -50.571  -2.921 -15.319  1.00  0.00     0.144 S 
HETATM    9  O1  UNL     1     -51.591  -3.246 -14.241  1.00  0.00    -0.228 OA
HETATM   10  O2  UNL     1     -50.453  -1.435 -15.353  1.00  0.00    -0.228 OA
HETATM   11  C7  UNL     1     -49.076  -3.729 -14.882  1.00  0.00     0.140 C 
HETATM   12  C8  UNL     1     -47.896  -3.326 -15.718  1.00  0.00     0.015 C 
HETATM   13  C9  UNL     1     -47.614  -1.863 -15.708  1.00  0.00     0.002 C 
HETATM   14  C10 UNL     1     -46.184  -1.641 -16.160  1.00  0.00     0.020 C 
HETATM   15  C11 UNL     1     -46.142  -1.708 -17.694  1.00  0.00     0.124 C 
HETATM   16  N2  UNL     1     -44.767  -1.698 -18.162  1.00  0.00    -0.343 N 
ATOM     17  H2  UNL     1     -44.121  -1.028 -17.744  1.00  0.00     0.164 HD
HETATM   18  C12 UNL     1     -44.271  -2.567 -19.167  1.00  0.00     0.316 C 
HETATM   19  O3  UNL     1     -43.064  -2.918 -19.083  1.00  0.00    -0.247 OA
HETATM   20  N3  UNL     1     -45.003  -3.085 -20.266  1.00  0.00    -0.343 N 
ATOM     21  H3  UNL     1     -44.739  -4.008 -20.610  1.00  0.00     0.164 HD
HETATM   22  C13 UNL     1     -46.081  -2.423 -20.930  1.00  0.00     0.126 C 
HETATM   23  C14 UNL     1     -47.125  -3.419 -21.389  1.00  0.00     0.048 C 
HETATM   24  C15 UNL     1     -48.521  -2.909 -21.224  1.00  0.00     0.238 C 
ENDROOT
TORSDOF 0
ENDMDL
MODEL 3
REMARK VINA RESULT: -5.769334510      2.044      4.815
REMARK  0 active torsions:
REMARK  status: ('A' for Active; 'I' for Inactive)
ROOT
HETATM    1  C1  UNL     1     -38.962   7.549 -17.484  1.00  0.00     0.272 C 
HETATM    2  N1  UNL     1     -40.188   7.468 -16.708  1.00  0.00    -0.075 N 
HETATM    3  C2  UNL     1     -40.085   8.467 -15.662  1.00  0.00     0.272 C 
HETATM    4  C3  UNL     1     -40.315   6.180 -16.049  1.00  0.00     0.236 C 
HETATM    5  C4  UNL     1     -39.707   5.063 -16.848  1.00  0.00     0.029 C 
HETATM    6  C5  UNL     1     -40.671   3.899 -17.016  1.00  0.00     0.017 C 
HETATM    7  C6  UNL     1     -40.460   2.892 -15.912  1.00  0.00     0.140 C 
HETATM    8  S1  UNL     1     -41.800   1.763 -15.767  1.00  0.00     0.144 S 
HETATM    9  O1  UNL     1     -41.227   0.456 -15.245  1.00  0.00    -0.228 OA
HETATM   10  O2  UNL     1     -42.332   1.477 -17.130  1.00  0.00    -0.228 OA
HETATM   11  C7  UNL     1     -43.034   2.281 -14.632  1.00  0.00     0.140 C 
HETATM   12  C8  UNL     1     -43.863   3.436 -15.115  1.00  0.00     0.015 C 
HETATM   13  C9  UNL     1     -44.548   3.192 -16.415  1.00  0.00     0.002 C 
HETATM   14  C10 UNL     1     -45.689   4.181 -16.555  1.00  0.00     0.020 C 
HETATM   15  C11 UNL     1     -45.115   5.523 -17.031  1.00  0.00     0.124 C 
HETATM   16  N2  UNL     1     -46.139   6.553 -16.990  1.00  0.00    -0.343 N 
ATOM     17  H2  UNL     1     -47.064   6.327 -17.358  1.00  0.00     0.164 HD
HETATM   18  C12 UNL     1     -45.927   7.854 -16.467  1.00  0.00     0.316 C 
HETATM   19  O3  UNL     1     -46.910   8.426 -15.925  1.00  0.00    -0.247 OA
HETATM   20  N3  UNL     1     -44.710   8.582 -16.494  1.00  0.00    -0.343 N 
ATOM     21  H3  UNL     1     -44.534   9.227 -15.724  1.00  0.00     0.164 HD
HETATM   22  C13 UNL     1     -43.710   8.487 -17.510  1.00  0.00     0.126 C 
HETATM   23  C14 UNL     1     -42.325   8.646 -16.919  1.00  0.00     0.048 C 
HETATM   24  C15 UNL     1     -41.320   7.735 -17.549  1.00  0.00     0.238 C 
ENDROOT
TORSDOF 0
ENDMDL
MODEL 4
REMARK VINA RESULT: -5.759863104      5.140      7.705
REMARK  0 active torsions:
REMARK  status: ('A' for Active; 'I' for Inactive)
ROOT
HETATM    1  C1  UNL     1     -41.344   3.857 -16.040  1.00  0.00     0.272 C 
HETATM    2  N1  UNL     1     -40.586   2.622 -16.155  1.00  0.00    -0.075 N 
HETATM    3  C2  UNL     1     -41.364   1.592 -15.495  1.00  0.00     0.272 C 
HETATM    4  C3  UNL     1     -39.319   2.709 -15.451  1.00  0.00     0.236 C 
HETATM    5  C4  UNL     1     -38.745   4.097 -15.469  1.00  0.00     0.029 C 
HETATM    6  C5  UNL     1     -37.296   4.103 -15.931  1.00  0.00     0.017 C 
HETATM    7  C6  UNL     1     -36.376   4.006 -14.738  1.00  0.00     0.140 C 
HETATM    8  S1  UNL     1     -34.736   3.559 -15.190  1.00  0.00     0.144 S 
HETATM    9  O1  UNL     1     -33.805   4.190 -14.169  1.00  0.00    -0.228 OA
HETATM   10  O2  UNL     1     -34.414   4.189 -16.501  1.00  0.00    -0.228 OA
HETATM   11  C7  UNL     1     -34.447   1.828 -15.159  1.00  0.00     0.140 C 
HETATM   12  C8  UNL     1     -35.118   1.075 -16.271  1.00  0.00     0.015 C 
HETATM   13  C9  UNL     1     -34.752   1.550 -17.635  1.00  0.00     0.002 C 
HETATM   14  C10 UNL     1     -35.084   0.458 -18.633  1.00  0.00     0.020 C 
HETATM   15  C11 UNL     1     -36.588   0.521 -18.941  1.00  0.00     0.124 C 
HETATM   16  N2  UNL     1     -36.988  -0.625 -19.738  1.00  0.00    -0.343 N 
ATOM     17  H2  UNL     1     -36.399  -0.891 -20.528  1.00  0.00     0.164 HD
HETATM   18  C12 UNL     1     -38.150  -1.396 -19.481  1.00  0.00     0.316 C 
HETATM   19  O3  UNL     1     -38.106  -2.622 -19.770  1.00  0.00    -0.247 OA
HETATM   20  N3  UNL     1     -39.367  -0.922 -18.928  1.00  0.00    -0.343 N 
ATOM     21  H3  UNL     1     -39.910  -1.575 -18.363  1.00  0.00     0.164 HD
HETATM   22  C13 UNL     1     -39.897   0.394 -19.096  1.00  0.00     0.126 C 
HETATM   23  C14 UNL     1     -40.617   0.849 -17.844  1.00  0.00     0.048 C 
HETATM   24  C15 UNL     1     -40.389   2.295 -17.539  1.00  0.00     0.238 C 
ENDROOT
TORSDOF 0
ENDMDL
MODEL 5
REMARK VINA RESULT: -5.299708815      8.097     10.418
REMARK  0 active torsions:
REMARK  status: ('A' for Active; 'I' for Inactive)
ROOT
HETATM    1  C1  UNL     1     -51.333  -4.069 -14.623  1.00  0.00     0.272 C 
HETATM    2  N1  UNL     1     -50.599  -2.958 -15.205  1.00  0.00    -0.075 N 
HETATM    3  C2  UNL     1     -51.162  -1.746 -14.641  1.00  0.00     0.272 C 
HETATM    4  C3  UNL     1     -50.797  -2.885 -16.642  1.00  0.00     0.236 C 
HETATM    5  C4  UNL     1     -50.981  -4.239 -17.266  1.00  0.00     0.029 C 
HETATM    6  C5  UNL     1     -50.055  -4.443 -18.455  1.00  0.00     0.017 C 
HETATM    7  C6  UNL     1     -50.755  -4.035 -19.728  1.00  0.00     0.140 C 
HETATM    8  S1  UNL     1     -49.638  -3.812 -21.068  1.00  0.00     0.144 S 
HETATM    9  O1  UNL     1     -50.395  -4.150 -22.341  1.00  0.00    -0.228 OA
HETATM   10  O2  UNL     1     -48.544  -4.817 -20.949  1.00  0.00    -0.228 OA
HETATM   11  C7  UNL     1     -49.056  -2.164 -21.230  1.00  0.00     0.140 C 
HETATM   12  C8  UNL     1     -48.090  -1.748 -20.159  1.00  0.00     0.015 C 
HETATM   13  C9  UNL     1     -46.888  -2.622 -20.051  1.00  0.00     0.002 C 
HETATM   14  C10 UNL     1     -45.802  -1.863 -19.313  1.00  0.00     0.020 C 
HETATM   15  C11 UNL     1     -46.085  -1.951 -17.806  1.00  0.00     0.124 C 
HETATM   16  N2  UNL     1     -45.185  -1.077 -17.073  1.00  0.00    -0.343 N 
ATOM     17  H2  UNL     1     -44.197  -1.083 -17.325  1.00  0.00     0.164 HD
HETATM   18  C12 UNL     1     -45.604  -0.216 -16.026  1.00  0.00     0.316 C 
HETATM   19  O3  UNL     1     -44.974   0.865 -15.881  1.00  0.00    -0.247 OA
HETATM   20  N3  UNL     1     -46.668  -0.453 -15.119  1.00  0.00    -0.343 N 
ATOM     21  H3  UNL     1     -47.172   0.362 -14.767  1.00  0.00     0.164 HD
HETATM   22  C13 UNL     1     -47.093  -1.736 -14.656  1.00  0.00     0.126 C 
HETATM   23  C14 UNL     1     -48.594  -1.767 -14.457  1.00  0.00     0.048 C 
HETATM   24  C15 UNL     1     -49.205  -3.065 -14.877  1.00  0.00     0.238 C 
ENDROOT
TORSDOF 0
ENDMDL
