MODEL 1
REMARK VINA RESULT: -6.712192414      0.000      0.000
REMARK  4 active torsions:
REMARK  status: ('A' for Active; 'I' for Inactive)
REMARK    1  A    between atoms: N1_2  and  C3_4 
REMARK    2  A    between atoms: C3_4  and  N2_6 
REMARK       I    between atoms: C4_8  and  N4_10 
REMARK       I    between atoms: N5_13  and  C7_14 
REMARK    3  A    between atoms: C7_14  and  O2_16 
REMARK    4  A    between atoms: O2_16  and  C8_17 
ROOT
HETATM    1  N2  UNL     1     -36.257   3.211 -14.128  1.00  0.00    -0.307 N 
ATOM      2  H2  UNL     1     -37.045   2.935 -13.542  1.00  0.00     0.171 HD
HETATM    3  C4  UNL     1     -36.508   3.893 -15.197  1.00  0.00     0.198 C 
HETATM    4  N3  UNL     1     -35.524   4.338 -16.094  1.00  0.00    -0.063 NA
HETATM    5  N4  UNL     1     -37.875   4.194 -15.453  1.00  0.00    -0.309 N 
HETATM    6  C5  UNL     1     -38.248   5.545 -15.118  1.00  0.00     0.153 C 
HETATM    7  C6  UNL     1     -39.741   5.738 -15.076  1.00  0.00     0.148 C 
HETATM    8  N5  UNL     1     -40.358   5.333 -16.300  1.00  0.00    -0.326 N 
HETATM    9  C7  UNL     1     -40.492   6.304 -17.324  1.00  0.00     0.363 C 
HETATM   10  O1  UNL     1     -41.014   6.066 -18.436  1.00  0.00    -0.238 OA
HETATM   11  C12 UNL     1     -40.881   4.031 -16.651  1.00  0.00     0.135 C 
HETATM   12  C13 UNL     1     -40.128   2.996 -15.874  1.00  0.00     0.096 C 
HETATM   13  C14 UNL     1     -38.680   3.169 -15.990  1.00  0.00     0.080 C 
HETATM   14  N6  UNL     1     -38.015   2.271 -16.675  1.00  0.00    -0.389 N 
ATOM     15  H61 UNL     1     -38.598   1.530 -17.063  1.00  0.00     0.157 HD
ATOM     16  H62 UNL     1     -37.006   2.391 -16.756  1.00  0.00     0.157 HD
ENDROOT
BRANCH   1  17
HETATM   17  C3  UNL     1     -34.970   2.826 -13.722  1.00  0.00     0.175 C 
HETATM   18  S1  UNL     1     -33.981   3.911 -13.008  1.00  0.00    -0.041 SA
BRANCH  17  19
HETATM   19  N1  UNL     1     -34.537   1.502 -13.935  1.00  0.00    -0.367 N 
HETATM   20  C1  UNL     1     -33.717   0.827 -12.936  1.00  0.00     0.151 C 
HETATM   21  C2  UNL     1     -34.881   0.780 -15.126  1.00  0.00     0.151 C 
ENDBRANCH  17  19
ENDBRANCH   1  17
BRANCH   9  22
HETATM   22  O2  UNL     1     -40.019   7.580 -17.081  1.00  0.00    -0.294 OA
BRANCH  22  23
HETATM   23  C8  UNL     1     -40.927   8.593 -16.686  1.00  0.00     0.061 C 
HETATM   24  C9  UNL     1     -42.362   8.125 -16.814  1.00  0.00     0.046 C 
HETATM   25  C10 UNL     1     -40.699   9.842 -17.486  1.00  0.00     0.046 C 
HETATM   26  C11 UNL     1     -40.609   8.886 -15.213  1.00  0.00     0.046 C 
ENDBRANCH  22  23
ENDBRANCH   9  22
TORSDOF 4
ENDMDL
MODEL 2
REMARK VINA RESULT: -6.197982375      4.865      8.681
REMARK  4 active torsions:
REMARK  status: ('A' for Active; 'I' for Inactive)
REMARK    1  A    between atoms: N1_2  and  C3_4 
REMARK    2  A    between atoms: C3_4  and  N2_6 
REMARK       I    between atoms: C4_8  and  N4_10 
REMARK       I    between atoms: N5_13  and  C7_14 
REMARK    3  A    between atoms: C7_14  and  O2_16 
REMARK    4  A    between atoms: O2_16  and  C8_17 
ROOT
HETATM    1  N2  UNL     1     -44.567   8.919 -16.351  1.00  0.00    -0.307 N 
ATOM      2  H2  UNL     1     -44.273   9.320 -15.460  1.00  0.00     0.171 HD
HETATM    3  C4  UNL     1     -43.813   8.014 -16.885  1.00  0.00     0.198 C 
HETATM    4  N3  UNL     1     -44.092   7.379 -18.105  1.00  0.00    -0.063 NA
HETATM    5  N4  UNL     1     -42.635   7.663 -16.168  1.00  0.00    -0.309 N 
HETATM    6  C5  UNL     1     -42.740   6.422 -15.443  1.00  0.00     0.153 C 
HETATM    7  C6  UNL     1     -41.631   6.243 -14.440  1.00  0.00     0.148 C 
HETATM    8  N5  UNL     1     -40.346   6.363 -15.052  1.00  0.00    -0.326 N 
HETATM    9  C7  UNL     1     -39.751   5.187 -15.575  1.00  0.00     0.363 C 
HETATM   10  O1  UNL     1     -38.631   5.168 -16.132  1.00  0.00    -0.238 OA
HETATM   11  C12 UNL     1     -39.540   7.553 -15.217  1.00  0.00     0.135 C 
HETATM   12  C13 UNL     1     -40.455   8.735 -15.281  1.00  0.00     0.096 C 
HETATM   13  C14 UNL     1     -41.535   8.542 -16.249  1.00  0.00     0.080 C 
HETATM   14  N6  UNL     1     -41.507   9.262 -17.342  1.00  0.00    -0.389 N 
ATOM     15  H61 UNL     1     -40.711   9.898 -17.400  1.00  0.00     0.157 HD
ATOM     16  H62 UNL     1     -42.260   9.127 -18.017  1.00  0.00     0.157 HD
ENDROOT
BRANCH   1  17
HETATM   17  C3  UNL     1     -45.763   9.385 -16.918  1.00  0.00     0.175 C 
HETATM   18  S1  UNL     1     -47.114   9.481 -16.009  1.00  0.00    -0.041 SA
BRANCH  17  19
HETATM   19  N1  UNL     1     -45.790   9.766 -18.275  1.00  0.00    -0.367 N 
HETATM   20  C1  UNL     1     -46.852   9.289 -19.151  1.00  0.00     0.151 C 
HETATM   21  C2  UNL     1     -44.786  10.626 -18.836  1.00  0.00     0.151 C 
ENDBRANCH  17  19
ENDBRANCH   1  17
BRANCH   9  22
HETATM   22  O2  UNL     1     -40.448   3.997 -15.465  1.00  0.00    -0.294 OA
BRANCH  22  23
HETATM   23  C8  UNL     1     -41.008   3.410 -16.625  1.00  0.00     0.061 C 
HETATM   24  C9  UNL     1     -40.165   2.250 -17.115  1.00  0.00     0.046 C 
HETATM   25  C10 UNL     1     -41.177   4.440 -17.703  1.00  0.00     0.046 C 
HETATM   26  C11 UNL     1     -42.394   2.900 -16.207  1.00  0.00     0.046 C 
ENDBRANCH  22  23
ENDBRANCH   9  22
TORSDOF 4
ENDMDL
MODEL 3
REMARK VINA RESULT: -5.988578937      5.935      9.797
REMARK  4 active torsions:
REMARK  status: ('A' for Active; 'I' for Inactive)
REMARK    1  A    between atoms: N1_2  and  C3_4 
REMARK    2  A    between atoms: C3_4  and  N2_6 
REMARK       I    between atoms: C4_8  and  N4_10 
REMARK       I    between atoms: N5_13  and  C7_14 
REMARK    3  A    between atoms: C7_14  and  O2_16 
REMARK    4  A    between atoms: O2_16  and  C8_17 
ROOT
HETATM    1  N2  UNL     1     -46.559   7.451 -19.439  1.00  0.00    -0.307 N 
ATOM      2  H2  UNL     1     -46.402   6.491 -19.746  1.00  0.00     0.171 HD
HETATM    3  C4  UNL     1     -45.926   7.862 -18.390  1.00  0.00     0.198 C 
HETATM    4  N3  UNL     1     -46.046   9.155 -17.855  1.00  0.00    -0.063 NA
HETATM    5  N4  UNL     1     -45.062   6.923 -17.760  1.00  0.00    -0.309 N 
HETATM    6  C5  UNL     1     -43.666   7.124 -18.056  1.00  0.00     0.153 C 
HETATM    7  C6  UNL     1     -42.817   5.942 -17.666  1.00  0.00     0.148 C 
HETATM    8  N5  UNL     1     -42.997   5.598 -16.291  1.00  0.00    -0.326 N 
HETATM    9  C7  UNL     1     -42.156   6.225 -15.338  1.00  0.00     0.363 C 
HETATM   10  O1  UNL     1     -42.220   6.003 -14.108  1.00  0.00    -0.238 OA
HETATM   11  C12 UNL     1     -43.946   4.669 -15.718  1.00  0.00     0.135 C 
HETATM   12  C13 UNL     1     -45.143   4.606 -16.614  1.00  0.00     0.096 C 
HETATM   13  C14 UNL     1     -45.653   5.937 -16.944  1.00  0.00     0.080 C 
HETATM   14  N6  UNL     1     -46.805   6.290 -16.430  1.00  0.00    -0.389 N 
ATOM     15  H61 UNL     1     -47.232   5.576 -15.840  1.00  0.00     0.157 HD
ATOM     16  H62 UNL     1     -47.161   7.218 -16.660  1.00  0.00     0.157 HD
ENDROOT
BRANCH   1  17
HETATM   17  C3  UNL     1     -47.449   8.241 -20.183  1.00  0.00     0.175 C 
HETATM   18  S1  UNL     1     -47.127   9.822 -20.428  1.00  0.00    -0.041 SA
BRANCH  17  19
HETATM   19  N1  UNL     1     -48.620   7.664 -20.713  1.00  0.00    -0.367 N 
HETATM   20  C1  UNL     1     -49.721   8.510 -21.159  1.00  0.00     0.151 C 
HETATM   21  C2  UNL     1     -48.771   6.241 -20.833  1.00  0.00     0.151 C 
ENDBRANCH  17  19
ENDBRANCH   1  17
BRANCH   9  22
HETATM   22  O2  UNL     1     -41.215   7.131 -15.792  1.00  0.00    -0.294 OA
BRANCH  22  23
HETATM   23  C8  UNL     1     -39.876   6.708 -15.975  1.00  0.00     0.061 C 
HETATM   24  C9  UNL     1     -39.814   5.271 -16.449  1.00  0.00     0.046 C 
HETATM   25  C10 UNL     1     -39.092   6.887 -14.708  1.00  0.00     0.046 C 
HETATM   26  C11 UNL     1     -39.290   7.632 -17.052  1.00  0.00     0.046 C 
ENDBRANCH  22  23
ENDBRANCH   9  22
TORSDOF 4
ENDMDL
MODEL 4
REMARK VINA RESULT: -5.846667178      3.713      7.694
REMARK  4 active torsions:
REMARK  status: ('A' for Active; 'I' for Inactive)
REMARK    1  A    between atoms: N1_2  and  C3_4 
REMARK    2  A    between atoms: C3_4  and  N2_6 
REMARK       I    between atoms: C4_8  and  N4_10 
REMARK       I    between atoms: N5_13  and  C7_14 
REMARK    3  A    between atoms: C7_14  and  O2_16 
REMARK    4  A    between atoms: O2_16  and  C8_17 
ROOT
HETATM    1  N2  UNL     1     -42.982   6.796 -16.998  1.00  0.00    -0.307 N 
ATOM      2  H2  UNL     1     -42.973   6.169 -17.803  1.00  0.00     0.171 HD
HETATM    3  C4  UNL     1     -42.208   6.514 -16.002  1.00  0.00     0.198 C 
HETATM    4  N3  UNL     1     -42.119   7.285 -14.833  1.00  0.00    -0.063 NA
HETATM    5  N4  UNL     1     -41.409   5.343 -16.129  1.00  0.00    -0.309 N 
HETATM    6  C5  UNL     1     -40.033   5.607 -16.465  1.00  0.00     0.153 C 
HETATM    7  C6  UNL     1     -39.302   4.372 -16.920  1.00  0.00     0.148 C 
HETATM    8  N5  UNL     1     -39.393   3.322 -15.955  1.00  0.00    -0.326 N 
HETATM    9  C7  UNL     1     -38.396   3.263 -14.949  1.00  0.00     0.363 C 
HETATM   10  O1  UNL     1     -38.372   2.391 -14.052  1.00  0.00    -0.238 OA
HETATM   11  C12 UNL     1     -40.390   2.279 -15.857  1.00  0.00     0.135 C 
HETATM   12  C13 UNL     1     -41.665   2.789 -16.454  1.00  0.00     0.096 C 
HETATM   13  C14 UNL     1     -42.037   4.098 -15.916  1.00  0.00     0.080 C 
HETATM   14  N6  UNL     1     -43.085   4.156 -15.132  1.00  0.00    -0.389 N 
ATOM     15  H61 UNL     1     -43.538   3.255 -14.978  1.00  0.00     0.157 HD
ATOM     16  H62 UNL     1     -43.344   5.068 -14.757  1.00  0.00     0.157 HD
ENDROOT
BRANCH   1  17
HETATM   17  C3  UNL     1     -43.835   7.909 -17.043  1.00  0.00     0.175 C 
HETATM   18  S1  UNL     1     -43.273   9.347 -17.572  1.00  0.00    -0.041 SA
BRANCH  17  19
HETATM   19  N1  UNL     1     -45.176   7.779 -16.629  1.00  0.00    -0.367 N 
HETATM   20  C1  UNL     1     -45.952   8.960 -16.271  1.00  0.00     0.151 C 
HETATM   21  C2  UNL     1     -45.818   6.498 -16.545  1.00  0.00     0.151 C 
ENDBRANCH  17  19
ENDBRANCH   1  17
BRANCH   9  22
HETATM   22  O2  UNL     1     -37.398   4.220 -14.959  1.00  0.00    -0.294 OA
BRANCH  22  23
HETATM   23  C8  UNL     1     -36.048   3.815 -15.092  1.00  0.00     0.061 C 
HETATM   24  C9  UNL     1     -35.939   2.505 -15.846  1.00  0.00     0.046 C 
HETATM   25  C10 UNL     1     -35.398   3.709 -13.743  1.00  0.00     0.046 C 
HETATM   26  C11 UNL     1     -35.354   4.928 -15.888  1.00  0.00     0.046 C 
ENDBRANCH  22  23
ENDBRANCH   9  22
TORSDOF 4
ENDMDL
MODEL 5
REMARK VINA RESULT: -5.836403394      2.520      4.179
REMARK  4 active torsions:
REMARK  status: ('A' for Active; 'I' for Inactive)
REMARK    1  A    between atoms: N1_2  and  C3_4 
REMARK    2  A    between atoms: C3_4  and  N2_6 
REMARK       I    between atoms: C4_8  and  N4_10 
REMARK       I    between atoms: N5_13  and  C7_14 
REMARK    3  A    between atoms: C7_14  and  O2_16 
REMARK    4  A    between atoms: O2_16  and  C8_17 
ROOT
HETATM    1  N2  UNL     1     -36.315   3.622 -15.882  1.00  0.00    -0.307 N 
ATOM      2  H2  UNL     1     -36.388   4.187 -16.728  1.00  0.00     0.171 HD
HETATM    3  C4  UNL     1     -37.395   3.397 -15.210  1.00  0.00     0.198 C 
HETATM    4  N3  UNL     1     -37.443   2.639 -14.028  1.00  0.00    -0.063 NA
HETATM    5  N4  UNL     1     -38.594   3.965 -15.723  1.00  0.00    -0.309 N 
HETATM    6  C5  UNL     1     -39.437   3.024 -16.416  1.00  0.00     0.153 C 
HETATM    7  C6  UNL     1     -40.511   3.700 -17.229  1.00  0.00     0.148 C 
HETATM    8  N5  UNL     1     -41.296   4.585 -16.428  1.00  0.00    -0.326 N 
HETATM    9  C7  UNL     1     -42.440   4.052 -15.783  1.00  0.00     0.363 C 
HETATM   10  O1  UNL     1     -43.202   4.730 -15.058  1.00  0.00    -0.238 OA
HETATM   11  C12 UNL     1     -41.081   5.993 -16.176  1.00  0.00     0.135 C 
HETATM   12  C13 UNL     1     -39.615   6.273 -16.291  1.00  0.00     0.096 C 
HETATM   13  C14 UNL     1     -38.814   5.340 -15.499  1.00  0.00     0.080 C 
HETATM   14  N6  UNL     1     -38.208   5.811 -14.437  1.00  0.00    -0.389 N 
ATOM     15  H61 UNL     1     -38.367   6.805 -14.275  1.00  0.00     0.157 HD
ATOM     16  H62 UNL     1     -37.650   5.161 -13.884  1.00  0.00     0.157 HD
ENDROOT
BRANCH   1  17
HETATM   17  C3  UNL     1     -35.047   3.140 -15.522  1.00  0.00     0.175 C 
HETATM   18  S1  UNL     1     -34.061   4.050 -14.593  1.00  0.00    -0.041 SA
BRANCH  17  19
HETATM   19  N1  UNL     1     -34.631   1.869 -15.968  1.00  0.00    -0.367 N 
HETATM   20  C1  UNL     1     -34.507   0.764 -15.025  1.00  0.00     0.151 C 
HETATM   21  C2  UNL     1     -34.317   1.620 -17.347  1.00  0.00     0.151 C 
ENDBRANCH  17  19
ENDBRANCH   1  17
BRANCH   9  22
HETATM   22  O2  UNL     1     -42.728   2.712 -15.964  1.00  0.00    -0.294 OA
BRANCH  22  23
HETATM   23  C8  UNL     1     -44.011   2.224 -15.613  1.00  0.00     0.061 C 
HETATM   24  C9  UNL     1     -45.107   3.055 -16.246  1.00  0.00     0.046 C 
HETATM   25  C10 UNL     1     -44.165   2.184 -14.121  1.00  0.00     0.046 C 
HETATM   26  C11 UNL     1     -44.073   0.789 -16.154  1.00  0.00     0.046 C 
ENDBRANCH  22  23
ENDBRANCH   9  22
TORSDOF 4
ENDMDL
