MODEL 1
REMARK VINA RESULT: -8.111047677      0.000      0.000
REMARK  4 active torsions:
REMARK  status: ('A' for Active; 'I' for Inactive)
REMARK       I    between atoms: C2_2  and  N1_4 
REMARK    1  A    between atoms: C5_8  and  C6_9 
REMARK    2  A    between atoms: C6_9  and  C9_12 
REMARK    3  A    between atoms: C9_12  and  C10_13 
REMARK    4  A    between atoms: C10_13  and  C11_14 
ROOT
HETATM    1  C6  UNL     1     -35.807   3.578 -15.128  1.00  0.00     0.060 C 
HETATM    2  C7  UNL     1     -34.486   4.370 -15.223  1.00  0.00     0.035 C 
HETATM    3  C8  UNL     1     -35.900   3.093 -13.708  1.00  0.00     0.035 C 
ENDROOT
BRANCH   1   4
HETATM    4  C5  UNL     1     -35.675   2.442 -16.060  1.00  0.00     0.049 A 
HETATM    5  C4  UNL     1     -34.521   2.240 -16.816  1.00  0.00     0.078 A 
HETATM    6  C3  UNL     1     -34.682   1.096 -17.605  1.00  0.00     0.124 A 
HETATM    7  N1  UNL     1     -33.790   0.644 -18.414  1.00  0.00    -0.312 N 
HETATM    8  N5  UNL     1     -35.911   0.661 -17.298  1.00  0.00    -0.285 N 
HETATM    9  C2  UNL     1     -33.913  -0.484 -19.215  1.00  0.00     0.219 C 
ATOM     10  H1  UNL     1     -32.913   1.161 -18.472  1.00  0.00     0.170 HD
HETATM   11  C1  UNL     1     -32.953  -0.669 -20.374  1.00  0.00     0.117 C 
HETATM   12  O1  UNL     1     -34.779  -1.376 -19.038  1.00  0.00    -0.274 OA
HETATM   13  N4  UNL     1     -36.508   1.441 -16.387  1.00  0.00    -0.301 N 
ATOM     14  H5  UNL     1     -36.342  -0.168 -17.708  1.00  0.00     0.188 HD
ATOM     15  H4  UNL     1     -37.443   1.299 -16.006  1.00  0.00     0.186 HD
ENDBRANCH   1   4
BRANCH   1  16
HETATM   16  C9  UNL     1     -36.861   4.497 -15.504  1.00  0.00    -0.089 C 
BRANCH  16  17
HETATM   17  C10 UNL     1     -37.732   5.256 -15.848  1.00  0.00    -0.079 C 
BRANCH  17  18
HETATM   18  C11 UNL     1     -38.767   6.196 -16.274  1.00  0.00     0.176 C 
HETATM   19  C12 UNL     1     -39.310   6.954 -15.096  1.00  0.00     0.141 C 
HETATM   20  C13 UNL     1     -40.337   7.907 -15.624  1.00  0.00     0.230 C 
HETATM   21  O2  UNL     1     -40.508   9.075 -15.164  1.00  0.00    -0.273 OA
HETATM   22  N2  UNL     1     -41.196   7.527 -16.689  1.00  0.00    -0.274 N 
HETATM   23  C14 UNL     1     -42.288   8.353 -17.181  1.00  0.00     0.164 C 
HETATM   24  C15 UNL     1     -40.980   6.268 -17.329  1.00  0.00     0.327 C 
HETATM   25  O3  UNL     1     -41.717   5.899 -18.280  1.00  0.00    -0.247 OA
HETATM   26  N3  UNL     1     -39.909   5.475 -16.843  1.00  0.00    -0.322 N 
HETATM   27  C16 UNL     1     -39.954   4.048 -16.922  1.00  0.00     0.156 C 
ENDBRANCH  17  18
ENDBRANCH  16  17
ENDBRANCH   1  16
TORSDOF 4
ENDMDL
MODEL 2
REMARK VINA RESULT: -7.825357179      3.226      8.436
REMARK  4 active torsions:
REMARK  status: ('A' for Active; 'I' for Inactive)
REMARK       I    between atoms: C2_2  and  N1_4 
REMARK    1  A    between atoms: C5_8  and  C6_9 
REMARK    2  A    between atoms: C6_9  and  C9_12 
REMARK    3  A    between atoms: C9_12  and  C10_13 
REMARK    4  A    between atoms: C10_13  and  C11_14 
ROOT
HETATM    1  C6  UNL     1     -39.251   5.846 -15.788  1.00  0.00     0.060 C 
HETATM    2  C7  UNL     1     -39.278   6.788 -14.566  1.00  0.00     0.035 C 
HETATM    3  C8  UNL     1     -38.932   6.714 -16.974  1.00  0.00     0.035 C 
ENDROOT
BRANCH   1   4
HETATM    4  C5  UNL     1     -40.608   5.281 -15.905  1.00  0.00     0.049 A 
HETATM    5  C4  UNL     1     -41.712   6.074 -16.211  1.00  0.00     0.078 A 
HETATM    6  C3  UNL     1     -42.859   5.273 -16.252  1.00  0.00     0.124 A 
HETATM    7  N1  UNL     1     -44.039   5.713 -16.510  1.00  0.00    -0.312 N 
HETATM    8  N5  UNL     1     -42.404   4.044 -15.972  1.00  0.00    -0.285 N 
HETATM    9  C2  UNL     1     -45.200   4.951 -16.557  1.00  0.00     0.219 C 
ATOM     10  H1  UNL     1     -44.131   6.711 -16.697  1.00  0.00     0.170 HD
HETATM   11  C1  UNL     1     -46.542   5.654 -16.495  1.00  0.00     0.117 C 
HETATM   12  O1  UNL     1     -45.211   3.699 -16.653  1.00  0.00    -0.274 OA
HETATM   13  N4  UNL     1     -41.081   4.032 -15.767  1.00  0.00    -0.301 N 
ATOM     14  H5  UNL     1     -42.996   3.216 -15.921  1.00  0.00     0.188 HD
ATOM     15  H4  UNL     1     -40.523   3.208 -15.544  1.00  0.00     0.186 HD
ENDBRANCH   1   4
BRANCH   1  16
HETATM   16  C9  UNL     1     -38.244   4.844 -15.508  1.00  0.00    -0.089 C 
BRANCH  16  17
HETATM   17  C10 UNL     1     -37.390   4.031 -15.255  1.00  0.00    -0.079 C 
BRANCH  17  18
HETATM   18  C11 UNL     1     -36.349   3.060 -14.924  1.00  0.00     0.176 C 
HETATM   19  C12 UNL     1     -36.158   2.977 -13.437  1.00  0.00     0.141 C 
HETATM   20  C13 UNL     1     -35.102   1.946 -13.188  1.00  0.00     0.230 C 
HETATM   21  O2  UNL     1     -35.126   1.143 -12.208  1.00  0.00    -0.273 OA
HETATM   22  N2  UNL     1     -33.988   1.826 -14.061  1.00  0.00    -0.274 N 
HETATM   23  C14 UNL     1     -32.868   0.928 -13.825  1.00  0.00     0.164 C 
HETATM   24  C15 UNL     1     -33.958   2.621 -15.247  1.00  0.00     0.327 C 
HETATM   25  O3  UNL     1     -32.991   2.539 -16.048  1.00  0.00    -0.247 OA
HETATM   26  N3  UNL     1     -35.058   3.489 -15.468  1.00  0.00    -0.322 N 
HETATM   27  C16 UNL     1     -34.898   4.711 -16.193  1.00  0.00     0.156 C 
ENDBRANCH  17  18
ENDBRANCH  16  17
ENDBRANCH   1  16
TORSDOF 4
ENDMDL
MODEL 3
REMARK VINA RESULT: -7.809323742      3.804      7.997
REMARK  4 active torsions:
REMARK  status: ('A' for Active; 'I' for Inactive)
REMARK       I    between atoms: C2_2  and  N1_4 
REMARK    1  A    between atoms: C5_8  and  C6_9 
REMARK    2  A    between atoms: C6_9  and  C9_12 
REMARK    3  A    between atoms: C9_12  and  C10_13 
REMARK    4  A    between atoms: C10_13  and  C11_14 
ROOT
HETATM    1  C6  UNL     1     -39.463   5.061 -15.899  1.00  0.00     0.060 C 
HETATM    2  C7  UNL     1     -39.933   6.092 -14.852  1.00  0.00     0.035 C 
HETATM    3  C8  UNL     1     -39.524   5.762 -17.228  1.00  0.00     0.035 C 
ENDROOT
BRANCH   1   4
HETATM    4  C5  UNL     1     -40.431   3.950 -15.849  1.00  0.00     0.049 A 
HETATM    5  C4  UNL     1     -41.806   4.173 -15.802  1.00  0.00     0.078 A 
HETATM    6  C3  UNL     1     -42.472   2.943 -15.759  1.00  0.00     0.124 A 
HETATM    7  N1  UNL     1     -43.750   2.814 -15.711  1.00  0.00    -0.312 N 
HETATM    8  N5  UNL     1     -41.483   2.039 -15.781  1.00  0.00    -0.285 N 
HETATM    9  C2  UNL     1     -44.447   1.613 -15.665  1.00  0.00     0.219 C 
ATOM     10  H1  UNL     1     -44.303   3.671 -15.707  1.00  0.00     0.170 HD
HETATM   11  C1  UNL     1     -45.900   1.624 -15.231  1.00  0.00     0.117 C 
HETATM   12  O1  UNL     1     -43.945   0.502 -15.965  1.00  0.00    -0.274 OA
HETATM   13  N4  UNL     1     -40.275   2.616 -15.837  1.00  0.00    -0.301 N 
ATOM     14  H5  UNL     1     -41.632   1.031 -15.759  1.00  0.00     0.188 HD
ATOM     15  H4  UNL     1     -39.383   2.123 -15.864  1.00  0.00     0.186 HD
ENDBRANCH   1   4
BRANCH   1  16
HETATM   16  C9  UNL     1     -38.126   4.664 -15.508  1.00  0.00    -0.089 C 
BRANCH  16  17
HETATM   17  C10 UNL     1     -37.026   4.309 -15.163  1.00  0.00    -0.079 C 
BRANCH  17  18
HETATM   18  C11 UNL     1     -35.706   3.861 -14.726  1.00  0.00     0.176 C 
HETATM   19  C12 UNL     1     -34.943   3.267 -15.875  1.00  0.00     0.141 C 
HETATM   20  C13 UNL     1     -33.601   2.864 -15.348  1.00  0.00     0.230 C 
HETATM   21  O2  UNL     1     -32.527   2.970 -16.014  1.00  0.00    -0.273 OA
HETATM   22  N2  UNL     1     -33.470   2.318 -14.044  1.00  0.00    -0.274 N 
HETATM   23  C14 UNL     1     -32.222   1.802 -13.504  1.00  0.00     0.164 C 
HETATM   24  C15 UNL     1     -34.622   2.278 -13.199  1.00  0.00     0.327 C 
HETATM   25  O3  UNL     1     -34.544   1.807 -12.034  1.00  0.00    -0.247 OA
HETATM   26  N3  UNL     1     -35.831   2.789 -13.735  1.00  0.00    -0.322 N 
HETATM   27  C16 UNL     1     -37.098   2.279 -13.313  1.00  0.00     0.156 C 
ENDBRANCH  17  18
ENDBRANCH  16  17
ENDBRANCH   1  16
TORSDOF 4
ENDMDL
MODEL 4
REMARK VINA RESULT: -7.603149870      0.993      1.188
REMARK  4 active torsions:
REMARK  status: ('A' for Active; 'I' for Inactive)
REMARK       I    between atoms: C2_2  and  N1_4 
REMARK    1  A    between atoms: C5_8  and  C6_9 
REMARK    2  A    between atoms: C6_9  and  C9_12 
REMARK    3  A    between atoms: C9_12  and  C10_13 
REMARK    4  A    between atoms: C10_13  and  C11_14 
ROOT
HETATM    1  C6  UNL     1     -35.816   3.295 -14.896  1.00  0.00     0.060 C 
HETATM    2  C7  UNL     1     -34.617   4.111 -14.369  1.00  0.00     0.035 C 
HETATM    3  C8  UNL     1     -36.254   2.417 -13.757  1.00  0.00     0.035 C 
ENDROOT
BRANCH   1   4
HETATM    4  C5  UNL     1     -35.304   2.483 -16.015  1.00  0.00     0.049 A 
HETATM    5  C4  UNL     1     -36.059   1.461 -16.589  1.00  0.00     0.078 A 
HETATM    6  C3  UNL     1     -35.323   0.866 -17.619  1.00  0.00     0.124 A 
HETATM    7  N1  UNL     1     -35.748  -0.109 -18.342  1.00  0.00    -0.312 N 
HETATM    8  N5  UNL     1     -34.167   1.544 -17.625  1.00  0.00    -0.285 N 
HETATM    9  C2  UNL     1     -35.047  -0.727 -19.371  1.00  0.00     0.219 C 
ATOM     10  H1  UNL     1     -36.685  -0.459 -18.143  1.00  0.00     0.170 HD
HETATM   11  C1  UNL     1     -35.514  -2.082 -19.865  1.00  0.00     0.117 C 
HETATM   12  O1  UNL     1     -34.038  -0.228 -19.927  1.00  0.00    -0.274 OA
HETATM   13  N4  UNL     1     -34.142   2.501 -16.687  1.00  0.00    -0.301 N 
ATOM     14  H5  UNL     1     -33.398   1.355 -18.266  1.00  0.00     0.188 HD
ATOM     15  H4  UNL     1     -33.366   3.140 -16.513  1.00  0.00     0.186 HD
ENDBRANCH   1   4
BRANCH   1  16
HETATM   16  C9  UNL     1     -36.815   4.259 -15.310  1.00  0.00    -0.089 C 
BRANCH  16  17
HETATM   17  C10 UNL     1     -37.649   5.045 -15.682  1.00  0.00    -0.079 C 
BRANCH  17  18
HETATM   18  C11 UNL     1     -38.648   5.999 -16.161  1.00  0.00     0.176 C 
HETATM   19  C12 UNL     1     -39.233   6.772 -15.014  1.00  0.00     0.141 C 
HETATM   20  C13 UNL     1     -40.218   7.738 -15.594  1.00  0.00     0.230 C 
HETATM   21  O2  UNL     1     -40.392   8.912 -15.147  1.00  0.00    -0.273 OA
HETATM   22  N2  UNL     1     -41.032   7.367 -16.696  1.00  0.00    -0.274 N 
HETATM   23  C14 UNL     1     -42.086   8.208 -17.243  1.00  0.00     0.164 C 
HETATM   24  C15 UNL     1     -40.806   6.102 -17.321  1.00  0.00     0.327 C 
HETATM   25  O3  UNL     1     -41.503   5.741 -18.304  1.00  0.00    -0.247 OA
HETATM   26  N3  UNL     1     -39.773   5.294 -16.781  1.00  0.00    -0.322 N 
HETATM   27  C16 UNL     1     -39.838   3.868 -16.856  1.00  0.00     0.156 C 
ENDBRANCH  17  18
ENDBRANCH  16  17
ENDBRANCH   1  16
TORSDOF 4
ENDMDL
MODEL 5
REMARK VINA RESULT: -7.378854106      3.050      8.191
REMARK  4 active torsions:
REMARK  status: ('A' for Active; 'I' for Inactive)
REMARK       I    between atoms: C2_2  and  N1_4 
REMARK    1  A    between atoms: C5_8  and  C6_9 
REMARK    2  A    between atoms: C6_9  and  C9_12 
REMARK    3  A    between atoms: C9_12  and  C10_13 
REMARK    4  A    between atoms: C10_13  and  C11_14 
ROOT
HETATM    1  C6  UNL     1     -39.244   6.101 -15.898  1.00  0.00     0.060 C 
HETATM    2  C7  UNL     1     -39.394   7.158 -14.784  1.00  0.00     0.035 C 
HETATM    3  C8  UNL     1     -39.035   6.870 -17.174  1.00  0.00     0.035 C 
ENDROOT
BRANCH   1   4
HETATM    4  C5  UNL     1     -40.517   5.358 -15.939  1.00  0.00     0.049 A 
HETATM    5  C4  UNL     1     -41.718   5.974 -16.290  1.00  0.00     0.078 A 
HETATM    6  C3  UNL     1     -42.751   5.032 -16.239  1.00  0.00     0.124 A 
HETATM    7  N1  UNL     1     -43.981   5.293 -16.510  1.00  0.00    -0.312 N 
HETATM    8  N5  UNL     1     -42.139   3.901 -15.865  1.00  0.00    -0.285 N 
HETATM    9  C2  UNL     1     -45.034   4.388 -16.470  1.00  0.00     0.219 C 
ATOM     10  H1  UNL     1     -44.203   6.251 -16.780  1.00  0.00     0.170 HD
HETATM   11  C1  UNL     1     -46.455   4.916 -16.440  1.00  0.00     0.117 C 
HETATM   12  O1  UNL     1     -44.884   3.141 -16.458  1.00  0.00    -0.274 OA
HETATM   13  N4  UNL     1     -40.823   4.076 -15.686  1.00  0.00    -0.301 N 
ATOM     14  H5  UNL     1     -42.619   3.011 -15.732  1.00  0.00     0.188 HD
ATOM     15  H4  UNL     1     -40.162   3.353 -15.404  1.00  0.00     0.186 HD
ENDBRANCH   1   4
BRANCH   1  16
HETATM   16  C9  UNL     1     -38.118   5.271 -15.524  1.00  0.00    -0.089 C 
BRANCH  16  17
HETATM   17  C10 UNL     1     -37.163   4.607 -15.205  1.00  0.00    -0.079 C 
BRANCH  17  18
HETATM   18  C11 UNL     1     -35.996   3.825 -14.804  1.00  0.00     0.176 C 
HETATM   19  C12 UNL     1     -34.729   4.511 -15.226  1.00  0.00     0.141 C 
HETATM   20  C13 UNL     1     -33.591   3.661 -14.752  1.00  0.00     0.230 C 
HETATM   21  O2  UNL     1     -32.501   4.135 -14.312  1.00  0.00    -0.273 OA
HETATM   22  N2  UNL     1     -33.684   2.244 -14.786  1.00  0.00    -0.274 N 
HETATM   23  C14 UNL     1     -32.585   1.354 -14.448  1.00  0.00     0.164 C 
HETATM   24  C15 UNL     1     -34.926   1.647 -15.161  1.00  0.00     0.327 C 
HETATM   25  O3  UNL     1     -35.049   0.395 -15.198  1.00  0.00    -0.247 OA
HETATM   26  N3  UNL     1     -35.991   2.527 -15.483  1.00  0.00    -0.322 N 
HETATM   27  C16 UNL     1     -37.004   2.146 -16.418  1.00  0.00     0.156 C 
ENDBRANCH  17  18
ENDBRANCH  16  17
ENDBRANCH   1  16
TORSDOF 4
ENDMDL
