MODEL 1
REMARK VINA RESULT: -7.052738330      0.000      0.000
REMARK  4 active torsions:
REMARK  status: ('A' for Active; 'I' for Inactive)
REMARK       I    between atoms: C2_2  and  N1_4 
REMARK       I    between atoms: N1_4  and  C4_6 
REMARK       I    between atoms: N3_8  and  C5_10 
REMARK    1  A    between atoms: C5_10  and  C6_12 
REMARK    2  A    between atoms: N4_16  and  C10_17 
REMARK    3  A    between atoms: C10_17  and  N5_19 
REMARK    4  A    between atoms: N5_19  and  C11_21 
ROOT
HETATM    1  C6  UNL     1     -39.607   5.212 -15.843  1.00  0.00     0.061 C 
HETATM    2  C7  UNL     1     -39.688   4.015 -16.774  1.00  0.00     0.046 C 
HETATM    3  C8  UNL     1     -40.766   4.869 -17.455  1.00  0.00     0.089 C 
HETATM    4  C9  UNL     1     -39.790   6.021 -17.146  1.00  0.00     0.046 C 
HETATM    5  N4  UNL     1     -41.746   5.096 -16.457  1.00  0.00    -0.352 N 
HETATM    6  C15 UNL     1     -40.975   5.224 -15.243  1.00  0.00     0.145 C 
ENDROOT
BRANCH   1   7
HETATM    7  C5  UNL     1     -38.427   5.466 -15.096  1.00  0.00     0.234 C 
HETATM    8  N3  UNL     1     -37.186   4.922 -15.490  1.00  0.00    -0.300 N 
HETATM    9  C4  UNL     1     -36.803   3.749 -15.130  1.00  0.00     0.199 C 
ATOM     10  H3  UNL     1     -36.570   5.480 -16.083  1.00  0.00     0.171 HD
HETATM   11  N1  UNL     1     -35.543   3.249 -15.556  1.00  0.00    -0.296 N 
HETATM   12  N2  UNL     1     -37.606   2.933 -14.301  1.00  0.00    -0.063 NA
HETATM   13  C2  UNL     1     -35.102   1.961 -15.191  1.00  0.00     0.221 C 
HETATM   14  C3  UNL     1     -34.715   4.124 -16.379  1.00  0.00     0.162 C 
HETATM   15  C1  UNL     1     -33.788   1.400 -15.604  1.00  0.00     0.117 C 
HETATM   16  O1  UNL     1     -35.819   1.209 -14.481  1.00  0.00    -0.273 OA
HETATM   17  O2  UNL     1     -38.440   6.179 -14.063  1.00  0.00    -0.272 OA
ENDBRANCH   1   7
BRANCH   5  18
HETATM   18  C10 UNL     1     -43.133   5.170 -16.614  1.00  0.00     0.170 C 
HETATM   19  S1  UNL     1     -44.047   3.931 -16.070  1.00  0.00    -0.041 SA
BRANCH  18  20
HETATM   20  N5  UNL     1     -43.798   6.268 -17.217  1.00  0.00    -0.359 N 
ATOM     21  H5  UNL     1     -44.275   6.125 -18.107  1.00  0.00     0.162 HD
BRANCH  20  22
HETATM   22  C11 UNL     1     -43.823   7.561 -16.623  1.00  0.00     0.021 C 
HETATM   23  C12 UNL     1     -43.758   7.532 -15.114  1.00  0.00     0.037 C 
HETATM   24  C13 UNL     1     -42.634   8.358 -17.127  1.00  0.00     0.037 C 
HETATM   25  C14 UNL     1     -45.123   8.242 -17.052  1.00  0.00     0.037 C 
ENDBRANCH  20  22
ENDBRANCH  18  20
ENDBRANCH   5  18
TORSDOF 4
ENDMDL
MODEL 2
REMARK VINA RESULT: -7.034005079      2.147      2.746
REMARK  4 active torsions:
REMARK  status: ('A' for Active; 'I' for Inactive)
REMARK       I    between atoms: C2_2  and  N1_4 
REMARK       I    between atoms: N1_4  and  C4_6 
REMARK       I    between atoms: N3_8  and  C5_10 
REMARK    1  A    between atoms: C5_10  and  C6_12 
REMARK    2  A    between atoms: N4_16  and  C10_17 
REMARK    3  A    between atoms: C10_17  and  N5_19 
REMARK    4  A    between atoms: N5_19  and  C11_21 
ROOT
HETATM    1  C6  UNL     1     -39.138   4.789 -16.111  1.00  0.00     0.061 C 
HETATM    2  C7  UNL     1     -38.145   5.899 -16.407  1.00  0.00     0.046 C 
HETATM    3  C8  UNL     1     -39.218   6.766 -15.734  1.00  0.00     0.089 C 
HETATM    4  C9  UNL     1     -39.340   5.557 -14.787  1.00  0.00     0.046 C 
HETATM    5  N4  UNL     1     -40.384   6.591 -16.518  1.00  0.00    -0.352 N 
HETATM    6  C15 UNL     1     -40.315   5.208 -16.929  1.00  0.00     0.145 C 
ENDROOT
BRANCH   1   7
HETATM    7  C5  UNL     1     -38.702   3.442 -16.006  1.00  0.00     0.234 C 
HETATM    8  N3  UNL     1     -37.787   3.049 -15.007  1.00  0.00    -0.300 N 
HETATM    9  C4  UNL     1     -36.514   3.133 -15.168  1.00  0.00     0.199 C 
ATOM     10  H3  UNL     1     -38.148   2.685 -14.124  1.00  0.00     0.171 HD
HETATM   11  N1  UNL     1     -35.637   2.724 -14.128  1.00  0.00    -0.296 N 
HETATM   12  N2  UNL     1     -35.953   3.618 -16.371  1.00  0.00    -0.063 NA
HETATM   13  C2  UNL     1     -34.238   2.819 -14.268  1.00  0.00     0.221 C 
HETATM   14  C3  UNL     1     -36.238   2.191 -12.910  1.00  0.00     0.162 C 
HETATM   15  C1  UNL     1     -33.280   2.394 -13.212  1.00  0.00     0.117 C 
HETATM   16  O1  UNL     1     -33.723   3.280 -15.320  1.00  0.00    -0.273 OA
HETATM   17  O2  UNL     1     -39.112   2.553 -16.792  1.00  0.00    -0.272 OA
ENDBRANCH   1   7
BRANCH   5  18
HETATM   18  C10 UNL     1     -41.364   7.538 -16.827  1.00  0.00     0.170 C 
HETATM   19  S1  UNL     1     -40.917   9.099 -16.995  1.00  0.00    -0.041 SA
BRANCH  18  20
HETATM   20  N5  UNL     1     -42.733   7.220 -17.011  1.00  0.00    -0.359 N 
ATOM     21  H5  UNL     1     -43.110   7.193 -17.958  1.00  0.00     0.162 HD
BRANCH  20  22
HETATM   22  C11 UNL     1     -43.602   6.935 -15.919  1.00  0.00     0.021 C 
HETATM   23  C12 UNL     1     -43.027   7.324 -14.577  1.00  0.00     0.037 C 
HETATM   24  C13 UNL     1     -44.900   7.698 -16.111  1.00  0.00     0.037 C 
HETATM   25  C14 UNL     1     -43.877   5.431 -15.926  1.00  0.00     0.037 C 
ENDBRANCH  20  22
ENDBRANCH  18  20
ENDBRANCH   5  18
TORSDOF 4
ENDMDL
MODEL 3
REMARK VINA RESULT: -6.909166049      2.129      2.764
REMARK  4 active torsions:
REMARK  status: ('A' for Active; 'I' for Inactive)
REMARK       I    between atoms: C2_2  and  N1_4 
REMARK       I    between atoms: N1_4  and  C4_6 
REMARK       I    between atoms: N3_8  and  C5_10 
REMARK    1  A    between atoms: C5_10  and  C6_12 
REMARK    2  A    between atoms: N4_16  and  C10_17 
REMARK    3  A    between atoms: C10_17  and  N5_19 
REMARK    4  A    between atoms: N5_19  and  C11_21 
ROOT
HETATM    1  C6  UNL     1     -39.063   4.797 -15.610  1.00  0.00     0.061 C 
HETATM    2  C7  UNL     1     -38.760   5.945 -16.557  1.00  0.00     0.046 C 
HETATM    3  C8  UNL     1     -39.467   6.765 -15.469  1.00  0.00     0.089 C 
HETATM    4  C9  UNL     1     -38.699   5.827 -14.519  1.00  0.00     0.046 C 
HETATM    5  N4  UNL     1     -40.767   6.212 -15.373  1.00  0.00    -0.352 N 
HETATM    6  C15 UNL     1     -40.556   4.801 -15.595  1.00  0.00     0.145 C 
ENDROOT
BRANCH   1   7
HETATM    7  C5  UNL     1     -38.288   3.608 -15.648  1.00  0.00     0.234 C 
HETATM    8  N3  UNL     1     -37.253   3.384 -14.715  1.00  0.00    -0.300 N 
HETATM    9  C4  UNL     1     -36.056   3.814 -14.899  1.00  0.00     0.199 C 
ATOM     10  H3  UNL     1     -37.463   2.862 -13.864  1.00  0.00     0.171 HD
HETATM   11  N1  UNL     1     -35.051   3.560 -13.926  1.00  0.00    -0.296 N 
HETATM   12  N2  UNL     1     -35.700   4.533 -16.063  1.00  0.00    -0.063 NA
HETATM   13  C2  UNL     1     -33.734   4.032 -14.091  1.00  0.00     0.221 C 
HETATM   14  C3  UNL     1     -35.432   2.784 -12.752  1.00  0.00     0.162 C 
HETATM   15  C1  UNL     1     -32.648   3.784 -13.106  1.00  0.00     0.117 C 
HETATM   16  O1  UNL     1     -33.409   4.703 -15.106  1.00  0.00    -0.273 OA
HETATM   17  O2  UNL     1     -38.491   2.715 -16.507  1.00  0.00    -0.272 OA
ENDBRANCH   1   7
BRANCH   5  18
HETATM   18  C10 UNL     1     -41.971   6.880 -15.128  1.00  0.00     0.170 C 
HETATM   19  S1  UNL     1     -43.080   6.163 -14.168  1.00  0.00    -0.041 SA
BRANCH  18  20
HETATM   20  N5  UNL     1     -42.285   8.154 -15.664  1.00  0.00    -0.359 N 
ATOM     21  H5  UNL     1     -42.530   8.910 -15.024  1.00  0.00     0.162 HD
BRANCH  20  22
HETATM   22  C11 UNL     1     -42.269   8.417 -17.063  1.00  0.00     0.021 C 
HETATM   23  C12 UNL     1     -42.128   7.172 -17.907  1.00  0.00     0.037 C 
HETATM   24  C13 UNL     1     -43.569   9.099 -17.451  1.00  0.00     0.037 C 
HETATM   25  C14 UNL     1     -41.090   9.348 -17.347  1.00  0.00     0.037 C 
ENDBRANCH  20  22
ENDBRANCH  18  20
ENDBRANCH   5  18
TORSDOF 4
ENDMDL
MODEL 4
REMARK VINA RESULT: -6.870771379      2.408      2.985
REMARK  4 active torsions:
REMARK  status: ('A' for Active; 'I' for Inactive)
REMARK       I    between atoms: C2_2  and  N1_4 
REMARK       I    between atoms: N1_4  and  C4_6 
REMARK       I    between atoms: N3_8  and  C5_10 
REMARK    1  A    between atoms: C5_10  and  C6_12 
REMARK    2  A    between atoms: N4_16  and  C10_17 
REMARK    3  A    between atoms: C10_17  and  N5_19 
REMARK    4  A    between atoms: N5_19  and  C11_21 
ROOT
HETATM    1  C6  UNL     1     -39.391   5.287 -15.725  1.00  0.00     0.061 C 
HETATM    2  C7  UNL     1     -38.991   6.198 -14.577  1.00  0.00     0.046 C 
HETATM    3  C8  UNL     1     -40.374   6.809 -14.843  1.00  0.00     0.089 C 
HETATM    4  C9  UNL     1     -40.781   5.337 -15.054  1.00  0.00     0.046 C 
HETATM    5  N4  UNL     1     -40.332   7.253 -16.187  1.00  0.00    -0.352 N 
HETATM    6  C15 UNL     1     -39.524   6.257 -16.852  1.00  0.00     0.145 C 
ENDROOT
BRANCH   1   7
HETATM    7  C5  UNL     1     -38.798   4.005 -15.867  1.00  0.00     0.234 C 
HETATM    8  N3  UNL     1     -37.873   3.522 -14.918  1.00  0.00    -0.300 N 
HETATM    9  C4  UNL     1     -36.615   3.781 -14.990  1.00  0.00     0.199 C 
ATOM     10  H3  UNL     1     -38.213   2.948 -14.146  1.00  0.00     0.171 HD
HETATM   11  N1  UNL     1     -35.726   3.269 -14.007  1.00  0.00    -0.296 N 
HETATM   12  N2  UNL     1     -36.082   4.561 -16.041  1.00  0.00    -0.063 NA
HETATM   13  C2  UNL     1     -34.346   3.549 -14.050  1.00  0.00     0.221 C 
HETATM   14  C3  UNL     1     -36.294   2.435 -12.954  1.00  0.00     0.162 C 
HETATM   15  C1  UNL     1     -33.375   3.028 -13.049  1.00  0.00     0.117 C 
HETATM   16  O1  UNL     1     -33.859   4.269 -14.959  1.00  0.00    -0.273 OA
HETATM   17  O2  UNL     1     -39.074   3.255 -16.835  1.00  0.00    -0.272 OA
ENDBRANCH   1   7
BRANCH   5  18
HETATM   18  C10 UNL     1     -40.928   8.392 -16.736  1.00  0.00     0.170 C 
HETATM   19  S1  UNL     1     -40.019   9.377 -17.667  1.00  0.00    -0.041 SA
BRANCH  18  20
HETATM   20  N5  UNL     1     -42.287   8.742 -16.534  1.00  0.00    -0.359 N 
ATOM     21  H5  UNL     1     -42.504   9.605 -16.035  1.00  0.00     0.162 HD
BRANCH  20  22
HETATM   22  C11 UNL     1     -43.360   7.932 -17.003  1.00  0.00     0.021 C 
HETATM   23  C12 UNL     1     -42.934   6.902 -18.023  1.00  0.00     0.037 C 
HETATM   24  C13 UNL     1     -43.974   7.197 -15.825  1.00  0.00     0.037 C 
HETATM   25  C14 UNL     1     -44.399   8.859 -17.634  1.00  0.00     0.037 C 
ENDBRANCH  20  22
ENDBRANCH  18  20
ENDBRANCH   5  18
TORSDOF 4
ENDMDL
MODEL 5
REMARK VINA RESULT: -6.676282961      3.487      8.492
REMARK  4 active torsions:
REMARK  status: ('A' for Active; 'I' for Inactive)
REMARK       I    between atoms: C2_2  and  N1_4 
REMARK       I    between atoms: N1_4  and  C4_6 
REMARK       I    between atoms: N3_8  and  C5_10 
REMARK    1  A    between atoms: C5_10  and  C6_12 
REMARK    2  A    between atoms: N4_16  and  C10_17 
REMARK    3  A    between atoms: C10_17  and  N5_19 
REMARK    4  A    between atoms: N5_19  and  C11_21 
ROOT
HETATM    1  C6  UNL     1     -36.595   3.837 -15.259  1.00  0.00     0.061 C 
HETATM    2  C7  UNL     1     -35.768   4.892 -15.972  1.00  0.00     0.046 C 
HETATM    3  C8  UNL     1     -34.642   3.874 -15.750  1.00  0.00     0.089 C 
HETATM    4  C9  UNL     1     -35.745   2.853 -16.092  1.00  0.00     0.046 C 
HETATM    5  N4  UNL     1     -34.567   3.702 -14.346  1.00  0.00    -0.352 N 
HETATM    6  C15 UNL     1     -35.943   3.795 -13.916  1.00  0.00     0.145 C 
ENDROOT
BRANCH   1   7
HETATM    7  C5  UNL     1     -38.002   3.777 -15.443  1.00  0.00     0.234 C 
HETATM    8  N3  UNL     1     -38.676   4.749 -16.213  1.00  0.00    -0.300 N 
HETATM    9  C4  UNL     1     -39.090   5.858 -15.713  1.00  0.00     0.199 C 
ATOM     10  H3  UNL     1     -38.840   4.564 -17.204  1.00  0.00     0.171 HD
HETATM   11  N1  UNL     1     -39.764   6.802 -16.534  1.00  0.00    -0.296 N 
HETATM   12  N2  UNL     1     -38.902   6.166 -14.346  1.00  0.00    -0.063 NA
HETATM   13  C2  UNL     1     -40.215   8.033 -16.018  1.00  0.00     0.221 C 
HETATM   14  C3  UNL     1     -39.980   6.445 -17.932  1.00  0.00     0.162 C 
HETATM   15  C1  UNL     1     -40.933   9.047 -16.836  1.00  0.00     0.117 C 
HETATM   16  O1  UNL     1     -40.026   8.337 -14.811  1.00  0.00    -0.273 OA
HETATM   17  O2  UNL     1     -38.696   2.864 -14.933  1.00  0.00    -0.272 OA
ENDBRANCH   1   7
BRANCH   5  18
HETATM   18  C10 UNL     1     -33.427   3.499 -13.563  1.00  0.00     0.170 C 
HETATM   19  S1  UNL     1     -32.367   4.729 -13.394  1.00  0.00    -0.041 SA
BRANCH  18  20
HETATM   20  N5  UNL     1     -33.139   2.281 -12.898  1.00  0.00    -0.359 N 
ATOM     21  H5  UNL     1     -33.032   2.287 -11.884  1.00  0.00     0.162 HD
BRANCH  20  22
HETATM   22  C11 UNL     1     -32.993   1.048 -13.596  1.00  0.00     0.021 C 
HETATM   23  C12 UNL     1     -34.310   0.417 -13.984  1.00  0.00     0.037 C 
HETATM   24  C13 UNL     1     -32.199   1.293 -14.867  1.00  0.00     0.037 C 
HETATM   25  C14 UNL     1     -32.229   0.087 -12.685  1.00  0.00     0.037 C 
ENDBRANCH  20  22
ENDBRANCH  18  20
ENDBRANCH   5  18
TORSDOF 4
ENDMDL
