MODEL 1
REMARK VINA RESULT: -8.240108167      0.000      0.000
REMARK  9 active torsions:
REMARK  status: ('A' for Active; 'I' for Inactive)
REMARK    1  A    between atoms: O1_2  and  C2_3 
REMARK    2  A    between atoms: C5_6  and  S1_7 
REMARK    3  A    between atoms: S1_7  and  N1_10 
REMARK    4  A    between atoms: N1_10  and  C6_11 
REMARK    5  A    between atoms: N1_10  and  C14_28 
REMARK    6  A    between atoms: C6_11  and  C7_12 
REMARK       I    between atoms: C7_12  and  N2_14 
REMARK    7  A    between atoms: N2_14  and  C8_16 
REMARK    8  A    between atoms: C11_19  and  S2_20 
REMARK    9  A    between atoms: S2_20  and  N3_21 
ROOT
HETATM    1  N1  UNL     1      -5.587  12.150  19.934  1.00  0.00    -0.260 N 
ENDROOT
BRANCH   1   2
HETATM    2  S1  UNL     1      -5.202  11.331  18.463  1.00  0.00     0.265 S 
HETATM    3  O2  UNL     1      -5.981  11.929  17.301  1.00  0.00    -0.200 OA
HETATM    4  O3  UNL     1      -3.761  11.520  18.134  1.00  0.00    -0.200 OA
BRANCH   2   5
HETATM    5  C5  UNL     1      -5.632   9.639  18.540  1.00  0.00     0.080 A 
HETATM    6  C4  UNL     1      -4.709   8.645  18.788  1.00  0.00     0.028 A 
HETATM    7  C3  UNL     1      -5.046   7.311  18.849  1.00  0.00     0.038 A 
HETATM    8  C2  UNL     1      -6.351   6.909  18.659  1.00  0.00     0.068 A 
HETATM    9  C22 UNL     1      -7.288   7.887  18.410  1.00  0.00     0.038 A 
HETATM   10  C21 UNL     1      -6.934   9.217  18.353  1.00  0.00     0.028 A 
BRANCH   8  11
HETATM   11  O1  UNL     1      -6.683   5.562  18.723  1.00  0.00    -0.356 OA
HETATM   12  C1  UNL     1      -6.928   4.797  17.581  1.00  0.00     0.210 C 
ENDBRANCH   8  11
ENDBRANCH   2   5
ENDBRANCH   1   2
BRANCH   1  13
HETATM   13  C6  UNL     1      -4.526  12.591  20.793  1.00  0.00     0.245 C 
BRANCH  13  14
HETATM   14  C7  UNL     1      -4.030  11.576  21.733  1.00  0.00     0.241 C 
HETATM   15  O4  UNL     1      -4.194  10.361  21.568  1.00  0.00    -0.271 OA
HETATM   16  N2  UNL     1      -3.326  12.004  22.896  1.00  0.00    -0.326 N 
ATOM     17  H2  UNL     1      -3.215  13.012  23.002  1.00  0.00     0.169 HD
BRANCH  16  18
HETATM   18  C8  UNL     1      -2.767  11.219  23.911  1.00  0.00     0.034 A 
HETATM   19  C9  UNL     1      -1.616  10.507  23.601  1.00  0.00     0.031 A 
HETATM   20  C10 UNL     1      -0.996   9.694  24.510  1.00  0.00     0.027 A 
HETATM   21  C11 UNL     1      -1.519   9.567  25.778  1.00  0.00     0.079 A 
HETATM   22  C12 UNL     1      -2.650  10.247  26.135  1.00  0.00     0.027 A 
HETATM   23  C13 UNL     1      -3.266  11.073  25.184  1.00  0.00     0.031 A 
BRANCH  21  24
HETATM   24  S2  UNL     1      -0.720   8.520  26.951  1.00  0.00     0.256 S 
HETATM   25  O5  UNL     1       0.538   9.179  27.392  1.00  0.00    -0.201 OA
HETATM   26  O6  UNL     1      -0.394   7.226  26.239  1.00  0.00    -0.201 OA
BRANCH  24  27
HETATM   27  N3  UNL     1      -1.792   8.202  28.271  1.00  0.00    -0.324 N 
ATOM     28  H32 UNL     1      -1.489   7.920  29.203  1.00  0.00     0.169 HD
ATOM     29  H31 UNL     1      -2.756   8.340  27.971  1.00  0.00     0.169 HD
ENDBRANCH  24  27
ENDBRANCH  21  24
ENDBRANCH  16  18
ENDBRANCH  13  14
ENDBRANCH   1  13
BRANCH   1  30
HETATM   30  C14 UNL     1      -6.915  12.297  20.382  1.00  0.00     0.084 A 
HETATM   31  C15 UNL     1      -7.582  13.502  20.116  1.00  0.00     0.033 A 
HETATM   32  C16 UNL     1      -8.888  13.726  20.496  1.00  0.00     0.003 A 
HETATM   33  C17 UNL     1      -9.566  12.733  21.162  1.00  0.00     0.010 A 
HETATM   34  C18 UNL     1      -8.951  11.557  21.436  1.00  0.00    -0.021 A 
HETATM   35  C19 UNL     1      -9.698  10.493  22.158  1.00  0.00     0.051 C 
HETATM   36  C20 UNL     1      -7.609  11.351  21.035  1.00  0.00     0.149 A 
HETATM   37  F1  UNL     1      -7.098  10.167  21.378  1.00  0.00    -0.203 F 
ENDBRANCH   1  30
TORSDOF 9
ENDMDL
MODEL 2
REMARK VINA RESULT: -8.097188416      3.602      7.768
REMARK  9 active torsions:
REMARK  status: ('A' for Active; 'I' for Inactive)
REMARK    1  A    between atoms: O1_2  and  C2_3 
REMARK    2  A    between atoms: C5_6  and  S1_7 
REMARK    3  A    between atoms: S1_7  and  N1_10 
REMARK    4  A    between atoms: N1_10  and  C6_11 
REMARK    5  A    between atoms: N1_10  and  C14_28 
REMARK    6  A    between atoms: C6_11  and  C7_12 
REMARK       I    between atoms: C7_12  and  N2_14 
REMARK    7  A    between atoms: N2_14  and  C8_16 
REMARK    8  A    between atoms: C11_19  and  S2_20 
REMARK    9  A    between atoms: S2_20  and  N3_21 
ROOT
HETATM    1  N1  UNL     1      -2.071  12.070  22.765  1.00  0.00    -0.260 N 
ENDROOT
BRANCH   1   2
HETATM    2  S1  UNL     1      -0.616  11.297  23.284  1.00  0.00     0.265 S 
HETATM    3  O2  UNL     1      -0.076  10.388  22.191  1.00  0.00    -0.200 OA
HETATM    4  O3  UNL     1       0.443  12.315  23.533  1.00  0.00    -0.200 OA
BRANCH   2   5
HETATM    5  C5  UNL     1      -0.889  10.291  24.687  1.00  0.00     0.080 A 
HETATM    6  C4  UNL     1      -1.894  10.538  25.597  1.00  0.00     0.028 A 
HETATM    7  C3  UNL     1      -2.112   9.746  26.703  1.00  0.00     0.038 A 
HETATM    8  C2  UNL     1      -1.312   8.650  26.948  1.00  0.00     0.068 A 
HETATM    9  C22 UNL     1      -0.302   8.387  26.049  1.00  0.00     0.038 A 
HETATM   10  C21 UNL     1      -0.099   9.188  24.948  1.00  0.00     0.028 A 
BRANCH   8  11
HETATM   11  O1  UNL     1      -1.538   7.857  28.065  1.00  0.00    -0.356 OA
HETATM   12  C1  UNL     1      -1.100   6.533  28.144  1.00  0.00     0.210 C 
ENDBRANCH   8  11
ENDBRANCH   2   5
ENDBRANCH   1   2
BRANCH   1  13
HETATM   13  C6  UNL     1      -2.697  13.038  23.618  1.00  0.00     0.245 C 
BRANCH  13  14
HETATM   14  C7  UNL     1      -4.108  12.768  23.926  1.00  0.00     0.241 C 
HETATM   15  O4  UNL     1      -4.478  12.171  24.945  1.00  0.00    -0.271 OA
HETATM   16  N2  UNL     1      -5.106  13.211  23.011  1.00  0.00    -0.326 N 
ATOM     17  H2  UNL     1      -4.765  13.694  22.180  1.00  0.00     0.169 HD
BRANCH  16  18
HETATM   18  C8  UNL     1      -6.496  13.069  23.106  1.00  0.00     0.034 A 
HETATM   19  C9  UNL     1      -7.063  11.956  22.498  1.00  0.00     0.031 A 
HETATM   20  C10 UNL     1      -8.411  11.726  22.513  1.00  0.00     0.027 A 
HETATM   21  C11 UNL     1      -9.246  12.618  23.148  1.00  0.00     0.079 A 
HETATM   22  C12 UNL     1      -8.740  13.729  23.763  1.00  0.00     0.027 A 
HETATM   23  C13 UNL     1      -7.354  13.941  23.732  1.00  0.00     0.031 A 
BRANCH  21  24
HETATM   24  S2  UNL     1     -10.985  12.321  23.169  1.00  0.00     0.256 S 
HETATM   25  O5  UNL     1     -11.635  13.383  23.980  1.00  0.00    -0.201 OA
HETATM   26  O6  UNL     1     -11.196  10.977  23.829  1.00  0.00    -0.201 OA
BRANCH  24  27
HETATM   27  N3  UNL     1     -11.587  12.272  21.547  1.00  0.00    -0.324 N 
ATOM     28  H32 UNL     1     -11.782  13.096  20.980  1.00  0.00     0.169 HD
ATOM     29  H31 UNL     1     -11.711  11.302  21.257  1.00  0.00     0.169 HD
ENDBRANCH  24  27
ENDBRANCH  21  24
ENDBRANCH  16  18
ENDBRANCH  13  14
ENDBRANCH   1  13
BRANCH   1  30
HETATM   30  C14 UNL     1      -2.733  11.695  21.579  1.00  0.00     0.084 A 
HETATM   31  C15 UNL     1      -2.592  12.510  20.446  1.00  0.00     0.033 A 
HETATM   32  C16 UNL     1      -3.185  12.211  19.239  1.00  0.00     0.003 A 
HETATM   33  C17 UNL     1      -3.945  11.070  19.135  1.00  0.00     0.010 A 
HETATM   34  C18 UNL     1      -4.103  10.261  20.210  1.00  0.00    -0.021 A 
HETATM   35  C19 UNL     1      -4.929   9.031  20.083  1.00  0.00     0.051 C 
HETATM   36  C20 UNL     1      -3.484  10.589  21.441  1.00  0.00     0.149 A 
HETATM   37  F1  UNL     1      -3.727   9.735  22.435  1.00  0.00    -0.203 F 
ENDBRANCH   1  30
TORSDOF 9
ENDMDL
MODEL 3
REMARK VINA RESULT: -7.974470639      3.180      4.447
REMARK  9 active torsions:
REMARK  status: ('A' for Active; 'I' for Inactive)
REMARK    1  A    between atoms: O1_2  and  C2_3 
REMARK    2  A    between atoms: C5_6  and  S1_7 
REMARK    3  A    between atoms: S1_7  and  N1_10 
REMARK    4  A    between atoms: N1_10  and  C6_11 
REMARK    5  A    between atoms: N1_10  and  C14_28 
REMARK    6  A    between atoms: C6_11  and  C7_12 
REMARK       I    between atoms: C7_12  and  N2_14 
REMARK    7  A    between atoms: N2_14  and  C8_16 
REMARK    8  A    between atoms: C11_19  and  S2_20 
REMARK    9  A    between atoms: S2_20  and  N3_21 
ROOT
HETATM    1  N1  UNL     1      -5.937  10.729  17.340  1.00  0.00    -0.260 N 
ENDROOT
BRANCH   1   2
HETATM    2  S1  UNL     1      -7.080  11.419  16.244  1.00  0.00     0.265 S 
HETATM    3  O2  UNL     1      -8.243  12.035  17.006  1.00  0.00    -0.200 OA
HETATM    4  O3  UNL     1      -6.451  12.533  15.481  1.00  0.00    -0.200 OA
BRANCH   2   5
HETATM    5  C5  UNL     1      -7.759  10.209  15.180  1.00  0.00     0.080 A 
HETATM    6  C4  UNL     1      -7.281   9.984  13.907  1.00  0.00     0.028 A 
HETATM    7  C3  UNL     1      -7.814   9.030  13.067  1.00  0.00     0.038 A 
HETATM    8  C2  UNL     1      -8.872   8.248  13.478  1.00  0.00     0.068 A 
HETATM    9  C22 UNL     1      -9.363   8.459  14.747  1.00  0.00     0.038 A 
HETATM   10  C21 UNL     1      -8.819   9.416  15.574  1.00  0.00     0.028 A 
BRANCH   8  11
HETATM   11  O1  UNL     1      -9.404   7.290  12.625  1.00  0.00    -0.356 OA
HETATM   12  C1  UNL     1      -9.824   6.037  13.076  1.00  0.00     0.210 C 
ENDBRANCH   8  11
ENDBRANCH   2   5
ENDBRANCH   1   2
BRANCH   1  13
HETATM   13  C6  UNL     1      -4.640  11.326  17.472  1.00  0.00     0.245 C 
BRANCH  13  14
HETATM   14  C7  UNL     1      -4.204  11.554  18.857  1.00  0.00     0.241 C 
HETATM   15  O4  UNL     1      -4.521  12.553  19.513  1.00  0.00    -0.271 OA
HETATM   16  N2  UNL     1      -3.372  10.580  19.482  1.00  0.00    -0.326 N 
ATOM     17  H2  UNL     1      -3.125   9.772  18.910  1.00  0.00     0.169 HD
BRANCH  16  18
HETATM   18  C8  UNL     1      -2.849  10.590  20.781  1.00  0.00     0.034 A 
HETATM   19  C9  UNL     1      -1.467  10.555  20.909  1.00  0.00     0.031 A 
HETATM   20  C10 UNL     1      -0.849  10.544  22.129  1.00  0.00     0.027 A 
HETATM   21  C11 UNL     1      -1.609  10.566  23.277  1.00  0.00     0.079 A 
HETATM   22  C12 UNL     1      -2.974  10.601  23.207  1.00  0.00     0.027 A 
HETATM   23  C13 UNL     1      -3.582  10.612  21.944  1.00  0.00     0.031 A 
BRANCH  21  24
HETATM   24  S2  UNL     1      -0.813  10.552  24.852  1.00  0.00     0.256 S 
HETATM   25  O5  UNL     1      -1.763  11.080  25.865  1.00  0.00    -0.201 OA
HETATM   26  O6  UNL     1       0.384  11.471  24.750  1.00  0.00    -0.201 OA
BRANCH  24  27
HETATM   27  N3  UNL     1      -0.283   8.948  25.221  1.00  0.00    -0.324 N 
ATOM     28  H32 UNL     1       0.486   8.472  24.750  1.00  0.00     0.169 HD
ATOM     29  H31 UNL     1      -0.854   8.562  25.972  1.00  0.00     0.169 HD
ENDBRANCH  24  27
ENDBRANCH  21  24
ENDBRANCH  16  18
ENDBRANCH  13  14
ENDBRANCH   1  13
BRANCH   1  30
HETATM   30  C14 UNL     1      -6.191   9.524  18.024  1.00  0.00     0.084 A 
HETATM   31  C15 UNL     1      -7.013   9.559  19.160  1.00  0.00     0.033 A 
HETATM   32  C16 UNL     1      -7.334   8.428  19.879  1.00  0.00     0.003 A 
HETATM   33  C17 UNL     1      -6.832   7.215  19.469  1.00  0.00     0.010 A 
HETATM   34  C18 UNL     1      -6.034   7.145  18.376  1.00  0.00    -0.021 A 
HETATM   35  C19 UNL     1      -5.499   5.827  17.946  1.00  0.00     0.051 C 
HETATM   36  C20 UNL     1      -5.719   8.321  17.654  1.00  0.00     0.149 A 
HETATM   37  F1  UNL     1      -4.909   8.138  16.611  1.00  0.00    -0.203 F 
ENDBRANCH   1  30
TORSDOF 9
ENDMDL
MODEL 4
REMARK VINA RESULT: -7.971269259      3.122      8.352
REMARK  9 active torsions:
REMARK  status: ('A' for Active; 'I' for Inactive)
REMARK    1  A    between atoms: O1_2  and  C2_3 
REMARK    2  A    between atoms: C5_6  and  S1_7 
REMARK    3  A    between atoms: S1_7  and  N1_10 
REMARK    4  A    between atoms: N1_10  and  C6_11 
REMARK    5  A    between atoms: N1_10  and  C14_28 
REMARK    6  A    between atoms: C6_11  and  C7_12 
REMARK       I    between atoms: C7_12  and  N2_14 
REMARK    7  A    between atoms: N2_14  and  C8_16 
REMARK    8  A    between atoms: C11_19  and  S2_20 
REMARK    9  A    between atoms: S2_20  and  N3_21 
ROOT
HETATM    1  N1  UNL     1      -3.255  11.521  23.214  1.00  0.00    -0.260 N 
ENDROOT
BRANCH   1   2
HETATM    2  S1  UNL     1      -2.077  11.873  24.428  1.00  0.00     0.265 S 
HETATM    3  O2  UNL     1      -0.733  12.188  23.790  1.00  0.00    -0.200 OA
HETATM    4  O3  UNL     1      -2.472  13.094  25.184  1.00  0.00    -0.200 OA
BRANCH   2   5
HETATM    5  C5  UNL     1      -1.823  10.508  25.490  1.00  0.00     0.080 A 
HETATM    6  C4  UNL     1      -2.656  10.224  26.551  1.00  0.00     0.028 A 
HETATM    7  C3  UNL     1      -2.457   9.148  27.389  1.00  0.00     0.038 A 
HETATM    8  C2  UNL     1      -1.392   8.295  27.193  1.00  0.00     0.068 A 
HETATM    9  C22 UNL     1      -0.549   8.563  26.138  1.00  0.00     0.038 A 
HETATM   10  C21 UNL     1      -0.762   9.642  25.309  1.00  0.00     0.028 A 
BRANCH   8  11
HETATM   11  O1  UNL     1      -1.198   7.214  28.042  1.00  0.00    -0.356 OA
HETATM   12  C1  UNL     1      -0.604   6.024  27.616  1.00  0.00     0.210 C 
ENDBRANCH   8  11
ENDBRANCH   2   5
ENDBRANCH   1   2
BRANCH   1  13
HETATM   13  C6  UNL     1      -3.214  10.256  22.539  1.00  0.00     0.245 C 
BRANCH  13  14
HETATM   14  C7  UNL     1      -3.206  10.340  21.072  1.00  0.00     0.241 C 
HETATM   15  O4  UNL     1      -2.207  10.658  20.415  1.00  0.00    -0.271 OA
HETATM   16  N2  UNL     1      -4.406  10.042  20.362  1.00  0.00    -0.326 N 
ATOM     17  H2  UNL     1      -5.210   9.790  20.935  1.00  0.00     0.169 HD
BRANCH  16  18
HETATM   18  C8  UNL     1      -4.621  10.053  18.978  1.00  0.00     0.034 A 
HETATM   19  C9  UNL     1      -4.600  11.287  18.342  1.00  0.00     0.031 A 
HETATM   20  C10 UNL     1      -4.816  11.417  16.998  1.00  0.00     0.027 A 
HETATM   21  C11 UNL     1      -5.062  10.297  16.237  1.00  0.00     0.079 A 
HETATM   22  C12 UNL     1      -5.093   9.057  16.813  1.00  0.00     0.027 A 
HETATM   23  C13 UNL     1      -4.869   8.952  18.193  1.00  0.00     0.031 A 
BRANCH  21  24
HETATM   24  S2  UNL     1      -5.339  10.463  14.502  1.00  0.00     0.256 S 
HETATM   25  O5  UNL     1      -4.036  10.730  13.840  1.00  0.00    -0.201 OA
HETATM   26  O6  UNL     1      -6.259  11.649  14.313  1.00  0.00    -0.201 OA
BRANCH  24  27
HETATM   27  N3  UNL     1      -6.103   9.034  13.896  1.00  0.00    -0.324 N 
ATOM     28  H32 UNL     1      -5.642   8.339  13.311  1.00  0.00     0.169 HD
ATOM     29  H31 UNL     1      -7.071   9.002  14.214  1.00  0.00     0.169 HD
ENDBRANCH  24  27
ENDBRANCH  21  24
ENDBRANCH  16  18
ENDBRANCH  13  14
ENDBRANCH   1  13
BRANCH   1  30
HETATM   30  C14 UNL     1      -4.188  12.482  22.777  1.00  0.00     0.084 A 
HETATM   31  C15 UNL     1      -5.507  12.399  23.249  1.00  0.00     0.033 A 
HETATM   32  C16 UNL     1      -6.480  13.307  22.893  1.00  0.00     0.003 A 
HETATM   33  C17 UNL     1      -6.151  14.337  22.044  1.00  0.00     0.010 A 
HETATM   34  C18 UNL     1      -4.886  14.447  21.569  1.00  0.00    -0.021 A 
HETATM   35  C19 UNL     1      -4.545  15.565  20.651  1.00  0.00     0.051 C 
HETATM   36  C20 UNL     1      -3.903  13.501  21.949  1.00  0.00     0.149 A 
HETATM   37  F1  UNL     1      -2.702  13.693  21.404  1.00  0.00    -0.203 F 
ENDBRANCH   1  30
TORSDOF 9
ENDMDL
MODEL 5
REMARK VINA RESULT: -7.969712695      3.158      5.486
REMARK  9 active torsions:
REMARK  status: ('A' for Active; 'I' for Inactive)
REMARK    1  A    between atoms: O1_2  and  C2_3 
REMARK    2  A    between atoms: C5_6  and  S1_7 
REMARK    3  A    between atoms: S1_7  and  N1_10 
REMARK    4  A    between atoms: N1_10  and  C6_11 
REMARK    5  A    between atoms: N1_10  and  C14_28 
REMARK    6  A    between atoms: C6_11  and  C7_12 
REMARK       I    between atoms: C7_12  and  N2_14 
REMARK    7  A    between atoms: N2_14  and  C8_16 
REMARK    8  A    between atoms: C11_19  and  S2_20 
REMARK    9  A    between atoms: S2_20  and  N3_21 
ROOT
HETATM    1  N1  UNL     1      -6.904   9.866  17.441  1.00  0.00    -0.260 N 
ENDROOT
BRANCH   1   2
HETATM    2  S1  UNL     1      -6.653  10.671  15.933  1.00  0.00     0.265 S 
HETATM    3  O2  UNL     1      -6.770   9.688  14.779  1.00  0.00    -0.200 OA
HETATM    4  O3  UNL     1      -7.716  11.692  15.715  1.00  0.00    -0.200 OA
BRANCH   2   5
HETATM    5  C5  UNL     1      -5.055  11.371  15.838  1.00  0.00     0.080 A 
HETATM    6  C4  UNL     1      -4.166  11.066  14.830  1.00  0.00     0.028 A 
HETATM    7  C3  UNL     1      -2.905  11.617  14.753  1.00  0.00     0.038 A 
HETATM    8  C2  UNL     1      -2.475  12.516  15.706  1.00  0.00     0.068 A 
HETATM    9  C22 UNL     1      -3.350  12.834  16.721  1.00  0.00     0.038 A 
HETATM   10  C21 UNL     1      -4.606  12.274  16.783  1.00  0.00     0.028 A 
BRANCH   8  11
HETATM   11  O1  UNL     1      -1.203  13.067  15.621  1.00  0.00    -0.356 OA
HETATM   12  C1  UNL     1      -0.220  12.555  14.773  1.00  0.00     0.210 C 
ENDBRANCH   8  11
ENDBRANCH   2   5
ENDBRANCH   1   2
BRANCH   1  13
HETATM   13  C6  UNL     1      -7.581  10.554  18.502  1.00  0.00     0.245 C 
BRANCH  13  14
HETATM   14  C7  UNL     1      -6.920  10.470  19.812  1.00  0.00     0.241 C 
HETATM   15  O4  UNL     1      -7.337   9.766  20.739  1.00  0.00    -0.271 OA
HETATM   16  N2  UNL     1      -5.739  11.237  20.034  1.00  0.00    -0.326 N 
ATOM     17  H2  UNL     1      -5.427  11.810  19.250  1.00  0.00     0.169 HD
BRANCH  16  18
HETATM   18  C8  UNL     1      -4.952  11.304  21.190  1.00  0.00     0.034 A 
HETATM   19  C9  UNL     1      -3.898  10.407  21.293  1.00  0.00     0.031 A 
HETATM   20  C10 UNL     1      -3.076  10.371  22.386  1.00  0.00     0.027 A 
HETATM   21  C11 UNL     1      -3.288  11.248  23.426  1.00  0.00     0.079 A 
HETATM   22  C12 UNL     1      -4.311  12.154  23.374  1.00  0.00     0.027 A 
HETATM   23  C13 UNL     1      -5.140  12.168  22.243  1.00  0.00     0.031 A 
BRANCH  21  24
HETATM   24  S2  UNL     1      -2.228  11.205  24.835  1.00  0.00     0.256 S 
HETATM   25  O5  UNL     1      -2.528   9.974  25.613  1.00  0.00    -0.201 OA
HETATM   26  O6  UNL     1      -2.551  12.424  25.669  1.00  0.00    -0.201 OA
BRANCH  24  27
HETATM   27  N3  UNL     1      -0.577  11.273  24.323  1.00  0.00    -0.324 N 
ATOM     28  H32 UNL     1      -0.047  12.135  24.203  1.00  0.00     0.169 HD
ATOM     29  H31 UNL     1      -0.228  10.328  24.165  1.00  0.00     0.169 HD
ENDBRANCH  24  27
ENDBRANCH  21  24
ENDBRANCH  16  18
ENDBRANCH  13  14
ENDBRANCH   1  13
BRANCH   1  30
HETATM   30  C14 UNL     1      -6.361   8.594  17.708  1.00  0.00     0.084 A 
HETATM   31  C15 UNL     1      -5.092   8.518  18.300  1.00  0.00     0.033 A 
HETATM   32  C16 UNL     1      -4.492   7.318  18.617  1.00  0.00     0.003 A 
HETATM   33  C17 UNL     1      -5.160   6.148  18.345  1.00  0.00     0.010 A 
HETATM   34  C18 UNL     1      -6.388   6.185  17.773  1.00  0.00    -0.021 A 
HETATM   35  C19 UNL     1      -7.097   4.911  17.484  1.00  0.00     0.051 C 
HETATM   36  C20 UNL     1      -6.983   7.430  17.456  1.00  0.00     0.149 A 
HETATM   37  F1  UNL     1      -8.181   7.346  16.876  1.00  0.00    -0.203 F 
ENDBRANCH   1  30
TORSDOF 9
ENDMDL
