MODEL 1
REMARK VINA RESULT: -8.254230091      0.000      0.000
REMARK  12 active torsions:
REMARK  status: ('A' for Active; 'I' for Inactive)
REMARK    1  A    between atoms: C2_2  and  O1_3 
REMARK    2  A    between atoms: O1_3  and  C3_4 
REMARK    3  A    between atoms: C3_4  and  C4_6 
REMARK    4  A    between atoms: C4_6  and  N1_7 
REMARK    5  A    between atoms: C4_6  and  C18_33 
REMARK    6  A    between atoms: N1_7  and  C5_9 
REMARK    7  A    between atoms: C5_9  and  O3_10 
REMARK    8  A    between atoms: C5_9  and  C6_12 
REMARK    9  A    between atoms: N2_17  and  O4_18 
REMARK   10  A    between atoms: C11_20  and  N3_21 
REMARK   11  A    between atoms: N3_21  and  S1_23 
REMARK   12  A    between atoms: S1_23  and  C12_26 
ROOT
HETATM    1  C6  UNL     1      -4.611  13.455  23.429  1.00  0.00     0.067 A 
HETATM    2  C7  UNL     1      -5.028  14.495  24.211  1.00  0.00    -0.042 A 
HETATM    3  C8  UNL     1      -4.136  15.566  24.684  1.00  0.00     0.049 C 
HETATM    4  C9  UNL     1      -6.358  14.602  24.653  1.00  0.00     0.027 A 
HETATM    5  C10 UNL     1      -7.226  13.615  24.267  1.00  0.00     0.125 A 
HETATM    6  N2  UNL     1      -6.807  12.587  23.492  1.00  0.00    -0.218 N 
HETATM    7  C11 UNL     1      -5.562  12.465  23.061  1.00  0.00     0.157 A 
ENDROOT
BRANCH   1   8
HETATM    8  C5  UNL     1      -3.236  13.262  23.048  1.00  0.00     0.151 C 
BRANCH   8   9
HETATM    9  N1  UNL     1      -2.145  12.664  23.665  1.00  0.00    -0.356 N 
ATOM     10  H1  UNL     1      -1.434  13.236  24.121  1.00  0.00     0.162 HD
BRANCH   9  11
HETATM   11  C4  UNL     1      -2.023  11.182  23.656  1.00  0.00     0.186 C 
BRANCH  11  12
HETATM   12  C3  UNL     1      -1.816  10.686  25.031  1.00  0.00     0.282 C 
HETATM   13  O2  UNL     1      -2.105  11.442  25.991  1.00  0.00    -0.263 OA
BRANCH  12  14
HETATM   14  O1  UNL     1      -1.320   9.423  25.308  1.00  0.00    -0.320 OA
BRANCH  14  15
HETATM   15  C2  UNL     1      -0.611   9.202  26.535  1.00  0.00     0.174 C 
HETATM   16  C1  UNL     1      -1.357   8.218  27.383  1.00  0.00     0.034 C 
ENDBRANCH  14  15
ENDBRANCH  12  14
ENDBRANCH  11  12
BRANCH  11  17
HETATM   17  C18 UNL     1      -0.863  10.759  22.808  1.00  0.00     0.010 C 
HETATM   18  C19 UNL     1      -1.288  10.291  21.437  1.00  0.00     0.012 C 
HETATM   19  C20 UNL     1       0.135  11.877  22.611  1.00  0.00     0.012 C 
ENDBRANCH  11  17
ENDBRANCH   9  11
ENDBRANCH   8   9
BRANCH   8  20
HETATM   20  O3  UNL     1      -2.924  13.761  21.854  1.00  0.00    -0.346 OA
ATOM     21  H3  UNL     1      -2.743  14.693  21.893  1.00  0.00     0.219 HD
ENDBRANCH   8  20
ENDBRANCH   1   8
BRANCH   7  22
HETATM   22  N3  UNL     1      -5.233  11.414  22.214  1.00  0.00    -0.263 N 
ATOM     23  H3  UNL     1      -4.904  10.561  22.668  1.00  0.00     0.180 HD
BRANCH  22  24
HETATM   24  S1  UNL     1      -5.311  11.370  20.512  1.00  0.00     0.264 S 
HETATM   25  O5  UNL     1      -6.421  12.193  19.916  1.00  0.00    -0.200 OA
HETATM   26  O6  UNL     1      -4.020  11.817  19.887  1.00  0.00    -0.200 OA
BRANCH  24  27
HETATM   27  C12 UNL     1      -5.587   9.732  19.893  1.00  0.00     0.080 A 
HETATM   28  C13 UNL     1      -4.577   9.030  19.270  1.00  0.00     0.026 A 
HETATM   29  C14 UNL     1      -4.794   7.763  18.782  1.00  0.00     0.020 A 
HETATM   30  C15 UNL     1      -6.029   7.133  18.891  1.00  0.00     0.011 A 
HETATM   31 BR1  UNL     1      -6.292   5.376  18.201  1.00  0.00    -0.051 Br
HETATM   32  C16 UNL     1      -7.025   7.852  19.515  1.00  0.00     0.020 A 
HETATM   33  C17 UNL     1      -6.818   9.124  20.009  1.00  0.00     0.026 A 
ENDBRANCH  24  27
ENDBRANCH  22  24
ENDBRANCH   7  22
BRANCH   6  34
HETATM   34  O4  UNL     1      -7.786  11.659  23.199  1.00  0.00    -0.281 OA
ATOM     35  H4  UNL     1      -7.910  10.996  23.867  1.00  0.00     0.245 HD
ENDBRANCH   6  34
TORSDOF 12
ENDMDL
MODEL 2
REMARK VINA RESULT: -7.939482755      1.028      1.266
REMARK  12 active torsions:
REMARK  status: ('A' for Active; 'I' for Inactive)
REMARK    1  A    between atoms: C2_2  and  O1_3 
REMARK    2  A    between atoms: O1_3  and  C3_4 
REMARK    3  A    between atoms: C3_4  and  C4_6 
REMARK    4  A    between atoms: C4_6  and  N1_7 
REMARK    5  A    between atoms: C4_6  and  C18_33 
REMARK    6  A    between atoms: N1_7  and  C5_9 
REMARK    7  A    between atoms: C5_9  and  O3_10 
REMARK    8  A    between atoms: C5_9  and  C6_12 
REMARK    9  A    between atoms: N2_17  and  O4_18 
REMARK   10  A    between atoms: C11_20  and  N3_21 
REMARK   11  A    between atoms: N3_21  and  S1_23 
REMARK   12  A    between atoms: S1_23  and  C12_26 
ROOT
HETATM    1  C6  UNL     1      -4.765  12.862  24.226  1.00  0.00     0.067 A 
HETATM    2  C7  UNL     1      -4.920  14.027  24.924  1.00  0.00    -0.042 A 
HETATM    3  C8  UNL     1      -3.999  14.470  25.984  1.00  0.00     0.049 C 
HETATM    4  C9  UNL     1      -6.008  14.887  24.696  1.00  0.00     0.027 A 
HETATM    5  C10 UNL     1      -6.913  14.509  23.740  1.00  0.00     0.125 A 
HETATM    6  N2  UNL     1      -6.754  13.354  23.052  1.00  0.00    -0.218 N 
HETATM    7  C11 UNL     1      -5.738  12.529  23.246  1.00  0.00     0.157 A 
ENDROOT
BRANCH   1   8
HETATM    8  C5  UNL     1      -3.720  11.912  24.510  1.00  0.00     0.151 C 
BRANCH   8   9
HETATM    9  N1  UNL     1      -2.369  11.851  24.197  1.00  0.00    -0.356 N 
ATOM     10  H1  UNL     1      -1.809  12.704  24.166  1.00  0.00     0.162 HD
BRANCH   9  11
HETATM   11  C4  UNL     1      -1.744  10.533  23.909  1.00  0.00     0.186 C 
BRANCH  11  12
HETATM   12  C3  UNL     1      -1.156   9.974  25.143  1.00  0.00     0.282 C 
HETATM   13  O2  UNL     1       0.062  10.177  25.373  1.00  0.00    -0.263 OA
BRANCH  12  14
HETATM   14  O1  UNL     1      -1.889   9.237  26.058  1.00  0.00    -0.320 OA
BRANCH  14  15
HETATM   15  C2  UNL     1      -1.229   8.689  27.206  1.00  0.00     0.174 C 
HETATM   16  C1  UNL     1      -2.162   7.780  27.944  1.00  0.00     0.034 C 
ENDBRANCH  14  15
ENDBRANCH  12  14
ENDBRANCH  11  12
BRANCH  11  17
HETATM   17  C18 UNL     1      -0.664  10.681  22.881  1.00  0.00     0.010 C 
HETATM   18  C19 UNL     1      -1.017  10.018  21.571  1.00  0.00     0.012 C 
HETATM   19  C20 UNL     1      -0.358  12.130  22.582  1.00  0.00     0.012 C 
ENDBRANCH  11  17
ENDBRANCH   9  11
ENDBRANCH   8   9
BRANCH   8  20
HETATM   20  O3  UNL     1      -4.118  10.859  25.219  1.00  0.00    -0.346 OA
ATOM     21  H3  UNL     1      -3.418  10.504  25.755  1.00  0.00     0.219 HD
ENDBRANCH   8  20
ENDBRANCH   1   8
BRANCH   7  22
HETATM   22  N3  UNL     1      -5.616  11.397  22.450  1.00  0.00    -0.263 N 
ATOM     23  H3  UNL     1      -5.803  10.505  22.909  1.00  0.00     0.180 HD
BRANCH  22  24
HETATM   24  S1  UNL     1      -5.193  11.312  20.801  1.00  0.00     0.264 S 
HETATM   25  O5  UNL     1      -5.937  12.274  19.915  1.00  0.00    -0.200 OA
HETATM   26  O6  UNL     1      -3.722  11.539  20.594  1.00  0.00    -0.200 OA
BRANCH  24  27
HETATM   27  C12 UNL     1      -5.522   9.715  20.103  1.00  0.00     0.080 A 
HETATM   28  C13 UNL     1      -4.547   9.031  19.408  1.00  0.00     0.026 A 
HETATM   29  C14 UNL     1      -4.806   7.797  18.860  1.00  0.00     0.020 A 
HETATM   30  C15 UNL     1      -6.048   7.184  18.976  1.00  0.00     0.011 A 
HETATM   31 BR1  UNL     1      -6.369   5.473  18.201  1.00  0.00    -0.051 Br
HETATM   32  C16 UNL     1      -7.008   7.885  19.673  1.00  0.00     0.020 A 
HETATM   33  C17 UNL     1      -6.760   9.124  20.229  1.00  0.00     0.026 A 
ENDBRANCH  24  27
ENDBRANCH  22  24
ENDBRANCH   7  22
BRANCH   6  34
HETATM   34  O4  UNL     1      -7.753  13.094  22.136  1.00  0.00    -0.281 OA
ATOM     35  H4  UNL     1      -7.555  12.391  21.529  1.00  0.00     0.245 HD
ENDBRANCH   6  34
TORSDOF 12
ENDMDL
MODEL 3
REMARK VINA RESULT: -7.661637573      1.358      2.472
REMARK  12 active torsions:
REMARK  status: ('A' for Active; 'I' for Inactive)
REMARK    1  A    between atoms: C2_2  and  O1_3 
REMARK    2  A    between atoms: O1_3  and  C3_4 
REMARK    3  A    between atoms: C3_4  and  C4_6 
REMARK    4  A    between atoms: C4_6  and  N1_7 
REMARK    5  A    between atoms: C4_6  and  C18_33 
REMARK    6  A    between atoms: N1_7  and  C5_9 
REMARK    7  A    between atoms: C5_9  and  O3_10 
REMARK    8  A    between atoms: C5_9  and  C6_12 
REMARK    9  A    between atoms: N2_17  and  O4_18 
REMARK   10  A    between atoms: C11_20  and  N3_21 
REMARK   11  A    between atoms: N3_21  and  S1_23 
REMARK   12  A    between atoms: S1_23  and  C12_26 
ROOT
HETATM    1  C6  UNL     1      -4.714  13.463  24.630  1.00  0.00     0.067 A 
HETATM    2  C7  UNL     1      -5.021  14.495  25.473  1.00  0.00    -0.042 A 
HETATM    3  C8  UNL     1      -4.024  15.199  26.295  1.00  0.00     0.049 C 
HETATM    4  C9  UNL     1      -6.342  14.947  25.638  1.00  0.00     0.027 A 
HETATM    5  C10 UNL     1      -7.316  14.307  24.919  1.00  0.00     0.125 A 
HETATM    6  N2  UNL     1      -7.006  13.285  24.087  1.00  0.00    -0.218 N 
HETATM    7  C11 UNL     1      -5.771  12.843  23.911  1.00  0.00     0.157 A 
ENDROOT
BRANCH   1   8
HETATM    8  C5  UNL     1      -3.389  12.910  24.518  1.00  0.00     0.151 C 
BRANCH   8   9
HETATM    9  N1  UNL     1      -2.681  11.963  25.246  1.00  0.00    -0.356 N 
ATOM     10  H1  UNL     1      -2.821  11.878  26.253  1.00  0.00     0.162 HD
BRANCH   9  11
HETATM   11  C4  UNL     1      -1.719  11.072  24.544  1.00  0.00     0.186 C 
BRANCH  11  12
HETATM   12  C3  UNL     1      -2.278  10.653  23.243  1.00  0.00     0.282 C 
HETATM   13  O2  UNL     1      -3.325   9.960  23.235  1.00  0.00    -0.263 OA
BRANCH  12  14
HETATM   14  O1  UNL     1      -1.700  10.993  22.031  1.00  0.00    -0.320 OA
BRANCH  14  15
HETATM   15  C2  UNL     1      -0.276  10.907  21.886  1.00  0.00     0.174 C 
HETATM   16  C1  UNL     1       0.281  12.249  21.524  1.00  0.00     0.034 C 
ENDBRANCH  14  15
ENDBRANCH  12  14
ENDBRANCH  11  12
BRANCH  11  17
HETATM   17  C18 UNL     1      -1.440   9.853  25.367  1.00  0.00     0.010 C 
HETATM   18  C19 UNL     1       0.032   9.668  25.647  1.00  0.00     0.012 C 
HETATM   19  C20 UNL     1      -2.149   9.893  26.701  1.00  0.00     0.012 C 
ENDBRANCH  11  17
ENDBRANCH   9  11
ENDBRANCH   8   9
BRANCH   8  20
HETATM   20  O3  UNL     1      -2.675  13.404  23.511  1.00  0.00    -0.346 OA
ATOM     21  H3  UNL     1      -3.182  13.467  22.710  1.00  0.00     0.219 HD
ENDBRANCH   8  20
ENDBRANCH   1   8
BRANCH   7  22
HETATM   22  N3  UNL     1      -5.533  11.833  22.987  1.00  0.00    -0.263 N 
ATOM     23  H3  UNL     1      -5.358  10.906  23.375  1.00  0.00     0.180 HD
BRANCH  22  24
HETATM   24  S1  UNL     1      -5.498  11.949  21.287  1.00  0.00     0.264 S 
HETATM   25  O5  UNL     1      -6.651  12.710  20.689  1.00  0.00    -0.200 OA
HETATM   26  O6  UNL     1      -4.226  12.586  20.802  1.00  0.00    -0.200 OA
BRANCH  24  27
HETATM   27  C12 UNL     1      -5.555  10.360  20.502  1.00  0.00     0.080 A 
HETATM   28  C13 UNL     1      -4.476   9.885  19.787  1.00  0.00     0.026 A 
HETATM   29  C14 UNL     1      -4.524   8.656  19.171  1.00  0.00     0.020 A 
HETATM   30  C15 UNL     1      -5.649   7.842  19.238  1.00  0.00     0.011 A 
HETATM   31 BR1  UNL     1      -5.678   6.146  18.370  1.00  0.00    -0.051 Br
HETATM   32  C16 UNL     1      -6.716   8.336  19.956  1.00  0.00     0.020 A 
HETATM   33  C17 UNL     1      -6.678   9.568  20.579  1.00  0.00     0.026 A 
ENDBRANCH  24  27
ENDBRANCH  22  24
ENDBRANCH   7  22
BRANCH   6  34
HETATM   34  O4  UNL     1      -8.091  12.724  23.444  1.00  0.00    -0.281 OA
ATOM     35  H4  UNL     1      -8.928  12.909  23.853  1.00  0.00     0.245 HD
ENDBRANCH   6  34
TORSDOF 12
ENDMDL
MODEL 4
REMARK VINA RESULT: -7.650638413      1.278      1.499
REMARK  12 active torsions:
REMARK  status: ('A' for Active; 'I' for Inactive)
REMARK    1  A    between atoms: C2_2  and  O1_3 
REMARK    2  A    between atoms: O1_3  and  C3_4 
REMARK    3  A    between atoms: C3_4  and  C4_6 
REMARK    4  A    between atoms: C4_6  and  N1_7 
REMARK    5  A    between atoms: C4_6  and  C18_33 
REMARK    6  A    between atoms: N1_7  and  C5_9 
REMARK    7  A    between atoms: C5_9  and  O3_10 
REMARK    8  A    between atoms: C5_9  and  C6_12 
REMARK    9  A    between atoms: N2_17  and  O4_18 
REMARK   10  A    between atoms: C11_20  and  N3_21 
REMARK   11  A    between atoms: N3_21  and  S1_23 
REMARK   12  A    between atoms: S1_23  and  C12_26 
ROOT
HETATM    1  C6  UNL     1      -5.355  13.125  24.605  1.00  0.00     0.067 A 
HETATM    2  C7  UNL     1      -5.477  14.199  25.443  1.00  0.00    -0.042 A 
HETATM    3  C8  UNL     1      -4.407  14.650  26.348  1.00  0.00     0.049 C 
HETATM    4  C9  UNL     1      -6.665  14.946  25.521  1.00  0.00     0.027 A 
HETATM    5  C10 UNL     1      -7.704  14.552  24.721  1.00  0.00     0.125 A 
HETATM    6  N2  UNL     1      -7.578  13.487  23.894  1.00  0.00    -0.218 N 
HETATM    7  C11 UNL     1      -6.470  12.770  23.799  1.00  0.00     0.157 A 
ENDROOT
BRANCH   1   8
HETATM    8  C5  UNL     1      -4.190  12.279  24.579  1.00  0.00     0.151 C 
BRANCH   8   9
HETATM    9  N1  UNL     1      -2.950  12.375  23.961  1.00  0.00    -0.356 N 
ATOM     10  H1  UNL     1      -2.517  13.288  23.816  1.00  0.00     0.162 HD
BRANCH   9  11
HETATM   11  C4  UNL     1      -2.259  11.137  23.514  1.00  0.00     0.186 C 
BRANCH  11  12
HETATM   12  C3  UNL     1      -1.379  10.635  24.588  1.00  0.00     0.282 C 
HETATM   13  O2  UNL     1      -0.275  11.204  24.774  1.00  0.00    -0.263 OA
BRANCH  12  14
HETATM   14  O1  UNL     1      -1.719   9.568  25.402  1.00  0.00    -0.320 OA
BRANCH  14  15
HETATM   15  C2  UNL     1      -0.873   9.234  26.511  1.00  0.00     0.174 C 
HETATM   16  C1  UNL     1      -1.608   8.339  27.459  1.00  0.00     0.034 C 
ENDBRANCH  14  15
ENDBRANCH  12  14
ENDBRANCH  11  12
BRANCH  11  17
HETATM   17  C18 UNL     1      -1.430  11.412  22.297  1.00  0.00     0.010 C 
HETATM   18  C19 UNL     1      -1.307  10.207  21.396  1.00  0.00     0.012 C 
HETATM   19  C20 UNL     1      -1.998  12.538  21.464  1.00  0.00     0.012 C 
ENDBRANCH  11  17
ENDBRANCH   9  11
ENDBRANCH   8   9
BRANCH   8  20
HETATM   20  O3  UNL     1      -4.310  11.162  25.290  1.00  0.00    -0.346 OA
ATOM     21  H3  UNL     1      -4.895  10.537  24.878  1.00  0.00     0.219 HD
ENDBRANCH   8  20
ENDBRANCH   1   8
BRANCH   7  22
HETATM   22  N3  UNL     1      -6.404  11.734  22.876  1.00  0.00    -0.263 N 
ATOM     23  H3  UNL     1      -6.352  10.792  23.265  1.00  0.00     0.180 HD
BRANCH  22  24
HETATM   24  S1  UNL     1      -6.401  11.839  21.175  1.00  0.00     0.264 S 
HETATM   25  O5  UNL     1      -7.699  12.310  20.576  1.00  0.00    -0.200 OA
HETATM   26  O6  UNL     1      -5.310  12.745  20.678  1.00  0.00    -0.200 OA
BRANCH  24  27
HETATM   27  C12 UNL     1      -6.095  10.272  20.404  1.00  0.00     0.080 A 
HETATM   28  C13 UNL     1      -4.876   9.996  19.820  1.00  0.00     0.026 A 
HETATM   29  C14 UNL     1      -4.642   8.784  19.215  1.00  0.00     0.020 A 
HETATM   30  C15 UNL     1      -5.611   7.788  19.161  1.00  0.00     0.011 A 
HETATM   31 BR1  UNL     1      -5.249   6.121  18.312  1.00  0.00    -0.051 Br
HETATM   32  C16 UNL     1      -6.821   8.084  19.749  1.00  0.00     0.020 A 
HETATM   33  C17 UNL     1      -7.067   9.298  20.360  1.00  0.00     0.026 A 
ENDBRANCH  24  27
ENDBRANCH  22  24
ENDBRANCH   7  22
BRANCH   6  34
HETATM   34  O4  UNL     1      -8.712  13.196  23.163  1.00  0.00    -0.281 OA
ATOM     35  H4  UNL     1      -9.417  12.809  23.669  1.00  0.00     0.245 HD
ENDBRANCH   6  34
TORSDOF 12
ENDMDL
MODEL 5
REMARK VINA RESULT: -7.616193155      3.311      6.579
REMARK  12 active torsions:
REMARK  status: ('A' for Active; 'I' for Inactive)
REMARK    1  A    between atoms: C2_2  and  O1_3 
REMARK    2  A    between atoms: O1_3  and  C3_4 
REMARK    3  A    between atoms: C3_4  and  C4_6 
REMARK    4  A    between atoms: C4_6  and  N1_7 
REMARK    5  A    between atoms: C4_6  and  C18_33 
REMARK    6  A    between atoms: N1_7  and  C5_9 
REMARK    7  A    between atoms: C5_9  and  O3_10 
REMARK    8  A    between atoms: C5_9  and  C6_12 
REMARK    9  A    between atoms: N2_17  and  O4_18 
REMARK   10  A    between atoms: C11_20  and  N3_21 
REMARK   11  A    between atoms: N3_21  and  S1_23 
REMARK   12  A    between atoms: S1_23  and  C12_26 
ROOT
HETATM    1  C6  UNL     1      -3.556  12.062  21.181  1.00  0.00     0.067 A 
HETATM    2  C7  UNL     1      -4.142  12.168  19.951  1.00  0.00    -0.042 A 
HETATM    3  C8  UNL     1      -5.466  11.612  19.629  1.00  0.00     0.049 C 
HETATM    4  C9  UNL     1      -3.497  12.804  18.876  1.00  0.00     0.027 A 
HETATM    5  C10 UNL     1      -2.248  13.316  19.111  1.00  0.00     0.125 A 
HETATM    6  N2  UNL     1      -1.672  13.206  20.332  1.00  0.00    -0.218 N 
HETATM    7  C11 UNL     1      -2.260  12.616  21.360  1.00  0.00     0.157 A 
ENDROOT
BRANCH   1   8
HETATM    8  C5  UNL     1      -4.146  11.326  22.270  1.00  0.00     0.151 C 
BRANCH   8   9
HETATM    9  N1  UNL     1      -5.083  11.644  23.244  1.00  0.00    -0.356 N 
ATOM     10  H1  UNL     1      -5.540  10.905  23.779  1.00  0.00     0.162 HD
BRANCH   9  11
HETATM   11  C4  UNL     1      -5.415  13.071  23.500  1.00  0.00     0.186 C 
BRANCH  11  12
HETATM   12  C3  UNL     1      -4.593  13.586  24.614  1.00  0.00     0.282 C 
HETATM   13  O2  UNL     1      -4.868  13.217  25.783  1.00  0.00    -0.263 OA
BRANCH  12  14
HETATM   14  O1  UNL     1      -3.531  14.455  24.426  1.00  0.00    -0.320 OA
BRANCH  14  15
HETATM   15  C2  UNL     1      -3.757  15.868  24.521  1.00  0.00     0.174 C 
HETATM   16  C1  UNL     1      -3.784  16.472  23.151  1.00  0.00     0.034 C 
ENDBRANCH  14  15
ENDBRANCH  12  14
ENDBRANCH  11  12
BRANCH  11  17
HETATM   17  C18 UNL     1      -6.861  13.215  23.859  1.00  0.00     0.010 C 
HETATM   18  C19 UNL     1      -7.357  14.633  23.709  1.00  0.00     0.012 C 
HETATM   19  C20 UNL     1      -7.749  12.338  23.006  1.00  0.00     0.012 C 
ENDBRANCH  11  17
ENDBRANCH   9  11
ENDBRANCH   8   9
BRANCH   8  20
HETATM   20  O3  UNL     1      -3.710  10.075  22.384  1.00  0.00    -0.346 OA
ATOM     21  H3  UNL     1      -3.259   9.927  23.207  1.00  0.00     0.219 HD
ENDBRANCH   8  20
ENDBRANCH   1   8
BRANCH   7  22
HETATM   22  N3  UNL     1      -1.625  12.607  22.596  1.00  0.00    -0.263 N 
ATOM     23  H3  UNL     1      -1.947  13.303  23.268  1.00  0.00     0.180 HD
BRANCH  22  24
HETATM   24  S1  UNL     1      -0.376  11.577  23.130  1.00  0.00     0.264 S 
HETATM   25  O5  UNL     1       0.098  10.585  22.102  1.00  0.00    -0.200 OA
HETATM   26  O6  UNL     1       0.820  12.355  23.602  1.00  0.00    -0.200 OA
BRANCH  24  27
HETATM   27  C12 UNL     1      -0.866  10.586  24.515  1.00  0.00     0.080 A 
HETATM   28  C13 UNL     1      -0.166   9.447  24.854  1.00  0.00     0.026 A 
HETATM   29  C14 UNL     1      -0.552   8.673  25.923  1.00  0.00     0.020 A 
HETATM   30  C15 UNL     1      -1.654   8.997  26.708  1.00  0.00     0.011 A 
HETATM   31 BR1  UNL     1      -2.158   7.899  28.181  1.00  0.00    -0.051 Br
HETATM   32  C16 UNL     1      -2.340  10.137  26.351  1.00  0.00     0.020 A 
HETATM   33  C17 UNL     1      -1.961  10.922  25.280  1.00  0.00     0.026 A 
ENDBRANCH  24  27
ENDBRANCH  22  24
ENDBRANCH   7  22
BRANCH   6  34
HETATM   34  O4  UNL     1      -0.407  13.750  20.416  1.00  0.00    -0.281 OA
ATOM     35  H4  UNL     1      -0.389  14.670  20.651  1.00  0.00     0.245 HD
ENDBRANCH   6  34
TORSDOF 12
ENDMDL
