MODEL 1
REMARK VINA RESULT: -7.192006740      0.000      0.000
REMARK  10 active torsions:
REMARK  status: ('A' for Active; 'I' for Inactive)
REMARK    1  A    between atoms: N1_2  and  C3_4 
REMARK    2  A    between atoms: C4_5  and  C5_6 
REMARK    3  A    between atoms: C5_6  and  C6_7 
REMARK    4  A    between atoms: C5_6  and  N2_19 
REMARK    5  A    between atoms: C6_7  and  C7_8 
REMARK    6  A    between atoms: C7_8  and  S1_9 
REMARK    7  A    between atoms: S1_9  and  C8_12 
REMARK       I    between atoms: N2_19  and  C14_21 
REMARK    8  A    between atoms: C14_21  and  C15_23 
REMARK       I    between atoms: C15_23  and  N3_25 
REMARK    9  A    between atoms: N3_25  and  C16_27 
REMARK   10  A    between atoms: C16_27  and  N4_30 
ROOT
HETATM    1  N4  UNL     1      -5.775   9.754  18.229  1.00  0.00    -0.297 N 
HETATM    2  C19 UNL     1      -7.160  10.001  17.949  1.00  0.00     0.165 C 
HETATM    3  C20 UNL     1      -4.821  10.541  17.573  1.00  0.00     0.181 C 
HETATM    4  N5  UNL     1      -4.016  11.194  17.017  1.00  0.00    -0.172 NA
ENDROOT
BRANCH   1   5
HETATM    5  C16 UNL     1      -5.342   8.729  19.159  1.00  0.00     0.110 C 
HETATM    6  C17 UNL     1      -6.514   8.244  19.981  1.00  0.00     0.064 C 
HETATM    7  C18 UNL     1      -4.841   7.562  18.345  1.00  0.00     0.064 C 
BRANCH   5   8
HETATM    8  N3  UNL     1      -4.330   9.214  20.072  1.00  0.00    -0.326 N 
HETATM    9  C15 UNL     1      -4.588  10.195  21.062  1.00  0.00     0.311 C 
HETATM   10  O4  UNL     1      -5.779  10.640  21.113  1.00  0.00    -0.262 OA
ATOM     11  H3  UNL     1      -3.387   8.833  19.999  1.00  0.00     0.165 HD
BRANCH   9  12
HETATM   12  C14 UNL     1      -3.583  10.683  21.976  1.00  0.00     0.314 C 
HETATM   13  N2  UNL     1      -3.803  10.854  23.395  1.00  0.00    -0.319 N 
ATOM     14  H2  UNL     1      -4.714  10.621  23.789  1.00  0.00     0.169 HD
HETATM   15  O3  UNL     1      -2.458  10.978  21.542  1.00  0.00    -0.262 OA
BRANCH  13  16
HETATM   16  C5  UNL     1      -2.768  11.344  24.263  1.00  0.00     0.033 C 
BRANCH  16  17
HETATM   17  C4  UNL     1      -2.078  10.342  25.081  1.00  0.00     0.046 C 
HETATM   18  C3  UNL     1      -2.500   9.998  26.284  1.00  0.00     0.086 C 
BRANCH  18  19
HETATM   19  N1  UNL     1      -1.862   9.043  27.088  1.00  0.00    -0.398 N 
HETATM   20  C1  UNL     1      -0.444   8.830  27.018  1.00  0.00     0.148 C 
HETATM   21  C2  UNL     1      -2.642   8.250  28.014  1.00  0.00     0.148 C 
ENDBRANCH  18  19
ENDBRANCH  16  17
BRANCH  16  22
HETATM   22  C6  UNL     1      -2.952  12.666  24.888  1.00  0.00     0.018 C 
BRANCH  22  23
HETATM   23  C7  UNL     1      -4.268  13.165  25.293  1.00  0.00     0.175 C 
BRANCH  23  24
HETATM   24  S1  UNL     1      -5.459  13.591  24.107  1.00  0.00     0.180 S 
HETATM   25  O1  UNL     1      -6.533  12.494  24.143  1.00  0.00    -0.222 OA
HETATM   26  O2  UNL     1      -4.983  13.720  22.714  1.00  0.00    -0.222 OA
BRANCH  24  27
HETATM   27  C8  UNL     1      -6.285  15.111  24.525  1.00  0.00     0.076 A 
HETATM   28  C9  UNL     1      -7.636  15.058  24.900  1.00  0.00     0.025 A 
HETATM   29  C10 UNL     1      -8.316  16.217  25.204  1.00  0.00     0.002 A 
HETATM   30  C11 UNL     1      -7.642  17.415  25.130  1.00  0.00     0.001 A 
HETATM   31  C12 UNL     1      -6.316  17.446  24.760  1.00  0.00     0.020 A 
HETATM   32  C13 UNL     1      -5.608  16.282  24.447  1.00  0.00     0.032 A 
HETATM   33 BR1  UNL     1      -3.773  16.336  23.971  1.00  0.00    -0.050 Br
ENDBRANCH  24  27
ENDBRANCH  23  24
ENDBRANCH  22  23
ENDBRANCH  16  22
ENDBRANCH  13  16
ENDBRANCH   9  12
ENDBRANCH   5   8
ENDBRANCH   1   5
TORSDOF 10
ENDMDL
MODEL 2
REMARK VINA RESULT: -7.065931853      1.572      2.151
REMARK  10 active torsions:
REMARK  status: ('A' for Active; 'I' for Inactive)
REMARK    1  A    between atoms: N1_2  and  C3_4 
REMARK    2  A    between atoms: C4_5  and  C5_6 
REMARK    3  A    between atoms: C5_6  and  C6_7 
REMARK    4  A    between atoms: C5_6  and  N2_19 
REMARK    5  A    between atoms: C6_7  and  C7_8 
REMARK    6  A    between atoms: C7_8  and  S1_9 
REMARK    7  A    between atoms: S1_9  and  C8_12 
REMARK       I    between atoms: N2_19  and  C14_21 
REMARK    8  A    between atoms: C14_21  and  C15_23 
REMARK       I    between atoms: C15_23  and  N3_25 
REMARK    9  A    between atoms: N3_25  and  C16_27 
REMARK   10  A    between atoms: C16_27  and  N4_30 
ROOT
HETATM    1  N4  UNL     1      -6.731   8.326  18.722  1.00  0.00    -0.297 N 
HETATM    2  C19 UNL     1      -7.739   8.512  17.717  1.00  0.00     0.165 C 
HETATM    3  C20 UNL     1      -7.119   8.408  20.064  1.00  0.00     0.181 C 
HETATM    4  N5  UNL     1      -7.438   8.485  21.194  1.00  0.00    -0.172 NA
ENDROOT
BRANCH   1   5
HETATM    5  C16 UNL     1      -5.345   8.060  18.390  1.00  0.00     0.110 C 
HETATM    6  C17 UNL     1      -5.089   6.570  18.381  1.00  0.00     0.064 C 
HETATM    7  C18 UNL     1      -5.109   8.570  16.990  1.00  0.00     0.064 C 
BRANCH   5   8
HETATM    8  N3  UNL     1      -4.433   8.662  19.337  1.00  0.00    -0.326 N 
HETATM    9  C15 UNL     1      -4.239  10.062  19.441  1.00  0.00     0.311 C 
HETATM   10  O4  UNL     1      -4.920  10.783  18.643  1.00  0.00    -0.262 OA
ATOM     11  H3  UNL     1      -3.905   8.050  19.959  1.00  0.00     0.165 HD
BRANCH   9  12
HETATM   12  C14 UNL     1      -3.331  10.669  20.385  1.00  0.00     0.314 C 
HETATM   13  N2  UNL     1      -3.632  10.849  21.787  1.00  0.00    -0.319 N 
ATOM     14  H2  UNL     1      -4.533  10.534  22.147  1.00  0.00     0.169 HD
HETATM   15  O3  UNL     1      -2.223  11.068  19.992  1.00  0.00    -0.262 OA
BRANCH  13  16
HETATM   16  C5  UNL     1      -2.693  11.461  22.686  1.00  0.00     0.033 C 
BRANCH  16  17
HETATM   17  C4  UNL     1      -2.001  10.560  23.613  1.00  0.00     0.046 C 
HETATM   18  C3  UNL     1      -2.199  10.598  24.918  1.00  0.00     0.086 C 
BRANCH  18  19
HETATM   19  N1  UNL     1      -1.553   9.750  25.827  1.00  0.00    -0.398 N 
HETATM   20  C1  UNL     1      -2.174   9.361  27.062  1.00  0.00     0.148 C 
HETATM   21  C2  UNL     1      -0.229   9.249  25.524  1.00  0.00     0.148 C 
ENDBRANCH  18  19
ENDBRANCH  16  17
BRANCH  16  22
HETATM   22  C6  UNL     1      -3.002  12.804  23.208  1.00  0.00     0.018 C 
BRANCH  22  23
HETATM   23  C7  UNL     1      -4.320  13.423  23.046  1.00  0.00     0.175 C 
BRANCH  23  24
HETATM   24  S1  UNL     1      -5.608  13.067  24.151  1.00  0.00     0.180 S 
HETATM   25  O1  UNL     1      -4.962  12.455  25.403  1.00  0.00    -0.222 OA
HETATM   26  O2  UNL     1      -6.648  12.134  23.670  1.00  0.00    -0.222 OA
BRANCH  24  27
HETATM   27  C8  UNL     1      -6.436  14.547  24.691  1.00  0.00     0.076 A 
HETATM   28  C9  UNL     1      -7.753  14.773  24.261  1.00  0.00     0.025 A 
HETATM   29  C10 UNL     1      -8.416  15.921  24.637  1.00  0.00     0.002 A 
HETATM   30  C11 UNL     1      -7.760  16.830  25.435  1.00  0.00     0.001 A 
HETATM   31  C12 UNL     1      -6.468  16.590  25.847  1.00  0.00     0.020 A 
HETATM   32  C13 UNL     1      -5.777  15.432  25.477  1.00  0.00     0.032 A 
HETATM   33 BR1  UNL     1      -4.009  15.098  26.078  1.00  0.00    -0.050 Br
ENDBRANCH  24  27
ENDBRANCH  23  24
ENDBRANCH  22  23
ENDBRANCH  16  22
ENDBRANCH  13  16
ENDBRANCH   9  12
ENDBRANCH   5   8
ENDBRANCH   1   5
TORSDOF 10
ENDMDL
MODEL 3
REMARK VINA RESULT: -7.048801728      1.778      2.321
REMARK  10 active torsions:
REMARK  status: ('A' for Active; 'I' for Inactive)
REMARK    1  A    between atoms: N1_2  and  C3_4 
REMARK    2  A    between atoms: C4_5  and  C5_6 
REMARK    3  A    between atoms: C5_6  and  C6_7 
REMARK    4  A    between atoms: C5_6  and  N2_19 
REMARK    5  A    between atoms: C6_7  and  C7_8 
REMARK    6  A    between atoms: C7_8  and  S1_9 
REMARK    7  A    between atoms: S1_9  and  C8_12 
REMARK       I    between atoms: N2_19  and  C14_21 
REMARK    8  A    between atoms: C14_21  and  C15_23 
REMARK       I    between atoms: C15_23  and  N3_25 
REMARK    9  A    between atoms: N3_25  and  C16_27 
REMARK   10  A    between atoms: C16_27  and  N4_30 
ROOT
HETATM    1  N4  UNL     1      -6.052  10.412  19.335  1.00  0.00    -0.297 N 
HETATM    2  C19 UNL     1      -5.691  10.567  17.955  1.00  0.00     0.165 C 
HETATM    3  C20 UNL     1      -6.802  11.430  19.937  1.00  0.00     0.181 C 
HETATM    4  N5  UNL     1      -7.424  12.286  20.450  1.00  0.00    -0.172 NA
ENDROOT
BRANCH   1   5
HETATM    5  C16 UNL     1      -5.669   9.248  20.111  1.00  0.00     0.110 C 
HETATM    6  C17 UNL     1      -6.893   8.433  20.465  1.00  0.00     0.064 C 
HETATM    7  C18 UNL     1      -4.789   8.391  19.235  1.00  0.00     0.064 C 
BRANCH   5   8
HETATM    8  N3  UNL     1      -5.004   9.610  21.343  1.00  0.00    -0.326 N 
HETATM    9  C15 UNL     1      -3.737  10.243  21.380  1.00  0.00     0.311 C 
HETATM   10  O4  UNL     1      -3.197  10.485  20.253  1.00  0.00    -0.262 OA
ATOM     11  H3  UNL     1      -5.468   9.399  22.226  1.00  0.00     0.165 HD
BRANCH   9  12
HETATM   12  C14 UNL     1      -3.068  10.608  22.606  1.00  0.00     0.314 C 
HETATM   13  N2  UNL     1      -3.740  11.190  23.746  1.00  0.00    -0.319 N 
ATOM     14  H2  UNL     1      -4.745  11.359  23.698  1.00  0.00     0.169 HD
HETATM   15  O3  UNL     1      -1.845  10.420  22.710  1.00  0.00    -0.262 OA
BRANCH  13  16
HETATM   16  C5  UNL     1      -3.027  11.536  24.944  1.00  0.00     0.033 C 
BRANCH  16  17
HETATM   17  C4  UNL     1      -2.996  10.517  25.998  1.00  0.00     0.046 C 
HETATM   18  C3  UNL     1      -1.951   9.735  26.196  1.00  0.00     0.086 C 
BRANCH  18  19
HETATM   19  N1  UNL     1      -1.892   8.753  27.195  1.00  0.00    -0.398 N 
HETATM   20  C1  UNL     1      -2.977   8.554  28.115  1.00  0.00     0.148 C 
HETATM   21  C2  UNL     1      -0.717   7.916  27.310  1.00  0.00     0.148 C 
ENDBRANCH  18  19
ENDBRANCH  16  17
BRANCH  16  22
HETATM   22  C6  UNL     1      -3.078  12.934  25.406  1.00  0.00     0.018 C 
BRANCH  22  23
HETATM   23  C7  UNL     1      -3.557  14.024  24.553  1.00  0.00     0.175 C 
BRANCH  23  24
HETATM   24  S1  UNL     1      -4.564  15.279  25.198  1.00  0.00     0.180 S 
HETATM   25  O1  UNL     1      -4.143  16.585  24.508  1.00  0.00    -0.222 OA
HETATM   26  O2  UNL     1      -4.498  15.490  26.659  1.00  0.00    -0.222 OA
BRANCH  24  27
HETATM   27  C8  UNL     1      -6.276  15.025  24.780  1.00  0.00     0.076 A 
HETATM   28  C9  UNL     1      -6.632  13.854  24.094  1.00  0.00     0.025 A 
HETATM   29  C10 UNL     1      -7.943  13.637  23.730  1.00  0.00     0.002 A 
HETATM   30  C11 UNL     1      -8.883  14.588  24.053  1.00  0.00     0.001 A 
HETATM   31  C12 UNL     1      -8.515  15.730  24.727  1.00  0.00     0.020 A 
HETATM   32  C13 UNL     1      -7.190  15.971  25.106  1.00  0.00     0.032 A 
HETATM   33 BR1  UNL     1      -6.701  17.534  26.062  1.00  0.00    -0.050 Br
ENDBRANCH  24  27
ENDBRANCH  23  24
ENDBRANCH  22  23
ENDBRANCH  16  22
ENDBRANCH  13  16
ENDBRANCH   9  12
ENDBRANCH   5   8
ENDBRANCH   1   5
TORSDOF 10
ENDMDL
MODEL 4
REMARK VINA RESULT: -7.042618329      1.742      2.224
REMARK  10 active torsions:
REMARK  status: ('A' for Active; 'I' for Inactive)
REMARK    1  A    between atoms: N1_2  and  C3_4 
REMARK    2  A    between atoms: C4_5  and  C5_6 
REMARK    3  A    between atoms: C5_6  and  C6_7 
REMARK    4  A    between atoms: C5_6  and  N2_19 
REMARK    5  A    between atoms: C6_7  and  C7_8 
REMARK    6  A    between atoms: C7_8  and  S1_9 
REMARK    7  A    between atoms: S1_9  and  C8_12 
REMARK       I    between atoms: N2_19  and  C14_21 
REMARK    8  A    between atoms: C14_21  and  C15_23 
REMARK       I    between atoms: C15_23  and  N3_25 
REMARK    9  A    between atoms: N3_25  and  C16_27 
REMARK   10  A    between atoms: C16_27  and  N4_30 
ROOT
HETATM    1  N4  UNL     1      -5.757   9.830  18.279  1.00  0.00    -0.297 N 
HETATM    2  C19 UNL     1      -7.148  10.055  18.013  1.00  0.00     0.165 C 
HETATM    3  C20 UNL     1      -4.822  10.637  17.621  1.00  0.00     0.181 C 
HETATM    4  N5  UNL     1      -4.032  11.307  17.063  1.00  0.00    -0.172 NA
ENDROOT
BRANCH   1   5
HETATM    5  C16 UNL     1      -5.299   8.804  19.198  1.00  0.00     0.110 C 
HETATM    6  C17 UNL     1      -6.460   8.279  20.010  1.00  0.00     0.064 C 
HETATM    7  C18 UNL     1      -4.767   7.661  18.370  1.00  0.00     0.064 C 
BRANCH   5   8
HETATM    8  N3  UNL     1      -4.302   9.304  20.118  1.00  0.00    -0.326 N 
HETATM    9  C15 UNL     1      -4.592  10.248  21.135  1.00  0.00     0.311 C 
HETATM   10  O4  UNL     1      -5.800  10.646  21.202  1.00  0.00    -0.262 OA
ATOM     11  H3  UNL     1      -3.346   8.961  20.032  1.00  0.00     0.165 HD
BRANCH   9  12
HETATM   12  C14 UNL     1      -3.602  10.750  22.057  1.00  0.00     0.314 C 
HETATM   13  N2  UNL     1      -3.861  10.995  23.459  1.00  0.00    -0.319 N 
ATOM     14  H2  UNL     1      -4.791  10.807  23.834  1.00  0.00     0.169 HD
HETATM   15  O3  UNL     1      -2.456  10.993  21.647  1.00  0.00    -0.262 OA
BRANCH  13  16
HETATM   16  C5  UNL     1      -2.840  11.496  24.336  1.00  0.00     0.033 C 
BRANCH  16  17
HETATM   17  C4  UNL     1      -2.118  10.497  25.130  1.00  0.00     0.046 C 
HETATM   18  C3  UNL     1      -2.570  10.050  26.286  1.00  0.00     0.086 C 
BRANCH  18  19
HETATM   19  N1  UNL     1      -1.902   9.095  27.066  1.00  0.00    -0.398 N 
HETATM   20  C1  UNL     1      -0.489   8.876  26.936  1.00  0.00     0.148 C 
HETATM   21  C2  UNL     1      -2.645   8.308  28.027  1.00  0.00     0.148 C 
ENDBRANCH  18  19
ENDBRANCH  16  17
BRANCH  16  22
HETATM   22  C6  UNL     1      -3.062  12.797  24.992  1.00  0.00     0.018 C 
BRANCH  22  23
HETATM   23  C7  UNL     1      -4.357  13.175  25.564  1.00  0.00     0.175 C 
BRANCH  23  24
HETATM   24  S1  UNL     1      -4.900  14.821  25.521  1.00  0.00     0.180 S 
HETATM   25  O1  UNL     1      -4.063  15.591  26.553  1.00  0.00    -0.222 OA
HETATM   26  O2  UNL     1      -6.327  15.051  25.824  1.00  0.00    -0.222 OA
BRANCH  24  27
HETATM   27  C8  UNL     1      -4.566  15.579  23.945  1.00  0.00     0.076 A 
HETATM   28  C9  UNL     1      -3.624  16.617  23.886  1.00  0.00     0.025 A 
HETATM   29  C10 UNL     1      -3.360  17.246  22.689  1.00  0.00     0.002 A 
HETATM   30  C11 UNL     1      -4.038  16.833  21.565  1.00  0.00     0.001 A 
HETATM   31  C12 UNL     1      -4.958  15.812  21.642  1.00  0.00     0.020 A 
HETATM   32  C13 UNL     1      -5.241  15.161  22.847  1.00  0.00     0.032 A 
HETATM   33 BR1  UNL     1      -6.488  13.734  22.933  1.00  0.00    -0.050 Br
ENDBRANCH  24  27
ENDBRANCH  23  24
ENDBRANCH  22  23
ENDBRANCH  16  22
ENDBRANCH  13  16
ENDBRANCH   9  12
ENDBRANCH   5   8
ENDBRANCH   1   5
TORSDOF 10
ENDMDL
MODEL 5
REMARK VINA RESULT: -7.015546319      2.511      6.173
REMARK  10 active torsions:
REMARK  status: ('A' for Active; 'I' for Inactive)
REMARK    1  A    between atoms: N1_2  and  C3_4 
REMARK    2  A    between atoms: C4_5  and  C5_6 
REMARK    3  A    between atoms: C5_6  and  C6_7 
REMARK    4  A    between atoms: C5_6  and  N2_19 
REMARK    5  A    between atoms: C6_7  and  C7_8 
REMARK    6  A    between atoms: C7_8  and  S1_9 
REMARK    7  A    between atoms: S1_9  and  C8_12 
REMARK       I    between atoms: N2_19  and  C14_21 
REMARK    8  A    between atoms: C14_21  and  C15_23 
REMARK       I    between atoms: C15_23  and  N3_25 
REMARK    9  A    between atoms: N3_25  and  C16_27 
REMARK   10  A    between atoms: C16_27  and  N4_30 
ROOT
HETATM    1  N4  UNL     1      -5.004   9.335  19.545  1.00  0.00    -0.297 N 
HETATM    2  C19 UNL     1      -4.791   8.067  18.908  1.00  0.00     0.165 C 
HETATM    3  C20 UNL     1      -3.917  10.212  19.644  1.00  0.00     0.181 C 
HETATM    4  N5  UNL     1      -3.005  10.949  19.738  1.00  0.00    -0.172 NA
ENDROOT
BRANCH   1   5
HETATM    5  C16 UNL     1      -6.294   9.727  20.080  1.00  0.00     0.110 C 
HETATM    6  C17 UNL     1      -7.097  10.451  19.024  1.00  0.00     0.064 C 
HETATM    7  C18 UNL     1      -7.040   8.464  20.433  1.00  0.00     0.064 C 
BRANCH   5   8
HETATM    8  N3  UNL     1      -6.165  10.606  21.221  1.00  0.00    -0.326 N 
HETATM    9  C15 UNL     1      -7.245  11.360  21.742  1.00  0.00     0.311 C 
HETATM   10  O4  UNL     1      -8.362  11.227  21.145  1.00  0.00    -0.262 OA
ATOM     11  H3  UNL     1      -5.254  10.686  21.672  1.00  0.00     0.165 HD
BRANCH   9  12
HETATM   12  C14 UNL     1      -7.124  12.238  22.882  1.00  0.00     0.314 C 
HETATM   13  N2  UNL     1      -6.021  13.153  23.076  1.00  0.00    -0.319 N 
ATOM     14  H2  UNL     1      -5.278  13.194  22.379  1.00  0.00     0.169 HD
HETATM   15  O3  UNL     1      -8.004  12.225  23.757  1.00  0.00    -0.262 OA
BRANCH  13  16
HETATM   16  C5  UNL     1      -5.948  14.007  24.230  1.00  0.00     0.033 C 
BRANCH  16  17
HETATM   17  C4  UNL     1      -6.199  15.433  23.999  1.00  0.00     0.046 C 
HETATM   18  C3  UNL     1      -5.852  16.363  24.869  1.00  0.00     0.086 C 
BRANCH  18  19
HETATM   19  N1  UNL     1      -6.079  17.733  24.675  1.00  0.00    -0.398 N 
HETATM   20  C1  UNL     1      -7.080  18.441  25.423  1.00  0.00     0.148 C 
HETATM   21  C2  UNL     1      -5.292  18.459  23.702  1.00  0.00     0.148 C 
ENDBRANCH  18  19
ENDBRANCH  16  17
BRANCH  16  22
HETATM   22  C6  UNL     1      -4.949  13.692  25.267  1.00  0.00     0.018 C 
BRANCH  22  23
HETATM   23  C7  UNL     1      -4.416  12.341  25.456  1.00  0.00     0.175 C 
BRANCH  23  24
HETATM   24  S1  UNL     1      -3.186  11.717  24.406  1.00  0.00     0.180 S 
HETATM   25  O1  UNL     1      -2.270  12.896  24.045  1.00  0.00    -0.222 OA
HETATM   26  O2  UNL     1      -3.649  11.095  23.148  1.00  0.00    -0.222 OA
BRANCH  24  27
HETATM   27  C8  UNL     1      -2.158  10.524  25.236  1.00  0.00     0.076 A 
HETATM   28  C9  UNL     1      -2.519  10.112  26.528  1.00  0.00     0.025 A 
HETATM   29  C10 UNL     1      -1.733   9.211  27.212  1.00  0.00     0.002 A 
HETATM   30  C11 UNL     1      -0.597   8.731  26.601  1.00  0.00     0.001 A 
HETATM   31  C12 UNL     1      -0.260   9.146  25.333  1.00  0.00     0.020 A 
HETATM   32  C13 UNL     1      -1.044  10.060  24.621  1.00  0.00     0.032 A 
HETATM   33 BR1  UNL     1      -0.586  10.599  22.861  1.00  0.00    -0.050 Br
ENDBRANCH  24  27
ENDBRANCH  23  24
ENDBRANCH  22  23
ENDBRANCH  16  22
ENDBRANCH  13  16
ENDBRANCH   9  12
ENDBRANCH   5   8
ENDBRANCH   1   5
TORSDOF 10
ENDMDL
