MODEL 1
REMARK VINA RESULT: -8.978039187      0.000      0.000
REMARK  9 active torsions:
REMARK  status: ('A' for Active; 'I' for Inactive)
REMARK       I    between atoms: N1_2  and  C2_3 
REMARK    1  A    between atoms: N1_2  and  C16_29 
REMARK    2  A    between atoms: C2_3  and  C3_5 
REMARK    3  A    between atoms: C3_5  and  N2_6 
REMARK    4  A    between atoms: N2_6  and  C4_7 
REMARK    5  A    between atoms: N2_6  and  S1_14 
REMARK    6  A    between atoms: S1_14  and  C10_17 
REMARK    7  A    between atoms: C13_20  and  S2_21 
REMARK    8  A    between atoms: S2_21  and  N3_22 
REMARK    9  A    between atoms: C20_33  and  C21_34 
ROOT
HETATM    1  N2  UNL     1      -5.174  10.126  19.114  1.00  0.00    -0.263 N 
ENDROOT
BRANCH   1   2
HETATM    2  C3  UNL     1      -3.842  10.206  19.600  1.00  0.00     0.245 C 
BRANCH   2   3
HETATM    3  C2  UNL     1      -3.682  10.219  21.066  1.00  0.00     0.243 C 
HETATM    4  N1  UNL     1      -2.743  11.071  21.702  1.00  0.00    -0.321 N 
HETATM    5  C1  UNL     1      -1.917  11.929  20.870  1.00  0.00     0.159 C 
HETATM    6  O1  UNL     1      -4.397   9.458  21.758  1.00  0.00    -0.271 OA
BRANCH   4   7
HETATM    7  C16 UNL     1      -2.606  11.082  23.107  1.00  0.00     0.037 A 
HETATM    8  C17 UNL     1      -3.290  11.994  23.908  1.00  0.00     0.030 A 
HETATM    9  C18 UNL     1      -3.158  12.003  25.273  1.00  0.00     0.003 A 
HETATM   10  C19 UNL     1      -2.332  11.094  25.901  1.00  0.00     0.017 A 
HETATM   11  C20 UNL     1      -1.645  10.185  25.159  1.00  0.00     0.031 A 
HETATM   12  C22 UNL     1      -1.791  10.190  23.768  1.00  0.00     0.046 A 
BRANCH  11  13
HETATM   13  C21 UNL     1      -0.774   9.227  25.819  1.00  0.00     0.265 C 
HETATM   14  N4  UNL     1      -0.884   9.067  27.249  1.00  0.00    -0.057 NA
HETATM   15  O6  UNL     1       0.056   8.542  25.219  1.00  0.00    -0.271 OA
ENDBRANCH  11  13
ENDBRANCH   4   7
ENDBRANCH   2   3
ENDBRANCH   1   2
BRANCH   1  16
HETATM   16  C4  UNL     1      -5.698   8.835  18.750  1.00  0.00     0.048 A 
HETATM   17  C5  UNL     1      -7.015   8.608  18.439  1.00  0.00     0.030 A 
HETATM   18  C6  UNL     1      -7.453   7.333  18.097  1.00  0.00     0.005 A 
HETATM   19  C7  UNL     1      -6.593   6.258  18.058  1.00  0.00     0.042 A 
HETATM   20  C8  UNL     1      -5.275   6.484  18.369  1.00  0.00     0.118 A 
HETATM   21  F1  UNL     1      -4.439   5.417  18.327  1.00  0.00    -0.206 F 
HETATM   22  C9  UNL     1      -4.827   7.743  18.710  1.00  0.00     0.072 A 
ENDBRANCH   1  16
BRANCH   1  23
HETATM   23  S1  UNL     1      -6.163  11.518  18.918  1.00  0.00     0.265 S 
HETATM   24  O2  UNL     1      -6.644  11.526  17.500  1.00  0.00    -0.200 OA
HETATM   25  O3  UNL     1      -5.377  12.788  19.175  1.00  0.00    -0.200 OA
BRANCH  23  26
HETATM   26  C10 UNL     1      -7.551  11.478  19.977  1.00  0.00     0.080 A 
HETATM   27  C11 UNL     1      -8.835  11.686  19.524  1.00  0.00     0.027 A 
HETATM   28  C12 UNL     1      -9.915  11.642  20.400  1.00  0.00     0.027 A 
HETATM   29  C13 UNL     1      -9.732  11.388  21.743  1.00  0.00     0.079 A 
HETATM   30  C14 UNL     1      -8.444  11.182  22.182  1.00  0.00     0.027 A 
HETATM   31  C15 UNL     1      -7.346  11.220  21.333  1.00  0.00     0.027 A 
BRANCH  29  32
HETATM   32  S2  UNL     1     -11.114  11.369  22.842  1.00  0.00     0.256 S 
HETATM   33  O4  UNL     1     -10.538  11.578  24.227  1.00  0.00    -0.201 OA
HETATM   34  O5  UNL     1     -12.065  12.444  22.497  1.00  0.00    -0.201 OA
BRANCH  32  35
HETATM   35  N3  UNL     1     -11.943   9.851  22.792  1.00  0.00    -0.324 N 
ATOM     36  H32 UNL     1     -12.577   9.533  23.525  1.00  0.00     0.169 HD
ATOM     37  H31 UNL     1     -11.716   9.328  21.947  1.00  0.00     0.169 HD
ENDBRANCH  32  35
ENDBRANCH  29  32
ENDBRANCH  23  26
ENDBRANCH   1  23
TORSDOF 9
ENDMDL
MODEL 2
REMARK VINA RESULT: -8.772923769      4.264      6.037
REMARK  9 active torsions:
REMARK  status: ('A' for Active; 'I' for Inactive)
REMARK       I    between atoms: N1_2  and  C2_3 
REMARK    1  A    between atoms: N1_2  and  C16_29 
REMARK    2  A    between atoms: C2_3  and  C3_5 
REMARK    3  A    between atoms: C3_5  and  N2_6 
REMARK    4  A    between atoms: N2_6  and  C4_7 
REMARK    5  A    between atoms: N2_6  and  S1_14 
REMARK    6  A    between atoms: S1_14  and  C10_17 
REMARK    7  A    between atoms: C13_20  and  S2_21 
REMARK    8  A    between atoms: S2_21  and  N3_22 
REMARK    9  A    between atoms: C20_33  and  C21_34 
ROOT
HETATM    1  N2  UNL     1      -2.642  12.139  21.881  1.00  0.00    -0.263 N 
ENDROOT
BRANCH   1   2
HETATM    2  C3  UNL     1      -1.591  11.442  22.536  1.00  0.00     0.245 C 
BRANCH   2   3
HETATM    3  C2  UNL     1      -1.980  10.611  23.691  1.00  0.00     0.243 C 
HETATM    4  N1  UNL     1      -1.098  10.398  24.781  1.00  0.00    -0.321 N 
HETATM    5  C1  UNL     1       0.220  11.006  24.730  1.00  0.00     0.159 C 
HETATM    6  O1  UNL     1      -3.118  10.087  23.701  1.00  0.00    -0.271 OA
BRANCH   4   7
HETATM    7  C16 UNL     1      -1.485   9.610  25.886  1.00  0.00     0.037 A 
HETATM    8  C17 UNL     1      -2.516   9.993  26.742  1.00  0.00     0.030 A 
HETATM    9  C18 UNL     1      -2.892   9.225  27.814  1.00  0.00     0.003 A 
HETATM   10  C19 UNL     1      -2.252   8.033  28.078  1.00  0.00     0.017 A 
HETATM   11  C20 UNL     1      -1.241   7.618  27.269  1.00  0.00     0.031 A 
HETATM   12  C22 UNL     1      -0.870   8.414  26.181  1.00  0.00     0.046 A 
BRANCH  11  13
HETATM   13  C21 UNL     1      -0.565   6.362  27.547  1.00  0.00     0.265 C 
HETATM   14  N4  UNL     1       0.078   5.669  26.457  1.00  0.00    -0.057 NA
HETATM   15  O6  UNL     1      -0.513   5.856  28.670  1.00  0.00    -0.271 OA
ENDBRANCH  11  13
ENDBRANCH   4   7
ENDBRANCH   2   3
ENDBRANCH   1   2
BRANCH   1  16
HETATM   16  C4  UNL     1      -3.647  12.783  22.686  1.00  0.00     0.048 A 
HETATM   17  C5  UNL     1      -4.985  12.482  22.618  1.00  0.00     0.030 A 
HETATM   18  C6  UNL     1      -5.902  13.145  23.426  1.00  0.00     0.005 A 
HETATM   19  C7  UNL     1      -5.511  14.119  24.317  1.00  0.00     0.042 A 
HETATM   20  C8  UNL     1      -4.173  14.421  24.386  1.00  0.00     0.118 A 
HETATM   21  F1  UNL     1      -3.802  15.383  25.268  1.00  0.00    -0.206 F 
HETATM   22  C9  UNL     1      -3.253  13.772  23.591  1.00  0.00     0.072 A 
ENDBRANCH   1  16
BRANCH   1  23
HETATM   23  S1  UNL     1      -2.765  12.210  20.168  1.00  0.00     0.265 S 
HETATM   24  O2  UNL     1      -1.375  12.117  19.618  1.00  0.00    -0.200 OA
HETATM   25  O3  UNL     1      -3.382  13.518  19.719  1.00  0.00    -0.200 OA
BRANCH  23  26
HETATM   26  C10 UNL     1      -3.706  10.883  19.533  1.00  0.00     0.080 A 
HETATM   27  C11 UNL     1      -3.884   9.704  20.221  1.00  0.00     0.027 A 
HETATM   28  C12 UNL     1      -4.645   8.671  19.681  1.00  0.00     0.027 A 
HETATM   29  C13 UNL     1      -5.242   8.799  18.445  1.00  0.00     0.079 A 
HETATM   30  C14 UNL     1      -5.056   9.984  17.767  1.00  0.00     0.027 A 
HETATM   31  C15 UNL     1      -4.303  11.032  18.280  1.00  0.00     0.027 A 
BRANCH  29  32
HETATM   32  S2  UNL     1      -6.176   7.465  17.764  1.00  0.00     0.256 S 
HETATM   33  O4  UNL     1      -5.155   6.473  17.246  1.00  0.00    -0.201 OA
HETATM   34  O5  UNL     1      -7.032   6.851  18.799  1.00  0.00    -0.201 OA
BRANCH  32  35
HETATM   35  N3  UNL     1      -7.174   7.993  16.453  1.00  0.00    -0.324 N 
ATOM     36  H32 UNL     1      -8.088   7.590  16.245  1.00  0.00     0.169 HD
ATOM     37  H31 UNL     1      -6.733   8.747  15.927  1.00  0.00     0.169 HD
ENDBRANCH  32  35
ENDBRANCH  29  32
ENDBRANCH  23  26
ENDBRANCH   1  23
TORSDOF 9
ENDMDL
MODEL 3
REMARK VINA RESULT: -8.669137277      2.810      5.353
REMARK  9 active torsions:
REMARK  status: ('A' for Active; 'I' for Inactive)
REMARK       I    between atoms: N1_2  and  C2_3 
REMARK    1  A    between atoms: N1_2  and  C16_29 
REMARK    2  A    between atoms: C2_3  and  C3_5 
REMARK    3  A    between atoms: C3_5  and  N2_6 
REMARK    4  A    between atoms: N2_6  and  C4_7 
REMARK    5  A    between atoms: N2_6  and  S1_14 
REMARK    6  A    between atoms: S1_14  and  C10_17 
REMARK    7  A    between atoms: C13_20  and  S2_21 
REMARK    8  A    between atoms: S2_21  and  N3_22 
REMARK    9  A    between atoms: C20_33  and  C21_34 
ROOT
HETATM    1  N2  UNL     1      -6.286  10.459  18.440  1.00  0.00    -0.263 N 
ENDROOT
BRANCH   1   2
HETATM    2  C3  UNL     1      -7.214  11.090  19.311  1.00  0.00     0.245 C 
BRANCH   2   3
HETATM    3  C2  UNL     1      -6.774  11.280  20.705  1.00  0.00     0.243 C 
HETATM    4  N1  UNL     1      -6.346  12.546  21.181  1.00  0.00    -0.321 N 
HETATM    5  C1  UNL     1      -6.333  13.663  20.252  1.00  0.00     0.159 C 
HETATM    6  O1  UNL     1      -6.781  10.296  21.480  1.00  0.00    -0.271 OA
BRANCH   4   7
HETATM    7  C16 UNL     1      -5.936  12.719  22.521  1.00  0.00     0.037 A 
HETATM    8  C17 UNL     1      -6.620  13.556  23.400  1.00  0.00     0.030 A 
HETATM    9  C18 UNL     1      -6.222  13.721  24.702  1.00  0.00     0.003 A 
HETATM   10  C19 UNL     1      -5.117  13.052  25.185  1.00  0.00     0.017 A 
HETATM   11  C20 UNL     1      -4.419  12.224  24.363  1.00  0.00     0.031 A 
HETATM   12  C22 UNL     1      -4.839  12.067  23.038  1.00  0.00     0.046 A 
BRANCH  11  13
HETATM   13  C21 UNL     1      -3.255  11.518  24.871  1.00  0.00     0.265 C 
HETATM   14  N4  UNL     1      -2.495  12.121  25.940  1.00  0.00    -0.057 NA
HETATM   15  O6  UNL     1      -2.881  10.428  24.435  1.00  0.00    -0.271 OA
ENDBRANCH  11  13
ENDBRANCH   4   7
ENDBRANCH   2   3
ENDBRANCH   1   2
BRANCH   1  16
HETATM   16  C4  UNL     1      -6.467   9.062  18.137  1.00  0.00     0.048 A 
HETATM   17  C5  UNL     1      -7.584   8.555  17.520  1.00  0.00     0.030 A 
HETATM   18  C6  UNL     1      -7.692   7.194  17.259  1.00  0.00     0.005 A 
HETATM   19  C7  UNL     1      -6.696   6.308  17.605  1.00  0.00     0.042 A 
HETATM   20  C8  UNL     1      -5.578   6.814  18.222  1.00  0.00     0.118 A 
HETATM   21  F1  UNL     1      -4.605   5.931  18.558  1.00  0.00    -0.206 F 
HETATM   22  C9  UNL     1      -5.457   8.162  18.487  1.00  0.00     0.072 A 
ENDBRANCH   1  16
BRANCH   1  23
HETATM   23  S1  UNL     1      -4.947  11.297  17.765  1.00  0.00     0.265 S 
HETATM   24  O2  UNL     1      -5.417  12.674  17.411  1.00  0.00    -0.200 OA
HETATM   25  O3  UNL     1      -4.449  10.612  16.509  1.00  0.00    -0.200 OA
BRANCH  23  26
HETATM   26  C10 UNL     1      -3.630  11.434  18.904  1.00  0.00     0.080 A 
HETATM   27  C11 UNL     1      -2.793  12.527  18.943  1.00  0.00     0.027 A 
HETATM   28  C12 UNL     1      -1.758  12.599  19.869  1.00  0.00     0.027 A 
HETATM   29  C13 UNL     1      -1.541  11.582  20.774  1.00  0.00     0.079 A 
HETATM   30  C14 UNL     1      -2.384  10.495  20.725  1.00  0.00     0.027 A 
HETATM   31  C15 UNL     1      -3.426  10.394  19.812  1.00  0.00     0.027 A 
BRANCH  29  32
HETATM   32  S2  UNL     1      -0.200  11.680  21.920  1.00  0.00     0.256 S 
HETATM   33  O4  UNL     1       0.141  10.247  22.273  1.00  0.00    -0.201 OA
HETATM   34  O5  UNL     1       0.956  12.363  21.307  1.00  0.00    -0.201 OA
BRANCH  32  35
HETATM   35  N3  UNL     1      -0.655  12.530  23.357  1.00  0.00    -0.324 N 
ATOM     36  H32 UNL     1      -1.347  13.279  23.371  1.00  0.00     0.169 HD
ATOM     37  H31 UNL     1      -0.148  12.185  24.172  1.00  0.00     0.169 HD
ENDBRANCH  32  35
ENDBRANCH  29  32
ENDBRANCH  23  26
ENDBRANCH   1  23
TORSDOF 9
ENDMDL
MODEL 4
REMARK VINA RESULT: -8.631030156      3.140      5.120
REMARK  9 active torsions:
REMARK  status: ('A' for Active; 'I' for Inactive)
REMARK       I    between atoms: N1_2  and  C2_3 
REMARK    1  A    between atoms: N1_2  and  C16_29 
REMARK    2  A    between atoms: C2_3  and  C3_5 
REMARK    3  A    between atoms: C3_5  and  N2_6 
REMARK    4  A    between atoms: N2_6  and  C4_7 
REMARK    5  A    between atoms: N2_6  and  S1_14 
REMARK    6  A    between atoms: S1_14  and  C10_17 
REMARK    7  A    between atoms: C13_20  and  S2_21 
REMARK    8  A    between atoms: S2_21  and  N3_22 
REMARK    9  A    between atoms: C20_33  and  C21_34 
ROOT
HETATM    1  N2  UNL     1      -5.389  10.517  19.462  1.00  0.00    -0.263 N 
ENDROOT
BRANCH   1   2
HETATM    2  C3  UNL     1      -5.418  10.804  20.853  1.00  0.00     0.245 C 
BRANCH   2   3
HETATM    3  C2  UNL     1      -4.145  10.640  21.579  1.00  0.00     0.243 C 
HETATM    4  N1  UNL     1      -3.838  11.420  22.723  1.00  0.00    -0.321 N 
HETATM    5  C1  UNL     1      -4.807  12.410  23.162  1.00  0.00     0.159 C 
HETATM    6  O1  UNL     1      -3.322   9.790  21.169  1.00  0.00    -0.271 OA
BRANCH   4   7
HETATM    7  C16 UNL     1      -2.621  11.247  23.416  1.00  0.00     0.037 A 
HETATM    8  C17 UNL     1      -1.433  11.832  22.980  1.00  0.00     0.030 A 
HETATM    9  C18 UNL     1      -0.251  11.664  23.656  1.00  0.00     0.003 A 
HETATM   10  C19 UNL     1      -0.205  10.902  24.804  1.00  0.00     0.017 A 
HETATM   11  C20 UNL     1      -1.339  10.312  25.267  1.00  0.00     0.031 A 
HETATM   12  C22 UNL     1      -2.535  10.493  24.565  1.00  0.00     0.046 A 
BRANCH  11  13
HETATM   13  C21 UNL     1      -1.291   9.509  26.476  1.00  0.00     0.265 C 
HETATM   14  N4  UNL     1      -2.535   9.128  27.101  1.00  0.00    -0.057 NA
HETATM   15  O6  UNL     1      -0.239   9.134  26.997  1.00  0.00    -0.271 OA
ENDBRANCH  11  13
ENDBRANCH   4   7
ENDBRANCH   2   3
ENDBRANCH   1   2
BRANCH   1  16
HETATM   16  C4  UNL     1      -5.833   9.221  19.018  1.00  0.00     0.048 A 
HETATM   17  C5  UNL     1      -7.134   8.935  18.685  1.00  0.00     0.030 A 
HETATM   18  C6  UNL     1      -7.493   7.659  18.264  1.00  0.00     0.005 A 
HETATM   19  C7  UNL     1      -6.570   6.642  18.166  1.00  0.00     0.042 A 
HETATM   20  C8  UNL     1      -5.268   6.927  18.499  1.00  0.00     0.118 A 
HETATM   21  F1  UNL     1      -4.370   5.916  18.398  1.00  0.00    -0.206 F 
HETATM   22  C9  UNL     1      -4.898   8.188  18.917  1.00  0.00     0.072 A 
ENDBRANCH   1  16
BRANCH   1  23
HETATM   23  S1  UNL     1      -4.816  11.650  18.304  1.00  0.00     0.265 S 
HETATM   24  O2  UNL     1      -3.320  11.639  18.373  1.00  0.00    -0.200 OA
HETATM   25  O3  UNL     1      -5.309  13.048  18.616  1.00  0.00    -0.200 OA
BRANCH  23  26
HETATM   26  C10 UNL     1      -5.302  11.219  16.683  1.00  0.00     0.080 A 
HETATM   27  C11 UNL     1      -4.455  10.591  15.797  1.00  0.00     0.027 A 
HETATM   28  C12 UNL     1      -4.883  10.260  14.515  1.00  0.00     0.027 A 
HETATM   29  C13 UNL     1      -6.163  10.550  14.096  1.00  0.00     0.079 A 
HETATM   30  C14 UNL     1      -7.000  11.178  14.991  1.00  0.00     0.027 A 
HETATM   31  C15 UNL     1      -6.603  11.521  16.276  1.00  0.00     0.027 A 
BRANCH  29  32
HETATM   32  S2  UNL     1      -6.674  10.151  12.453  1.00  0.00     0.256 S 
HETATM   33  O4  UNL     1      -7.237  11.434  11.877  1.00  0.00    -0.201 OA
HETATM   34  O5  UNL     1      -5.528   9.671  11.656  1.00  0.00    -0.201 OA
BRANCH  32  35
HETATM   35  N3  UNL     1      -7.906   8.936  12.450  1.00  0.00    -0.324 N 
ATOM     36  H32 UNL     1      -8.218   8.449  13.291  1.00  0.00     0.169 HD
ATOM     37  H31 UNL     1      -8.272   8.776  11.511  1.00  0.00     0.169 HD
ENDBRANCH  32  35
ENDBRANCH  29  32
ENDBRANCH  23  26
ENDBRANCH   1  23
TORSDOF 9
ENDMDL
MODEL 5
REMARK VINA RESULT: -8.598371783      2.782      3.453
REMARK  9 active torsions:
REMARK  status: ('A' for Active; 'I' for Inactive)
REMARK       I    between atoms: N1_2  and  C2_3 
REMARK    1  A    between atoms: N1_2  and  C16_29 
REMARK    2  A    between atoms: C2_3  and  C3_5 
REMARK    3  A    between atoms: C3_5  and  N2_6 
REMARK    4  A    between atoms: N2_6  and  C4_7 
REMARK    5  A    between atoms: N2_6  and  S1_14 
REMARK    6  A    between atoms: S1_14  and  C10_17 
REMARK    7  A    between atoms: C13_20  and  S2_21 
REMARK    8  A    between atoms: S2_21  and  N3_22 
REMARK    9  A    between atoms: C20_33  and  C21_34 
ROOT
HETATM    1  N2  UNL     1      -4.583  10.859  19.275  1.00  0.00    -0.263 N 
ENDROOT
BRANCH   1   2
HETATM    2  C3  UNL     1      -3.308  11.002  19.885  1.00  0.00     0.245 C 
BRANCH   2   3
HETATM    3  C2  UNL     1      -3.244  10.731  21.333  1.00  0.00     0.243 C 
HETATM    4  N1  UNL     1      -2.320  11.403  22.173  1.00  0.00    -0.321 N 
HETATM    5  C1  UNL     1      -1.414  12.365  21.570  1.00  0.00     0.159 C 
HETATM    6  O1  UNL     1      -4.027   9.886  21.824  1.00  0.00    -0.271 OA
BRANCH   4   7
HETATM    7  C16 UNL     1      -2.274  11.142  23.559  1.00  0.00     0.037 A 
HETATM    8  C17 UNL     1      -3.064  11.843  24.469  1.00  0.00     0.030 A 
HETATM    9  C18 UNL     1      -3.020  11.586  25.816  1.00  0.00     0.003 A 
HETATM   10  C19 UNL     1      -2.181  10.613  26.315  1.00  0.00     0.017 A 
HETATM   11  C20 UNL     1      -1.391   9.904  25.465  1.00  0.00     0.031 A 
HETATM   12  C22 UNL     1      -1.449  10.178  24.094  1.00  0.00     0.046 A 
BRANCH  11  13
HETATM   13  C21 UNL     1      -0.507   8.878  25.989  1.00  0.00     0.265 C 
HETATM   14  N4  UNL     1      -0.520   8.615  27.408  1.00  0.00    -0.057 NA
HETATM   15  O6  UNL     1       0.258   8.219  25.283  1.00  0.00    -0.271 OA
ENDBRANCH  11  13
ENDBRANCH   4   7
ENDBRANCH   2   3
ENDBRANCH   1   2
BRANCH   1  16
HETATM   16  C4  UNL     1      -4.813   9.724  18.419  1.00  0.00     0.048 A 
HETATM   17  C5  UNL     1      -5.135   9.827  17.088  1.00  0.00     0.030 A 
HETATM   18  C6  UNL     1      -5.344   8.687  16.320  1.00  0.00     0.005 A 
HETATM   19  C7  UNL     1      -5.240   7.423  16.856  1.00  0.00     0.042 A 
HETATM   20  C8  UNL     1      -4.918   7.319  18.187  1.00  0.00     0.118 A 
HETATM   21  F1  UNL     1      -4.819   6.068  18.702  1.00  0.00    -0.206 F 
HETATM   22  C9  UNL     1      -4.708   8.441  18.961  1.00  0.00     0.072 A 
ENDBRANCH   1  16
BRANCH   1  23
HETATM   23  S1  UNL     1      -5.841  12.008  19.501  1.00  0.00     0.265 S 
HETATM   24  O2  UNL     1      -7.126  11.246  19.610  1.00  0.00    -0.200 OA
HETATM   25  O3  UNL     1      -5.934  12.957  18.324  1.00  0.00    -0.200 OA
BRANCH  23  26
HETATM   26  C10 UNL     1      -5.616  12.932  20.966  1.00  0.00     0.080 A 
HETATM   27  C11 UNL     1      -4.768  14.015  21.038  1.00  0.00     0.027 A 
HETATM   28  C12 UNL     1      -4.620  14.727  22.224  1.00  0.00     0.027 A 
HETATM   29  C13 UNL     1      -5.317  14.371  23.358  1.00  0.00     0.079 A 
HETATM   30  C14 UNL     1      -6.162  13.287  23.274  1.00  0.00     0.027 A 
HETATM   31  C15 UNL     1      -6.330  12.556  22.105  1.00  0.00     0.027 A 
BRANCH  29  32
HETATM   32  S2  UNL     1      -5.090  15.269  24.862  1.00  0.00     0.256 S 
HETATM   33  O4  UNL     1      -5.244  14.252  25.973  1.00  0.00    -0.201 OA
HETATM   34  O5  UNL     1      -3.751  15.891  24.896  1.00  0.00    -0.201 OA
BRANCH  32  35
HETATM   35  N3  UNL     1      -6.286  16.506  25.049  1.00  0.00    -0.324 N 
ATOM     36  H32 UNL     1      -6.214  17.427  24.618  1.00  0.00     0.169 HD
ATOM     37  H31 UNL     1      -7.057  16.194  25.638  1.00  0.00     0.169 HD
ENDBRANCH  32  35
ENDBRANCH  29  32
ENDBRANCH  23  26
ENDBRANCH   1  23
TORSDOF 9
ENDMDL
