MODEL 1
REMARK VINA RESULT: -9.542520860      0.000      0.000
REMARK  6 active torsions:
REMARK  status: ('A' for Active; 'I' for Inactive)
REMARK    1  A    between atoms: C1_2  and  C2_3 
REMARK       I    between atoms: C1_2  and  N3_22 
REMARK    2  A    between atoms: C2_3  and  C3_4 
REMARK    3  A    between atoms: C3_4  and  C4_5 
REMARK       I    between atoms: C4_5  and  N1_7 
REMARK       I    between atoms: N2_10  and  C7_11 
REMARK    4  A    between atoms: C7_11  and  C8_13 
REMARK    5  A    between atoms: N3_22  and  N4_24 
REMARK    6  A    between atoms: N5_27  and  C18_28 
ROOT
HETATM    1  C3  UNL     1      -2.982  14.789  17.800  1.00  0.00     0.112 C 
ENDROOT
BRANCH   1   2
HETATM    2  C2  UNL     1      -1.627  14.695  18.483  1.00  0.00     0.113 C 
BRANCH   2   3
HETATM    3  C1  UNL     1      -1.694  14.077  19.819  1.00  0.00     0.232 C 
HETATM    4  O1  UNL     1      -2.323  14.687  20.749  1.00  0.00    -0.272 OA
HETATM    5  N3  UNL     1      -1.096  12.854  20.093  1.00  0.00    -0.289 N 
ATOM      6  H3  UNL     1      -0.600  12.381  19.338  1.00  0.00     0.183 HD
BRANCH   5   7
HETATM    7  N4  UNL     1      -1.133  12.249  21.315  1.00  0.00    -0.226 NA
HETATM    8  C16 UNL     1      -1.063  10.791  21.102  1.00  0.00     0.133 C 
HETATM    9  C17 UNL     1      -1.607  10.141  22.337  1.00  0.00     0.139 C 
HETATM   10  N5  UNL     1      -1.015  10.709  23.530  1.00  0.00    -0.378 N 
HETATM   11  C24 UNL     1      -0.203  11.902  23.543  1.00  0.00     0.139 C 
HETATM   12  C25 UNL     1      -0.037  12.554  22.201  1.00  0.00     0.133 C 
BRANCH  10  13
HETATM   13  C18 UNL     1      -1.256  10.047  24.791  1.00  0.00     0.030 A 
HETATM   14  C19 UNL     1      -0.463   8.953  25.155  1.00  0.00     0.029 A 
HETATM   15  C20 UNL     1      -0.626   8.274  26.339  1.00  0.00     0.002 A 
HETATM   16  C21 UNL     1      -1.627   8.702  27.204  1.00  0.00     0.000 A 
HETATM   17  C22 UNL     1      -2.397   9.771  26.836  1.00  0.00     0.002 A 
HETATM   18  C23 UNL     1      -2.252  10.474  25.649  1.00  0.00     0.029 A 
ENDBRANCH  10  13
ENDBRANCH   5   7
ENDBRANCH   2   3
ENDBRANCH   1   2
BRANCH   1  19
HETATM   19  C4  UNL     1      -3.227  13.532  17.088  1.00  0.00     0.220 C 
HETATM   20  O2  UNL     1      -2.819  13.405  15.930  1.00  0.00    -0.273 OA
HETATM   21  N1  UNL     1      -3.920  12.463  17.730  1.00  0.00    -0.349 N 
HETATM   22  C5  UNL     1      -3.957  11.218  16.948  1.00  0.00     0.145 C 
HETATM   23  C15 UNL     1      -4.614  12.551  18.973  1.00  0.00     0.145 C 
HETATM   24  C6  UNL     1      -5.004  10.322  17.513  1.00  0.00     0.146 C 
HETATM   25  N2  UNL     1      -4.978  10.184  18.952  1.00  0.00    -0.345 N 
HETATM   26  C7  UNL     1      -5.414   8.982  19.607  1.00  0.00     0.257 C 
HETATM   27  C14 UNL     1      -4.486  11.269  19.754  1.00  0.00     0.146 C 
HETATM   28  O3  UNL     1      -5.372   8.971  20.881  1.00  0.00    -0.267 OA
BRANCH  26  29
HETATM   29  C8  UNL     1      -5.876   7.836  18.856  1.00  0.00     0.070 A 
HETATM   30  C9  UNL     1      -4.985   6.807  18.553  1.00  0.00     0.020 A 
HETATM   31  C10 UNL     1      -5.399   5.700  17.841  1.00  0.00     0.001 A 
HETATM   32  C11 UNL     1      -6.702   5.601  17.418  1.00  0.00     0.003 A 
HETATM   33  C12 UNL     1      -7.586   6.605  17.707  1.00  0.00     0.043 A 
HETATM   34  C13 UNL     1      -7.169   7.734  18.433  1.00  0.00     0.132 A 
HETATM   35  F1  UNL     1      -8.039   8.720  18.722  1.00  0.00    -0.205 F 
ENDBRANCH  26  29
ENDBRANCH   1  19
TORSDOF 6
ENDMDL
MODEL 2
REMARK VINA RESULT: -9.338105541      1.213      1.705
REMARK  6 active torsions:
REMARK  status: ('A' for Active; 'I' for Inactive)
REMARK    1  A    between atoms: C1_2  and  C2_3 
REMARK       I    between atoms: C1_2  and  N3_22 
REMARK    2  A    between atoms: C2_3  and  C3_4 
REMARK    3  A    between atoms: C3_4  and  C4_5 
REMARK       I    between atoms: C4_5  and  N1_7 
REMARK       I    between atoms: N2_10  and  C7_11 
REMARK    4  A    between atoms: C7_11  and  C8_13 
REMARK    5  A    between atoms: N3_22  and  N4_24 
REMARK    6  A    between atoms: N5_27  and  C18_28 
ROOT
HETATM    1  C3  UNL     1      -2.446  14.618  19.131  1.00  0.00     0.112 C 
ENDROOT
BRANCH   1   2
HETATM    2  C2  UNL     1      -1.095  14.360  19.778  1.00  0.00     0.113 C 
BRANCH   2   3
HETATM    3  C1  UNL     1      -1.134  13.291  20.793  1.00  0.00     0.232 C 
HETATM    4  O1  UNL     1      -0.592  12.167  20.524  1.00  0.00    -0.272 OA
HETATM    5  N3  UNL     1      -1.740  13.474  22.029  1.00  0.00    -0.289 N 
ATOM      6  H3  UNL     1      -2.165  14.380  22.227  1.00  0.00     0.183 HD
BRANCH   5   7
HETATM    7  N4  UNL     1      -1.799  12.513  22.994  1.00  0.00    -0.226 NA
HETATM    8  C16 UNL     1      -0.446  12.352  23.559  1.00  0.00     0.133 C 
HETATM    9  C17 UNL     1      -0.400  11.003  24.210  1.00  0.00     0.139 C 
HETATM   10  N5  UNL     1      -1.551  10.797  25.064  1.00  0.00    -0.378 N 
HETATM   11  C24 UNL     1      -2.705  11.663  25.094  1.00  0.00     0.139 C 
HETATM   12  C25 UNL     1      -2.647  12.807  24.123  1.00  0.00     0.133 C 
BRANCH  10  13
HETATM   13  C18 UNL     1      -1.551   9.649  25.940  1.00  0.00     0.030 A 
HETATM   14  C19 UNL     1      -2.517   9.553  26.947  1.00  0.00     0.029 A 
HETATM   15  C20 UNL     1      -2.588   8.491  27.817  1.00  0.00     0.002 A 
HETATM   16  C21 UNL     1      -1.651   7.472  27.680  1.00  0.00     0.000 A 
HETATM   17  C22 UNL     1      -0.710   7.578  26.692  1.00  0.00     0.002 A 
HETATM   18  C23 UNL     1      -0.619   8.637  25.802  1.00  0.00     0.029 A 
ENDBRANCH  10  13
ENDBRANCH   5   7
ENDBRANCH   2   3
ENDBRANCH   1   2
BRANCH   1  19
HETATM   19  C4  UNL     1      -2.746  13.504  18.228  1.00  0.00     0.220 C 
HETATM   20  O2  UNL     1      -2.282  13.514  17.084  1.00  0.00    -0.273 OA
HETATM   21  N1  UNL     1      -3.554  12.415  18.670  1.00  0.00    -0.349 N 
HETATM   22  C5  UNL     1      -3.642  11.305  17.709  1.00  0.00     0.145 C 
HETATM   23  C15 UNL     1      -4.310  12.379  19.878  1.00  0.00     0.145 C 
HETATM   24  C6  UNL     1      -4.784  10.429  18.084  1.00  0.00     0.146 C 
HETATM   25  N2  UNL     1      -4.852  10.080  19.485  1.00  0.00    -0.345 N 
HETATM   26  C7  UNL     1      -5.417   8.836  19.932  1.00  0.00     0.257 C 
HETATM   27  C14 UNL     1      -4.326  10.990  20.463  1.00  0.00     0.146 C 
HETATM   28  O3  UNL     1      -5.448   8.636  21.190  1.00  0.00    -0.267 OA
BRANCH  26  29
HETATM   29  C8  UNL     1      -5.921   7.856  18.997  1.00  0.00     0.070 A 
HETATM   30  C9  UNL     1      -5.060   6.884  18.487  1.00  0.00     0.020 A 
HETATM   31  C10 UNL     1      -5.514   5.934  17.596  1.00  0.00     0.001 A 
HETATM   32  C11 UNL     1      -6.829   5.936  17.197  1.00  0.00     0.003 A 
HETATM   33  C12 UNL     1      -7.684   6.886  17.689  1.00  0.00     0.043 A 
HETATM   34  C13 UNL     1      -7.226   7.855  18.597  1.00  0.00     0.132 A 
HETATM   35  F1  UNL     1      -8.066   8.786  19.086  1.00  0.00    -0.205 F 
ENDBRANCH  26  29
ENDBRANCH   1  19
TORSDOF 6
ENDMDL
MODEL 3
REMARK VINA RESULT: -9.325858339      1.465      1.700
REMARK  6 active torsions:
REMARK  status: ('A' for Active; 'I' for Inactive)
REMARK    1  A    between atoms: C1_2  and  C2_3 
REMARK       I    between atoms: C1_2  and  N3_22 
REMARK    2  A    between atoms: C2_3  and  C3_4 
REMARK    3  A    between atoms: C3_4  and  C4_5 
REMARK       I    between atoms: C4_5  and  N1_7 
REMARK       I    between atoms: N2_10  and  C7_11 
REMARK    4  A    between atoms: C7_11  and  C8_13 
REMARK    5  A    between atoms: N3_22  and  N4_24 
REMARK    6  A    between atoms: N5_27  and  C18_28 
ROOT
HETATM    1  C3  UNL     1      -3.403  15.220  20.115  1.00  0.00     0.112 C 
ENDROOT
BRANCH   1   2
HETATM    2  C2  UNL     1      -2.277  15.399  21.120  1.00  0.00     0.113 C 
BRANCH   2   3
HETATM    3  C1  UNL     1      -2.301  14.397  22.201  1.00  0.00     0.232 C 
HETATM    4  O1  UNL     1      -3.171  14.512  23.128  1.00  0.00    -0.272 OA
HETATM    5  N3  UNL     1      -1.407  13.334  22.237  1.00  0.00    -0.289 N 
ATOM      6  H3  UNL     1      -0.721  13.257  21.487  1.00  0.00     0.183 HD
BRANCH   5   7
HETATM    7  N4  UNL     1      -1.394  12.388  23.218  1.00  0.00    -0.226 NA
HETATM    8  C16 UNL     1      -2.230  11.258  22.771  1.00  0.00     0.133 C 
HETATM    9  C17 UNL     1      -2.626  10.493  23.997  1.00  0.00     0.139 C 
HETATM   10  N5  UNL     1      -1.479  10.231  24.841  1.00  0.00    -0.378 N 
HETATM   11  C24 UNL     1      -0.182  10.835  24.657  1.00  0.00     0.139 C 
HETATM   12  C25 UNL     1      -0.107  11.810  23.517  1.00  0.00     0.133 C 
BRANCH  10  13
HETATM   13  C18 UNL     1      -1.642   9.313  25.944  1.00  0.00     0.030 A 
HETATM   14  C19 UNL     1      -0.780   8.216  26.058  1.00  0.00     0.029 A 
HETATM   15  C20 UNL     1      -0.866   7.301  27.081  1.00  0.00     0.002 A 
HETATM   16  C21 UNL     1      -1.859   7.485  28.038  1.00  0.00     0.000 A 
HETATM   17  C22 UNL     1      -2.696   8.560  27.914  1.00  0.00     0.002 A 
HETATM   18  C23 UNL     1      -2.629   9.497  26.895  1.00  0.00     0.029 A 
ENDBRANCH  10  13
ENDBRANCH   5   7
ENDBRANCH   2   3
ENDBRANCH   1   2
BRANCH   1  19
HETATM   19  C4  UNL     1      -3.163  13.982  19.369  1.00  0.00     0.220 C 
HETATM   20  O2  UNL     1      -2.136  13.876  18.692  1.00  0.00    -0.273 OA
HETATM   21  N1  UNL     1      -4.099  12.908  19.433  1.00  0.00    -0.349 N 
HETATM   22  C5  UNL     1      -3.650  11.681  18.758  1.00  0.00     0.145 C 
HETATM   23  C15 UNL     1      -5.404  12.976  20.004  1.00  0.00     0.145 C 
HETATM   24  C6  UNL     1      -4.821  10.786  18.551  1.00  0.00     0.146 C 
HETATM   25  N2  UNL     1      -5.672  10.615  19.707  1.00  0.00    -0.345 N 
HETATM   26  C7  UNL     1      -6.411   9.404  19.934  1.00  0.00     0.257 C 
HETATM   27  C14 UNL     1      -5.770  11.675  20.671  1.00  0.00     0.146 C 
HETATM   28  O3  UNL     1      -7.149   9.365  20.973  1.00  0.00    -0.267 OA
BRANCH  26  29
HETATM   29  C8  UNL     1      -6.320   8.282  19.028  1.00  0.00     0.070 A 
HETATM   30  C9  UNL     1      -5.176   7.484  19.034  1.00  0.00     0.020 A 
HETATM   31  C10 UNL     1      -5.062   6.404  18.183  1.00  0.00     0.001 A 
HETATM   32  C11 UNL     1      -6.081   6.102  17.313  1.00  0.00     0.003 A 
HETATM   33  C12 UNL     1      -7.209   6.878  17.296  1.00  0.00     0.043 A 
HETATM   34  C13 UNL     1      -7.330   7.978  18.162  1.00  0.00     0.132 A 
HETATM   35  F1  UNL     1      -8.440   8.740  18.150  1.00  0.00    -0.205 F 
ENDBRANCH  26  29
ENDBRANCH   1  19
TORSDOF 6
ENDMDL
MODEL 4
REMARK VINA RESULT: -9.251357545      1.153      1.626
REMARK  6 active torsions:
REMARK  status: ('A' for Active; 'I' for Inactive)
REMARK    1  A    between atoms: C1_2  and  C2_3 
REMARK       I    between atoms: C1_2  and  N3_22 
REMARK    2  A    between atoms: C2_3  and  C3_4 
REMARK    3  A    between atoms: C3_4  and  C4_5 
REMARK       I    between atoms: C4_5  and  N1_7 
REMARK       I    between atoms: N2_10  and  C7_11 
REMARK    4  A    between atoms: C7_11  and  C8_13 
REMARK    5  A    between atoms: N3_22  and  N4_24 
REMARK    6  A    between atoms: N5_27  and  C18_28 
ROOT
HETATM    1  C3  UNL     1      -3.710  15.050  18.896  1.00  0.00     0.112 C 
ENDROOT
BRANCH   1   2
HETATM    2  C2  UNL     1      -2.476  15.264  19.757  1.00  0.00     0.113 C 
BRANCH   2   3
HETATM    3  C1  UNL     1      -2.442  14.395  20.947  1.00  0.00     0.232 C 
HETATM    4  O1  UNL     1      -3.332  14.552  21.849  1.00  0.00    -0.272 OA
HETATM    5  N3  UNL     1      -1.475  13.412  21.112  1.00  0.00    -0.289 N 
ATOM      6  H3  UNL     1      -0.774  13.300  20.380  1.00  0.00     0.183 HD
BRANCH   5   7
HETATM    7  N4  UNL     1      -1.408  12.589  22.197  1.00  0.00    -0.226 NA
HETATM    8  C16 UNL     1      -1.762  11.227  21.756  1.00  0.00     0.133 C 
HETATM    9  C17 UNL     1      -2.183  10.466  22.977  1.00  0.00     0.139 C 
HETATM   10  N5  UNL     1      -1.226  10.633  24.050  1.00  0.00    -0.378 N 
HETATM   11  C24 UNL     1      -0.150  11.595  24.035  1.00  0.00     0.139 C 
HETATM   12  C25 UNL     1      -0.108  12.461  22.810  1.00  0.00     0.133 C 
BRANCH  10  13
HETATM   13  C18 UNL     1      -1.357   9.791  25.216  1.00  0.00     0.030 A 
HETATM   14  C19 UNL     1      -2.350  10.076  26.161  1.00  0.00     0.029 A 
HETATM   15  C20 UNL     1      -2.542   9.321  27.293  1.00  0.00     0.002 A 
HETATM   16  C21 UNL     1      -1.707   8.228  27.498  1.00  0.00     0.000 A 
HETATM   17  C22 UNL     1      -0.740   7.961  26.568  1.00  0.00     0.002 A 
HETATM   18  C23 UNL     1      -0.527   8.705  25.418  1.00  0.00     0.029 A 
ENDBRANCH  10  13
ENDBRANCH   5   7
ENDBRANCH   2   3
ENDBRANCH   1   2
BRANCH   1  19
HETATM   19  C4  UNL     1      -3.559  13.781  18.180  1.00  0.00     0.220 C 
HETATM   20  O2  UNL     1      -2.705  13.688  17.293  1.00  0.00    -0.273 OA
HETATM   21  N1  UNL     1      -4.380  12.664  18.511  1.00  0.00    -0.349 N 
HETATM   22  C5  UNL     1      -4.011  11.421  17.815  1.00  0.00     0.145 C 
HETATM   23  C15 UNL     1      -5.526  12.698  19.359  1.00  0.00     0.145 C 
HETATM   24  C6  UNL     1      -5.135  10.452  17.927  1.00  0.00     0.146 C 
HETATM   25  N2  UNL     1      -5.690  10.311  19.254  1.00  0.00    -0.345 N 
HETATM   26  C7  UNL     1      -6.275   9.078  19.705  1.00  0.00     0.257 C 
HETATM   27  C14 UNL     1      -5.643  11.425  20.158  1.00  0.00     0.146 C 
HETATM   28  O3  UNL     1      -6.757   9.067  20.885  1.00  0.00    -0.267 OA
BRANCH  26  29
HETATM   29  C8  UNL     1      -6.313   7.905  18.862  1.00  0.00     0.070 A 
HETATM   30  C9  UNL     1      -7.521   7.509  18.288  1.00  0.00     0.020 A 
HETATM   31  C10 UNL     1      -7.586   6.395  17.475  1.00  0.00     0.001 A 
HETATM   32  C11 UNL     1      -6.454   5.659  17.224  1.00  0.00     0.003 A 
HETATM   33  C12 UNL     1      -5.263   6.037  17.782  1.00  0.00     0.043 A 
HETATM   34  C13 UNL     1      -5.191   7.171  18.609  1.00  0.00     0.132 A 
HETATM   35  F1  UNL     1      -4.019   7.546  19.155  1.00  0.00    -0.205 F 
ENDBRANCH  26  29
ENDBRANCH   1  19
TORSDOF 6
ENDMDL
MODEL 5
REMARK VINA RESULT: -9.248135119      0.699      1.097
REMARK  6 active torsions:
REMARK  status: ('A' for Active; 'I' for Inactive)
REMARK    1  A    between atoms: C1_2  and  C2_3 
REMARK       I    between atoms: C1_2  and  N3_22 
REMARK    2  A    between atoms: C2_3  and  C3_4 
REMARK    3  A    between atoms: C3_4  and  C4_5 
REMARK       I    between atoms: C4_5  and  N1_7 
REMARK       I    between atoms: N2_10  and  C7_11 
REMARK    4  A    between atoms: C7_11  and  C8_13 
REMARK    5  A    between atoms: N3_22  and  N4_24 
REMARK    6  A    between atoms: N5_27  and  C18_28 
ROOT
HETATM    1  C3  UNL     1      -3.001  14.491  16.778  1.00  0.00     0.112 C 
ENDROOT
BRANCH   1   2
HETATM    2  C2  UNL     1      -1.634  14.437  17.441  1.00  0.00     0.113 C 
BRANCH   2   3
HETATM    3  C1  UNL     1      -1.683  13.952  18.831  1.00  0.00     0.232 C 
HETATM    4  O1  UNL     1      -2.257  14.673  19.715  1.00  0.00    -0.272 OA
HETATM    5  N3  UNL     1      -1.127  12.735  19.205  1.00  0.00    -0.289 N 
ATOM      6  H3  UNL     1      -0.675  12.172  18.485  1.00  0.00     0.183 HD
BRANCH   5   7
HETATM    7  N4  UNL     1      -1.150  12.250  20.479  1.00  0.00    -0.226 NA
HETATM    8  C16 UNL     1      -1.267  10.782  20.404  1.00  0.00     0.133 C 
HETATM    9  C17 UNL     1      -1.797  10.317  21.727  1.00  0.00     0.139 C 
HETATM   10  N5  UNL     1      -1.061  10.911  22.822  1.00  0.00    -0.378 N 
HETATM   11  C24 UNL     1      -0.115  11.991  22.673  1.00  0.00     0.139 C 
HETATM   12  C25 UNL     1       0.033  12.496  21.267  1.00  0.00     0.133 C 
BRANCH  10  13
HETATM   13  C18 UNL     1      -1.290  10.399  24.153  1.00  0.00     0.030 A 
HETATM   14  C19 UNL     1      -2.373  10.880  24.897  1.00  0.00     0.029 A 
HETATM   15  C20 UNL     1      -2.661  10.440  26.167  1.00  0.00     0.002 A 
HETATM   16  C21 UNL     1      -1.832   9.474  26.727  1.00  0.00     0.000 A 
HETATM   17  C22 UNL     1      -0.775   9.013  25.990  1.00  0.00     0.002 A 
HETATM   18  C23 UNL     1      -0.465   9.439  24.707  1.00  0.00     0.029 A 
ENDBRANCH  10  13
ENDBRANCH   5   7
ENDBRANCH   2   3
ENDBRANCH   1   2
BRANCH   1  19
HETATM   19  C4  UNL     1      -3.290  13.171  16.211  1.00  0.00     0.220 C 
HETATM   20  O2  UNL     1      -2.937  12.921  15.054  1.00  0.00    -0.273 OA
HETATM   21  N1  UNL     1      -3.962  12.184  16.990  1.00  0.00    -0.349 N 
HETATM   22  C5  UNL     1      -4.047  10.865  16.342  1.00  0.00     0.145 C 
HETATM   23  C15 UNL     1      -4.596  12.407  18.247  1.00  0.00     0.145 C 
HETATM   24  C6  UNL     1      -5.073  10.047  17.042  1.00  0.00     0.146 C 
HETATM   25  N2  UNL     1      -4.982  10.056  18.485  1.00  0.00    -0.345 N 
HETATM   26  C7  UNL     1      -5.398   8.933  19.279  1.00  0.00     0.257 C 
HETATM   27  C14 UNL     1      -4.443  11.209  19.149  1.00  0.00     0.146 C 
HETATM   28  O3  UNL     1      -5.296   9.051  20.544  1.00  0.00    -0.267 OA
BRANCH  26  29
HETATM   29  C8  UNL     1      -5.905   7.723  18.672  1.00  0.00     0.070 A 
HETATM   30  C9  UNL     1      -5.046   6.644  18.466  1.00  0.00     0.020 A 
HETATM   31  C10 UNL     1      -5.502   5.476  17.891  1.00  0.00     0.001 A 
HETATM   32  C11 UNL     1      -6.817   5.363  17.511  1.00  0.00     0.003 A 
HETATM   33  C12 UNL     1      -7.671   6.416  17.706  1.00  0.00     0.043 A 
HETATM   34  C13 UNL     1      -7.210   7.607  18.292  1.00  0.00     0.132 A 
HETATM   35  F1  UNL     1      -8.049   8.642  18.489  1.00  0.00    -0.205 F 
ENDBRANCH  26  29
ENDBRANCH   1  19
TORSDOF 6
ENDMDL
