MODEL 1
REMARK VINA RESULT: -7.713908935      0.000      0.000
REMARK  7 active torsions:
REMARK  status: ('A' for Active; 'I' for Inactive)
REMARK    1  A    between atoms: C2_2  and  C4_5 
REMARK    2  A    between atoms: C4_5  and  C5_7 
REMARK    3  A    between atoms: C6_8  and  C7_9 
REMARK       I    between atoms: C7_9  and  N1_11 
REMARK    4  A    between atoms: N2_14  and  S1_15 
REMARK    5  A    between atoms: S1_15  and  C10_18 
REMARK    6  A    between atoms: C10_18  and  C11_19 
REMARK    7  A    between atoms: C16_24  and  C18_26 
ROOT
HETATM    1  C7  UNL     1      -7.286  10.260  20.951  1.00  0.00     0.243 C 
HETATM    2  O2  UNL     1      -8.307   9.761  21.484  1.00  0.00    -0.268 OA
HETATM    3  N1  UNL     1      -6.877  11.552  21.382  1.00  0.00    -0.342 N 
HETATM    4  C8  UNL     1      -7.590  12.287  22.397  1.00  0.00     0.171 C 
HETATM    5  C9  UNL     1      -6.663  12.891  23.432  1.00  0.00     0.096 C 
HETATM    6  N2  UNL     1      -5.439  13.323  22.923  1.00  0.00    -0.287 N 
HETATM    7  C19 UNL     1      -5.373  13.420  21.480  1.00  0.00     0.160 C 
HETATM    8  C20 UNL     1      -5.707  12.147  20.783  1.00  0.00     0.147 C 
ENDROOT
BRANCH   6   9
HETATM    9  S1  UNL     1      -3.997  12.991  23.682  1.00  0.00     0.232 S 
HETATM   10  O3  UNL     1      -3.855  11.441  23.681  1.00  0.00    -0.205 OA
HETATM   11  O4  UNL     1      -4.173  13.284  25.181  1.00  0.00    -0.205 OA
BRANCH   9  12
HETATM   12  C10 UNL     1      -2.539  13.636  23.066  1.00  0.00     0.174 C 
BRANCH  12  13
HETATM   13  C11 UNL     1      -1.606  12.981  22.196  1.00  0.00    -0.008 C 
HETATM   14  C12 UNL     1      -1.876  12.873  20.714  1.00  0.00     0.012 C 
HETATM   15  C13 UNL     1      -0.473  12.521  20.221  1.00  0.00     0.007 C 
HETATM   16  C14 UNL     1       0.284  12.672  21.522  1.00  0.00     0.006 C 
HETATM   17  C15 UNL     1      -0.303  13.917  22.049  1.00  0.00     0.017 C 
HETATM   18  C16 UNL     1      -0.645  11.925  22.495  1.00  0.00     0.057 C 
HETATM   19  C17 UNL     1      -0.899  10.513  21.940  1.00  0.00     0.028 C 
BRANCH  18  20
HETATM   20  C18 UNL     1      -0.072  11.776  23.834  1.00  0.00     0.182 C 
HETATM   21  O5  UNL     1      -0.796  11.346  24.767  1.00  0.00    -0.647 OA
HETATM   22  O6  UNL     1       1.225  12.080  24.151  1.00  0.00    -0.647 OA
ENDBRANCH  18  20
ENDBRANCH  12  13
ENDBRANCH   9  12
ENDBRANCH   6   9
BRANCH   1  23
HETATM   23  C6  UNL     1      -6.540   9.535  19.916  1.00  0.00     0.078 C 
HETATM   24  C5  UNL     1      -6.510   8.219  19.871  1.00  0.00     0.057 C 
BRANCH  24  25
HETATM   25  C4  UNL     1      -5.752   7.556  18.820  1.00  0.00     0.172 C 
HETATM   26  O1  UNL     1      -4.503   7.696  18.760  1.00  0.00    -0.291 OA
BRANCH  25  27
HETATM   27  C2  UNL     1      -6.431   6.703  17.802  1.00  0.00     0.094 C 
HETATM   28  C1  UNL     1      -5.460   6.536  16.632  1.00  0.00     0.041 C 
HETATM   29  C3  UNL     1      -6.746   5.360  18.375  1.00  0.00     0.041 C 
HETATM   30 CL1  UNL     1      -7.920   7.474  17.222  1.00  0.00    -0.111 Cl
ENDBRANCH  25  27
ENDBRANCH  24  25
ENDBRANCH   1  23
TORSDOF 7
ENDMDL
MODEL 2
REMARK VINA RESULT: -7.667778663      3.681      8.864
REMARK  7 active torsions:
REMARK  status: ('A' for Active; 'I' for Inactive)
REMARK    1  A    between atoms: C2_2  and  C4_5 
REMARK    2  A    between atoms: C4_5  and  C5_7 
REMARK    3  A    between atoms: C6_8  and  C7_9 
REMARK       I    between atoms: C7_9  and  N1_11 
REMARK    4  A    between atoms: N2_14  and  S1_15 
REMARK    5  A    between atoms: S1_15  and  C10_18 
REMARK    6  A    between atoms: C10_18  and  C11_19 
REMARK    7  A    between atoms: C16_24  and  C18_26 
ROOT
HETATM    1  C7  UNL     1      -1.261  12.868  22.310  1.00  0.00     0.243 C 
HETATM    2  O2  UNL     1      -1.731  13.504  23.284  1.00  0.00    -0.268 OA
HETATM    3  N1  UNL     1      -1.898  11.651  21.942  1.00  0.00    -0.342 N 
HETATM    4  C8  UNL     1      -3.050  11.142  22.645  1.00  0.00     0.171 C 
HETATM    5  C9  UNL     1      -4.143  10.680  21.703  1.00  0.00     0.096 C 
HETATM    6  N2  UNL     1      -3.678  10.103  20.522  1.00  0.00    -0.287 N 
HETATM    7  C19 UNL     1      -2.273   9.753  20.522  1.00  0.00     0.160 C 
HETATM    8  C20 UNL     1      -1.375  10.901  20.826  1.00  0.00     0.147 C 
ENDROOT
BRANCH   6   9
HETATM    9  S1  UNL     1      -4.318  10.487  19.037  1.00  0.00     0.232 S 
HETATM   10  O3  UNL     1      -3.286  11.428  18.350  1.00  0.00    -0.205 OA
HETATM   11  O4  UNL     1      -5.502  11.441  19.264  1.00  0.00    -0.205 OA
BRANCH   9  12
HETATM   12  C10 UNL     1      -4.694   9.246  17.923  1.00  0.00     0.174 C 
BRANCH  12  13
HETATM   13  C11 UNL     1      -5.674   8.211  18.083  1.00  0.00    -0.008 C 
HETATM   14  C12 UNL     1      -5.291   6.756  17.939  1.00  0.00     0.012 C 
HETATM   15  C13 UNL     1      -6.502   6.104  18.603  1.00  0.00     0.007 C 
HETATM   16  C14 UNL     1      -7.201   7.348  19.105  1.00  0.00     0.006 C 
HETATM   17  C15 UNL     1      -6.063   8.115  19.642  1.00  0.00     0.017 C 
HETATM   18  C16 UNL     1      -7.115   8.257  17.866  1.00  0.00     0.057 C 
HETATM   19  C17 UNL     1      -7.709   7.501  16.665  1.00  0.00     0.028 C 
BRANCH  18  20
HETATM   20  C18 UNL     1      -7.866   9.504  18.017  1.00  0.00     0.182 C 
HETATM   21  O5  UNL     1      -7.829  10.359  17.097  1.00  0.00    -0.647 OA
HETATM   22  O6  UNL     1      -8.623   9.816  19.115  1.00  0.00    -0.647 OA
ENDBRANCH  18  20
ENDBRANCH  12  13
ENDBRANCH   9  12
ENDBRANCH   6   9
BRANCH   1  23
HETATM   23  C6  UNL     1      -0.090  13.362  21.576  1.00  0.00     0.078 C 
HETATM   24  C5  UNL     1       0.953  13.878  22.194  1.00  0.00     0.057 C 
BRANCH  24  25
HETATM   25  C4  UNL     1       2.085  14.352  21.411  1.00  0.00     0.172 C 
HETATM   26  O1  UNL     1       2.857  13.528  20.855  1.00  0.00    -0.291 OA
BRANCH  25  27
HETATM   27  C2  UNL     1       2.354  15.811  21.253  1.00  0.00     0.094 C 
HETATM   28  C1  UNL     1       2.633  16.374  22.648  1.00  0.00     0.041 C 
HETATM   29  C3  UNL     1       3.553  16.028  20.388  1.00  0.00     0.041 C 
HETATM   30 CL1  UNL     1       0.950  16.642  20.556  1.00  0.00    -0.111 Cl
ENDBRANCH  25  27
ENDBRANCH  24  25
ENDBRANCH   1  23
TORSDOF 7
ENDMDL
MODEL 3
REMARK VINA RESULT: -7.654000513      1.105      1.493
REMARK  7 active torsions:
REMARK  status: ('A' for Active; 'I' for Inactive)
REMARK    1  A    between atoms: C2_2  and  C4_5 
REMARK    2  A    between atoms: C4_5  and  C5_7 
REMARK    3  A    between atoms: C6_8  and  C7_9 
REMARK       I    between atoms: C7_9  and  N1_11 
REMARK    4  A    between atoms: N2_14  and  S1_15 
REMARK    5  A    between atoms: S1_15  and  C10_18 
REMARK    6  A    between atoms: C10_18  and  C11_19 
REMARK    7  A    between atoms: C16_24  and  C18_26 
ROOT
HETATM    1  C7  UNL     1      -7.376  10.240  20.962  1.00  0.00     0.243 C 
HETATM    2  O2  UNL     1      -8.297   9.674  21.599  1.00  0.00    -0.268 OA
HETATM    3  N1  UNL     1      -7.073  11.590  21.291  1.00  0.00    -0.342 N 
HETATM    4  C8  UNL     1      -7.783  12.309  22.319  1.00  0.00     0.171 C 
HETATM    5  C9  UNL     1      -6.851  13.065  23.244  1.00  0.00     0.096 C 
HETATM    6  N2  UNL     1      -5.720  13.586  22.618  1.00  0.00    -0.287 N 
HETATM    7  C19 UNL     1      -5.770  13.602  21.172  1.00  0.00     0.160 C 
HETATM    8  C20 UNL     1      -6.019  12.262  20.571  1.00  0.00     0.147 C 
ENDROOT
BRANCH   6   9
HETATM    9  S1  UNL     1      -4.200  13.447  23.277  1.00  0.00     0.232 S 
HETATM   10  O3  UNL     1      -4.276  12.272  24.296  1.00  0.00    -0.205 OA
HETATM   11  O4  UNL     1      -3.976  14.649  24.209  1.00  0.00    -0.205 OA
BRANCH   9  12
HETATM   12  C10 UNL     1      -2.853  13.155  22.265  1.00  0.00     0.174 C 
BRANCH  12  13
HETATM   13  C11 UNL     1      -2.376  11.882  21.810  1.00  0.00    -0.008 C 
HETATM   14  C12 UNL     1      -3.321  10.713  21.656  1.00  0.00     0.012 C 
HETATM   15  C13 UNL     1      -2.463   9.803  20.779  1.00  0.00     0.007 C 
HETATM   16  C14 UNL     1      -1.306  10.741  20.516  1.00  0.00     0.006 C 
HETATM   17  C15 UNL     1      -2.020  12.001  20.244  1.00  0.00     0.017 C 
HETATM   18  C16 UNL     1      -1.046  11.294  21.928  1.00  0.00     0.057 C 
HETATM   19  C17 UNL     1      -0.842  10.109  22.887  1.00  0.00     0.028 C 
BRANCH  18  20
HETATM   20  C18 UNL     1       0.151  12.133  22.003  1.00  0.00     0.182 C 
HETATM   21  O5  UNL     1       0.446  12.687  23.093  1.00  0.00    -0.647 OA
HETATM   22  O6  UNL     1       0.992  12.366  20.948  1.00  0.00    -0.647 OA
ENDBRANCH  18  20
ENDBRANCH  12  13
ENDBRANCH   9  12
ENDBRANCH   6   9
BRANCH   1  23
HETATM   23  C6  UNL     1      -6.635   9.533  19.910  1.00  0.00     0.078 C 
HETATM   24  C5  UNL     1      -6.477   8.225  19.929  1.00  0.00     0.057 C 
BRANCH  24  25
HETATM   25  C4  UNL     1      -5.732   7.579  18.858  1.00  0.00     0.172 C 
HETATM   26  O1  UNL     1      -4.482   7.710  18.791  1.00  0.00    -0.291 OA
BRANCH  25  27
HETATM   27  C2  UNL     1      -6.426   6.756  17.826  1.00  0.00     0.094 C 
HETATM   28  C1  UNL     1      -5.471   6.620  16.638  1.00  0.00     0.041 C 
HETATM   29  C3  UNL     1      -6.735   5.397  18.366  1.00  0.00     0.041 C 
HETATM   30 CL1  UNL     1      -7.922   7.544  17.288  1.00  0.00    -0.111 Cl
ENDBRANCH  25  27
ENDBRANCH  24  25
ENDBRANCH   1  23
TORSDOF 7
ENDMDL
MODEL 4
REMARK VINA RESULT: -7.623483394      3.264      7.824
REMARK  7 active torsions:
REMARK  status: ('A' for Active; 'I' for Inactive)
REMARK    1  A    between atoms: C2_2  and  C4_5 
REMARK    2  A    between atoms: C4_5  and  C5_7 
REMARK    3  A    between atoms: C6_8  and  C7_9 
REMARK       I    between atoms: C7_9  and  N1_11 
REMARK    4  A    between atoms: N2_14  and  S1_15 
REMARK    5  A    between atoms: S1_15  and  C10_18 
REMARK    6  A    between atoms: C10_18  and  C11_19 
REMARK    7  A    between atoms: C16_24  and  C18_26 
ROOT
HETATM    1  C7  UNL     1      -3.294  11.971  18.986  1.00  0.00     0.243 C 
HETATM    2  O2  UNL     1      -2.813  12.134  17.838  1.00  0.00    -0.268 OA
HETATM    3  N1  UNL     1      -4.665  12.293  19.183  1.00  0.00    -0.342 N 
HETATM    4  C8  UNL     1      -5.500  12.789  18.117  1.00  0.00     0.171 C 
HETATM    5  C9  UNL     1      -6.843  12.091  18.063  1.00  0.00     0.096 C 
HETATM    6  N2  UNL     1      -7.359  11.741  19.310  1.00  0.00    -0.287 N 
HETATM    7  C19 UNL     1      -6.707  12.366  20.441  1.00  0.00     0.160 C 
HETATM    8  C20 UNL     1      -5.240  12.116  20.494  1.00  0.00     0.147 C 
ENDROOT
BRANCH   6   9
HETATM    9  S1  UNL     1      -8.024  10.246  19.606  1.00  0.00     0.232 S 
HETATM   10  O3  UNL     1      -9.487  10.507  20.069  1.00  0.00    -0.205 OA
HETATM   11  O4  UNL     1      -7.388   9.690  20.890  1.00  0.00    -0.205 OA
BRANCH   9  12
HETATM   12  C10 UNL     1      -8.087   9.078  18.359  1.00  0.00     0.174 C 
BRANCH  12  13
HETATM   13  C11 UNL     1      -7.211   7.956  18.183  1.00  0.00    -0.008 C 
HETATM   14  C12 UNL     1      -7.234   6.799  19.154  1.00  0.00     0.012 C 
HETATM   15  C13 UNL     1      -6.496   5.751  18.322  1.00  0.00     0.007 C 
HETATM   16  C14 UNL     1      -6.375   6.515  17.022  1.00  0.00     0.006 C 
HETATM   17  C15 UNL     1      -7.721   7.105  16.915  1.00  0.00     0.017 C 
HETATM   18  C16 UNL     1      -5.909   7.891  17.530  1.00  0.00     0.057 C 
HETATM   19  C17 UNL     1      -4.654   7.691  18.396  1.00  0.00     0.028 C 
BRANCH  18  20
HETATM   20  C18 UNL     1      -5.555   8.811  16.447  1.00  0.00     0.182 C 
HETATM   21  O5  UNL     1      -4.687   9.697  16.652  1.00  0.00    -0.647 OA
HETATM   22  O6  UNL     1      -6.115   8.776  15.198  1.00  0.00    -0.647 OA
ENDBRANCH  18  20
ENDBRANCH  12  13
ENDBRANCH   9  12
ENDBRANCH   6   9
BRANCH   1  23
HETATM   23  C6  UNL     1      -2.469  11.468  20.090  1.00  0.00     0.078 C 
HETATM   24  C5  UNL     1      -1.433  12.141  20.549  1.00  0.00     0.057 C 
BRANCH  24  25
HETATM   25  C4  UNL     1      -0.651  11.590  21.646  1.00  0.00     0.172 C 
HETATM   26  O1  UNL     1      -0.101  10.465  21.526  1.00  0.00    -0.291 OA
BRANCH  25  27
HETATM   27  C2  UNL     1      -0.486  12.339  22.926  1.00  0.00     0.094 C 
HETATM   28  C1  UNL     1       0.675  13.317  22.731  1.00  0.00     0.041 C 
HETATM   29  C3  UNL     1      -1.727  13.108  23.241  1.00  0.00     0.041 C 
HETATM   30 CL1  UNL     1      -0.105  11.236  24.262  1.00  0.00    -0.111 Cl
ENDBRANCH  25  27
ENDBRANCH  24  25
ENDBRANCH   1  23
TORSDOF 7
ENDMDL
MODEL 5
REMARK VINA RESULT: -7.582669676      3.729      7.984
REMARK  7 active torsions:
REMARK  status: ('A' for Active; 'I' for Inactive)
REMARK    1  A    between atoms: C2_2  and  C4_5 
REMARK    2  A    between atoms: C4_5  and  C5_7 
REMARK    3  A    between atoms: C6_8  and  C7_9 
REMARK       I    between atoms: C7_9  and  N1_11 
REMARK    4  A    between atoms: N2_14  and  S1_15 
REMARK    5  A    between atoms: S1_15  and  C10_18 
REMARK    6  A    between atoms: C10_18  and  C11_19 
REMARK    7  A    between atoms: C16_24  and  C18_26 
ROOT
HETATM    1  C7  UNL     1      -1.783  12.603  19.576  1.00  0.00     0.243 C 
HETATM    2  O2  UNL     1      -0.582  12.789  19.266  1.00  0.00    -0.268 OA
HETATM    3  N1  UNL     1      -2.771  12.862  18.587  1.00  0.00    -0.342 N 
HETATM    4  C8  UNL     1      -2.433  13.322  17.263  1.00  0.00     0.171 C 
HETATM    5  C9  UNL     1      -3.175  12.565  16.181  1.00  0.00     0.096 C 
HETATM    6  N2  UNL     1      -4.472  12.189  16.529  1.00  0.00    -0.287 N 
HETATM    7  C19 UNL     1      -5.004  12.841  17.706  1.00  0.00     0.160 C 
HETATM    8  C20 UNL     1      -4.160  12.657  18.920  1.00  0.00     0.147 C 
ENDROOT
BRANCH   6   9
HETATM    9  S1  UNL     1      -5.064  10.665  16.227  1.00  0.00     0.232 S 
HETATM   10  O3  UNL     1      -4.499  10.249  14.837  1.00  0.00    -0.205 OA
HETATM   11  O4  UNL     1      -6.566  10.793  15.924  1.00  0.00    -0.205 OA
BRANCH   9  12
HETATM   12  C10 UNL     1      -4.731   9.389  17.314  1.00  0.00     0.174 C 
BRANCH  12  13
HETATM   13  C11 UNL     1      -5.482   8.179  17.480  1.00  0.00    -0.008 C 
HETATM   14  C12 UNL     1      -5.400   7.072  16.455  1.00  0.00     0.012 C 
HETATM   15  C13 UNL     1      -5.985   5.921  17.271  1.00  0.00     0.007 C 
HETATM   16  C14 UNL     1      -6.109   6.613  18.610  1.00  0.00     0.006 C 
HETATM   17  C15 UNL     1      -4.823   7.329  18.678  1.00  0.00     0.017 C 
HETATM   18  C16 UNL     1      -6.734   7.956  18.193  1.00  0.00     0.057 C 
HETATM   19  C17 UNL     1      -8.009   7.669  17.383  1.00  0.00     0.028 C 
BRANCH  18  20
HETATM   20  C18 UNL     1      -7.116   8.789  19.335  1.00  0.00     0.182 C 
HETATM   21  O5  UNL     1      -7.460   8.237  20.411  1.00  0.00    -0.647 OA
HETATM   22  O6  UNL     1      -7.127  10.158  19.316  1.00  0.00    -0.647 OA
ENDBRANCH  18  20
ENDBRANCH  12  13
ENDBRANCH   9  12
ENDBRANCH   6   9
BRANCH   1  23
HETATM   23  C6  UNL     1      -2.158  12.135  20.915  1.00  0.00     0.078 C 
HETATM   24  C5  UNL     1      -1.680  11.015  21.421  1.00  0.00     0.057 C 
BRANCH  24  25
HETATM   25  C4  UNL     1      -2.089  10.602  22.756  1.00  0.00     0.172 C 
HETATM   26  O1  UNL     1      -3.185  10.007  22.924  1.00  0.00    -0.291 OA
BRANCH  25  27
HETATM   27  C2  UNL     1      -1.226  10.871  23.942  1.00  0.00     0.094 C 
HETATM   28  C1  UNL     1      -2.119  11.489  25.020  1.00  0.00     0.041 C 
HETATM   29  C3  UNL     1      -0.641   9.598  24.460  1.00  0.00     0.041 C 
HETATM   30 CL1  UNL     1       0.073  12.009  23.536  1.00  0.00    -0.111 Cl
ENDBRANCH  25  27
ENDBRANCH  24  25
ENDBRANCH   1  23
TORSDOF 7
ENDMDL
