MODEL 1
REMARK VINA RESULT: -8.147796093      0.000      0.000
REMARK  8 active torsions:
REMARK  status: ('A' for Active; 'I' for Inactive)
REMARK    1  A    between atoms: N1_2  and  C2_3 
REMARK    2  A    between atoms: C2_3  and  C3_4 
REMARK    3  A    between atoms: C3_4  and  O2_6 
REMARK    4  A    between atoms: O2_6  and  C4_7 
REMARK    5  A    between atoms: C4_7  and  C5_8 
REMARK    6  A    between atoms: C12_15  and  C13_16 
REMARK       I    between atoms: C13_16  and  N2_18 
REMARK    7  A    between atoms: N2_18  and  C14_20 
REMARK    8  A    between atoms: C23_30  and  C24_31 
ROOT
HETATM    1  C1  UNL     1      -1.529  10.094  20.925  1.00  0.00     0.279 C 
HETATM    2  N1  UNL     1      -2.569  10.749  21.664  1.00  0.00    -0.035 N 
HETATM    3  C9  UNL     1      -2.312  11.052  23.014  1.00  0.00     0.196 C 
HETATM    4  C10 UNL     1      -0.961  11.495  23.406  1.00  0.00     0.035 C 
HETATM    5  C11 UNL     1      -0.420  12.773  22.967  1.00  0.00     0.022 C 
HETATM    6  C12 UNL     1      -1.165  13.560  21.929  1.00  0.00     0.055 C 
HETATM    7  C19 UNL     1      -2.479  14.087  22.412  1.00  0.00     0.027 C 
HETATM    8  C20 UNL     1      -3.413  12.918  22.181  1.00  0.00     0.021 C 
HETATM    9  C21 UNL     1      -3.303  12.101  23.459  1.00  0.00     0.040 C 
HETATM   10  C22 UNL     1      -2.774  12.079  21.096  1.00  0.00     0.213 C 
HETATM   11  C23 UNL     1      -1.498  12.775  20.719  1.00  0.00     0.122 C 
ENDROOT
BRANCH   2  12
HETATM   12  C2  UNL     1      -3.761   9.984  21.417  1.00  0.00     0.284 C 
BRANCH  12  13
HETATM   13  C3  UNL     1      -4.416  10.113  20.135  1.00  0.00     0.306 C 
HETATM   14  O1  UNL     1      -5.457  10.863  20.097  1.00  0.00    -0.259 OA
BRANCH  13  15
HETATM   15  O2  UNL     1      -4.079   9.537  18.930  1.00  0.00    -0.317 OA
BRANCH  15  16
HETATM   16  C4  UNL     1      -4.858   8.679  18.142  1.00  0.00     0.183 C 
BRANCH  16  17
HETATM   17  C5  UNL     1      -5.195   7.451  18.956  1.00  0.00     0.010 C 
HETATM   18  C6  UNL     1      -6.720   7.293  19.017  1.00  0.00     0.007 C 
HETATM   19  C7  UNL     1      -6.673   6.296  17.881  1.00  0.00     0.001 C 
HETATM   20  C8  UNL     1      -5.190   6.163  18.142  1.00  0.00     0.007 C 
ENDBRANCH  16  17
ENDBRANCH  15  16
ENDBRANCH  13  15
ENDBRANCH  12  13
ENDBRANCH   2  12
BRANCH  11  21
HETATM   21  C24 UNL     1      -1.701  13.487  19.462  1.00  0.00     0.226 C 
HETATM   22  O5  UNL     1      -0.860  13.472  18.541  1.00  0.00    -0.279 OA
HETATM   23 CL1  UNL     1      -3.122  14.438  19.080  1.00  0.00    -0.043 Cl
ENDBRANCH  11  21
BRANCH   6  24
HETATM   24  C13 UNL     1      -0.324  14.755  21.656  1.00  0.00     0.227 C 
HETATM   25  O3  UNL     1      -0.882  15.804  21.309  1.00  0.00    -0.273 OA
HETATM   26  N2  UNL     1       1.101  14.726  21.782  1.00  0.00    -0.356 N 
ATOM     27  H2  UNL     1       1.538  13.850  22.070  1.00  0.00     0.162 HD
BRANCH  26  28
HETATM   28  C14 UNL     1       1.946  15.841  21.531  1.00  0.00     0.088 C 
HETATM   29  C15 UNL     1       3.058  15.541  20.534  1.00  0.00     0.051 C 
HETATM   30  C16 UNL     1       3.587  16.887  20.077  1.00  0.00     0.169 C 
HETATM   31  O4  UNL     1       3.158  17.921  20.906  1.00  0.00    -0.391 OA
HETATM   32  C17 UNL     1       3.426  17.629  22.255  1.00  0.00     0.169 C 
HETATM   33  C18 UNL     1       2.571  16.457  22.736  1.00  0.00     0.051 C 
ENDBRANCH  26  28
ENDBRANCH   6  24
TORSDOF 8
ENDMDL
MODEL 2
REMARK VINA RESULT: -8.114097593      1.602      8.587
REMARK  8 active torsions:
REMARK  status: ('A' for Active; 'I' for Inactive)
REMARK    1  A    between atoms: N1_2  and  C2_3 
REMARK    2  A    between atoms: C2_3  and  C3_4 
REMARK    3  A    between atoms: C3_4  and  O2_6 
REMARK    4  A    between atoms: O2_6  and  C4_7 
REMARK    5  A    between atoms: C4_7  and  C5_8 
REMARK    6  A    between atoms: C12_15  and  C13_16 
REMARK       I    between atoms: C13_16  and  N2_18 
REMARK    7  A    between atoms: N2_18  and  C14_20 
REMARK    8  A    between atoms: C23_30  and  C24_31 
ROOT
HETATM    1  C1  UNL     1      -1.661  14.052  22.486  1.00  0.00     0.279 C 
HETATM    2  N1  UNL     1      -0.870  12.857  22.533  1.00  0.00    -0.035 N 
HETATM    3  C9  UNL     1      -1.253  11.864  23.453  1.00  0.00     0.196 C 
HETATM    4  C10 UNL     1      -2.688  11.614  23.686  1.00  0.00     0.035 C 
HETATM    5  C11 UNL     1      -3.542  11.051  22.650  1.00  0.00     0.022 C 
HETATM    6  C12 UNL     1      -3.002  10.915  21.257  1.00  0.00     0.055 C 
HETATM    7  C19 UNL     1      -1.904   9.906  21.141  1.00  0.00     0.027 C 
HETATM    8  C20 UNL     1      -0.676  10.704  21.527  1.00  0.00     0.021 C 
HETATM    9  C21 UNL     1      -0.606  10.563  23.039  1.00  0.00     0.040 C 
HETATM   10  C22 UNL     1      -1.017  12.154  21.261  1.00  0.00     0.213 C 
HETATM   11  C23 UNL     1      -2.420  12.167  20.725  1.00  0.00     0.122 C 
ENDROOT
BRANCH   2  12
HETATM   12  C2  UNL     1       0.494  13.298  22.630  1.00  0.00     0.284 C 
BRANCH  12  13
HETATM   13  C3  UNL     1       1.201  13.639  21.416  1.00  0.00     0.306 C 
HETATM   14  O1  UNL     1       2.080  12.796  21.009  1.00  0.00    -0.259 OA
BRANCH  13  15
HETATM   15  O2  UNL     1       1.066  14.756  20.621  1.00  0.00    -0.317 OA
BRANCH  15  16
HETATM   16  C4  UNL     1       1.336  16.088  20.961  1.00  0.00     0.183 C 
BRANCH  16  17
HETATM   17  C5  UNL     1       2.830  16.251  21.119  1.00  0.00     0.010 C 
HETATM   18  C6  UNL     1       3.335  17.272  20.090  1.00  0.00     0.007 C 
HETATM   19  C7  UNL     1       3.295  18.363  21.137  1.00  0.00     0.001 C 
HETATM   20  C8  UNL     1       3.220  17.272  22.181  1.00  0.00     0.007 C 
ENDBRANCH  16  17
ENDBRANCH  15  16
ENDBRANCH  13  15
ENDBRANCH  12  13
ENDBRANCH   2  12
BRANCH  11  21
HETATM   21  C24 UNL     1      -2.372  12.352  19.279  1.00  0.00     0.226 C 
HETATM   22  O5  UNL     1      -1.320  12.211  18.622  1.00  0.00    -0.279 OA
HETATM   23 CL1  UNL     1      -3.749  12.784  18.287  1.00  0.00    -0.043 Cl
ENDBRANCH  11  21
BRANCH   6  24
HETATM   24  C13 UNL     1      -4.128  10.384  20.444  1.00  0.00     0.227 C 
HETATM   25  O3  UNL     1      -5.263  10.836  20.639  1.00  0.00    -0.273 OA
HETATM   26  N2  UNL     1      -3.936   9.372  19.450  1.00  0.00    -0.356 N 
ATOM     27  H2  UNL     1      -2.991   9.015  19.307  1.00  0.00     0.162 HD
BRANCH  26  28
HETATM   28  C14 UNL     1      -4.980   8.833  18.649  1.00  0.00     0.088 C 
HETATM   29  C15 UNL     1      -4.977   7.311  18.603  1.00  0.00     0.051 C 
HETATM   30  C16 UNL     1      -6.341   6.904  18.077  1.00  0.00     0.169 C 
HETATM   31  O4  UNL     1      -7.019   7.981  17.511  1.00  0.00    -0.391 OA
HETATM   32  C17 UNL     1      -6.216   8.641  16.565  1.00  0.00     0.169 C 
HETATM   33  C18 UNL     1      -5.034   9.330  17.245  1.00  0.00     0.051 C 
ENDBRANCH  26  28
ENDBRANCH   6  24
TORSDOF 8
ENDMDL
MODEL 3
REMARK VINA RESULT: -8.067484237      2.228      3.595
REMARK  8 active torsions:
REMARK  status: ('A' for Active; 'I' for Inactive)
REMARK    1  A    between atoms: N1_2  and  C2_3 
REMARK    2  A    between atoms: C2_3  and  C3_4 
REMARK    3  A    between atoms: C3_4  and  O2_6 
REMARK    4  A    between atoms: O2_6  and  C4_7 
REMARK    5  A    between atoms: C4_7  and  C5_8 
REMARK    6  A    between atoms: C12_15  and  C13_16 
REMARK       I    between atoms: C13_16  and  N2_18 
REMARK    7  A    between atoms: N2_18  and  C14_20 
REMARK    8  A    between atoms: C23_30  and  C24_31 
ROOT
HETATM    1  C1  UNL     1      -5.935  12.512  20.543  1.00  0.00     0.279 C 
HETATM    2  N1  UNL     1      -5.530  11.144  20.402  1.00  0.00    -0.035 N 
HETATM    3  C9  UNL     1      -4.973  10.758  19.169  1.00  0.00     0.196 C 
HETATM    4  C10 UNL     1      -4.087  11.696  18.454  1.00  0.00     0.035 C 
HETATM    5  C11 UNL     1      -2.782  12.065  18.982  1.00  0.00     0.022 C 
HETATM    6  C12 UNL     1      -2.417  11.647  20.376  1.00  0.00     0.055 C 
HETATM    7  C19 UNL     1      -2.252  10.169  20.530  1.00  0.00     0.027 C 
HETATM    8  C20 UNL     1      -3.671   9.698  20.772  1.00  0.00     0.021 C 
HETATM    9  C21 UNL     1      -4.224   9.462  19.375  1.00  0.00     0.040 C 
HETATM   10  C22 UNL     1      -4.422  10.892  21.319  1.00  0.00     0.213 C 
HETATM   11  C23 UNL     1      -3.431  12.019  21.388  1.00  0.00     0.122 C 
ENDROOT
BRANCH   2  12
HETATM   12  C2  UNL     1      -6.649  10.361  20.849  1.00  0.00     0.284 C 
BRANCH  12  13
HETATM   13  C3  UNL     1      -7.653   9.970  19.884  1.00  0.00     0.306 C 
HETATM   14  O1  UNL     1      -8.647  10.769  19.737  1.00  0.00    -0.259 OA
BRANCH  13  15
HETATM   15  O2  UNL     1      -7.696   8.847  19.087  1.00  0.00    -0.317 OA
BRANCH  15  16
HETATM   16  C4  UNL     1      -7.226   7.562  19.391  1.00  0.00     0.183 C 
BRANCH  16  17
HETATM   17  C5  UNL     1      -7.221   6.741  18.121  1.00  0.00     0.010 C 
HETATM   18  C6  UNL     1      -5.912   6.997  17.364  1.00  0.00     0.007 C 
HETATM   19  C7  UNL     1      -5.311   5.742  17.956  1.00  0.00     0.001 C 
HETATM   20  C8  UNL     1      -6.715   5.318  18.322  1.00  0.00     0.007 C 
ENDBRANCH  16  17
ENDBRANCH  15  16
ENDBRANCH  13  15
ENDBRANCH  12  13
ENDBRANCH   2  12
BRANCH  11  21
HETATM   21  C24 UNL     1      -3.002  12.186  22.773  1.00  0.00     0.226 C 
HETATM   22  O5  UNL     1      -2.647  13.290  23.234  1.00  0.00    -0.279 OA
HETATM   23 CL1  UNL     1      -2.929  10.893  23.952  1.00  0.00    -0.043 Cl
ENDBRANCH  11  21
BRANCH   6  24
HETATM   24  C13 UNL     1      -1.075  12.233  20.629  1.00  0.00     0.227 C 
HETATM   25  O3  UNL     1      -0.119  11.468  20.810  1.00  0.00    -0.273 OA
HETATM   26  N2  UNL     1      -0.858  13.648  20.668  1.00  0.00    -0.356 N 
ATOM     27  H2  UNL     1      -1.661  14.259  20.515  1.00  0.00     0.162 HD
BRANCH  26  28
HETATM   28  C14 UNL     1       0.405  14.255  20.907  1.00  0.00     0.088 C 
HETATM   29  C15 UNL     1       0.961  13.960  22.294  1.00  0.00     0.051 C 
HETATM   30  C16 UNL     1       2.436  14.313  22.238  1.00  0.00     0.169 C 
HETATM   31  O4  UNL     1       2.745  15.070  21.111  1.00  0.00    -0.391 OA
HETATM   32  C17 UNL     1       1.888  16.179  20.998  1.00  0.00     0.169 C 
HETATM   33  C18 UNL     1       0.458  15.730  20.700  1.00  0.00     0.051 C 
ENDBRANCH  26  28
ENDBRANCH   6  24
TORSDOF 8
ENDMDL
MODEL 4
REMARK VINA RESULT: -7.982779804      1.191      1.359
REMARK  8 active torsions:
REMARK  status: ('A' for Active; 'I' for Inactive)
REMARK    1  A    between atoms: N1_2  and  C2_3 
REMARK    2  A    between atoms: C2_3  and  C3_4 
REMARK    3  A    between atoms: C3_4  and  O2_6 
REMARK    4  A    between atoms: O2_6  and  C4_7 
REMARK    5  A    between atoms: C4_7  and  C5_8 
REMARK    6  A    between atoms: C12_15  and  C13_16 
REMARK       I    between atoms: C13_16  and  N2_18 
REMARK    7  A    between atoms: N2_18  and  C14_20 
REMARK    8  A    between atoms: C23_30  and  C24_31 
ROOT
HETATM    1  C1  UNL     1      -1.496   9.992  21.293  1.00  0.00     0.279 C 
HETATM    2  N1  UNL     1      -2.345  10.984  21.884  1.00  0.00    -0.035 N 
HETATM    3  C9  UNL     1      -1.980  11.475  23.152  1.00  0.00     0.196 C 
HETATM    4  C10 UNL     1      -0.553  11.682  23.460  1.00  0.00     0.035 C 
HETATM    5  C11 UNL     1       0.233  12.705  22.785  1.00  0.00     0.022 C 
HETATM    6  C12 UNL     1      -0.364  13.423  21.610  1.00  0.00     0.055 C 
HETATM    7  C19 UNL     1      -1.516  14.303  21.974  1.00  0.00     0.027 C 
HETATM    8  C20 UNL     1      -2.686  13.343  21.968  1.00  0.00     0.021 C 
HETATM    9  C21 UNL     1      -2.708  12.779  23.380  1.00  0.00     0.040 C 
HETATM   10  C22 UNL     1      -2.281  12.194  21.069  1.00  0.00     0.213 C 
HETATM   11  C23 UNL     1      -0.899  12.513  20.573  1.00  0.00     0.122 C 
ENDROOT
BRANCH   2  12
HETATM   12  C2  UNL     1      -3.680  10.462  21.783  1.00  0.00     0.284 C 
BRANCH  12  13
HETATM   13  C3  UNL     1      -4.260  10.290  20.470  1.00  0.00     0.306 C 
HETATM   14  O1  UNL     1      -5.261  11.040  20.183  1.00  0.00    -0.259 OA
BRANCH  13  15
HETATM   15  O2  UNL     1      -3.886   9.422  19.467  1.00  0.00    -0.317 OA
BRANCH  15  16
HETATM   16  C4  UNL     1      -4.708   8.814  18.509  1.00  0.00     0.183 C 
BRANCH  16  17
HETATM   17  C5  UNL     1      -5.154   7.471  19.042  1.00  0.00     0.010 C 
HETATM   18  C6  UNL     1      -6.687   7.424  19.065  1.00  0.00     0.007 C 
HETATM   19  C7  UNL     1      -6.696   6.691  17.743  1.00  0.00     0.001 C 
HETATM   20  C8  UNL     1      -5.232   6.389  17.972  1.00  0.00     0.007 C 
ENDBRANCH  16  17
ENDBRANCH  15  16
ENDBRANCH  13  15
ENDBRANCH  12  13
ENDBRANCH   2  12
BRANCH  11  21
HETATM   21  C24 UNL     1      -0.991  13.000  19.201  1.00  0.00     0.226 C 
HETATM   22  O5  UNL     1      -0.422  12.429  18.249  1.00  0.00    -0.279 OA
HETATM   23 CL1  UNL     1      -1.892  14.420  18.711  1.00  0.00    -0.043 Cl
ENDBRANCH  11  21
BRANCH   6  24
HETATM   24  C13 UNL     1       0.702  14.333  21.117  1.00  0.00     0.227 C 
HETATM   25  O3  UNL     1       1.796  13.848  20.801  1.00  0.00    -0.273 OA
HETATM   26  N2  UNL     1       0.500  15.745  20.997  1.00  0.00    -0.356 N 
ATOM     27  H2  UNL     1      -0.409  16.122  21.263  1.00  0.00     0.162 HD
BRANCH  26  28
HETATM   28  C14 UNL     1       1.488  16.655  20.532  1.00  0.00     0.088 C 
HETATM   29  C15 UNL     1       2.404  17.165  21.637  1.00  0.00     0.051 C 
HETATM   30  C16 UNL     1       3.609  17.767  20.939  1.00  0.00     0.169 C 
HETATM   31  O4  UNL     1       3.375  17.966  19.580  1.00  0.00    -0.391 OA
HETATM   32  C17 UNL     1       2.180  18.678  19.374  1.00  0.00     0.169 C 
HETATM   33  C18 UNL     1       0.972  17.839  19.788  1.00  0.00     0.051 C 
ENDBRANCH  26  28
ENDBRANCH   6  24
TORSDOF 8
ENDMDL
MODEL 5
REMARK VINA RESULT: -7.895291186      2.213      3.366
REMARK  8 active torsions:
REMARK  status: ('A' for Active; 'I' for Inactive)
REMARK    1  A    between atoms: N1_2  and  C2_3 
REMARK    2  A    between atoms: C2_3  and  C3_4 
REMARK    3  A    between atoms: C3_4  and  O2_6 
REMARK    4  A    between atoms: O2_6  and  C4_7 
REMARK    5  A    between atoms: C4_7  and  C5_8 
REMARK    6  A    between atoms: C12_15  and  C13_16 
REMARK       I    between atoms: C13_16  and  N2_18 
REMARK    7  A    between atoms: N2_18  and  C14_20 
REMARK    8  A    between atoms: C23_30  and  C24_31 
ROOT
HETATM    1  C1  UNL     1      -4.698  10.155  17.303  1.00  0.00     0.279 C 
HETATM    2  N1  UNL     1      -5.346  10.945  18.310  1.00  0.00    -0.035 N 
HETATM    3  C9  UNL     1      -5.279  10.483  19.637  1.00  0.00     0.196 C 
HETATM    4  C10 UNL     1      -4.038   9.847  20.116  1.00  0.00     0.035 C 
HETATM    5  C11 UNL     1      -2.802  10.601  20.267  1.00  0.00     0.022 C 
HETATM    6  C12 UNL     1      -2.736  12.001  19.731  1.00  0.00     0.055 C 
HETATM    7  C19 UNL     1      -3.615  12.962  20.467  1.00  0.00     0.027 C 
HETATM    8  C20 UNL     1      -4.955  12.777  19.786  1.00  0.00     0.021 C 
HETATM    9  C21 UNL     1      -5.604  11.637  20.556  1.00  0.00     0.040 C 
HETATM   10  C22 UNL     1      -4.653  12.228  18.408  1.00  0.00     0.213 C 
HETATM   11  C23 UNL     1      -3.159  12.113  18.317  1.00  0.00     0.122 C 
ENDROOT
BRANCH   2  12
HETATM   12  C2  UNL     1      -6.668  11.203  17.809  1.00  0.00     0.284 C 
BRANCH  12  13
HETATM   13  C3  UNL     1      -7.464  10.089  17.345  1.00  0.00     0.306 C 
HETATM   14  O1  UNL     1      -7.886  10.153  16.134  1.00  0.00    -0.259 OA
BRANCH  13  15
HETATM   15  O2  UNL     1      -7.841   8.954  18.026  1.00  0.00    -0.317 OA
BRANCH  15  16
HETATM   16  C4  UNL     1      -7.647   7.620  17.644  1.00  0.00     0.183 C 
BRANCH  16  17
HETATM   17  C5  UNL     1      -6.941   6.895  18.767  1.00  0.00     0.010 C 
HETATM   18  C6  UNL     1      -6.810   5.411  18.402  1.00  0.00     0.007 C 
HETATM   19  C7  UNL     1      -5.397   5.643  17.916  1.00  0.00     0.001 C 
HETATM   20  C8  UNL     1      -5.422   6.956  18.667  1.00  0.00     0.007 C 
ENDBRANCH  16  17
ENDBRANCH  15  16
ENDBRANCH  13  15
ENDBRANCH  12  13
ENDBRANCH   2  12
BRANCH  11  21
HETATM   21  C24 UNL     1      -2.647  13.226  17.524  1.00  0.00     0.226 C 
HETATM   22  O5  UNL     1      -1.682  13.102  16.744  1.00  0.00    -0.279 OA
HETATM   23 CL1  UNL     1      -3.302  14.850  17.556  1.00  0.00    -0.043 Cl
ENDBRANCH  11  21
BRANCH   6  24
HETATM   24  C13 UNL     1      -1.343  12.456  19.978  1.00  0.00     0.227 C 
HETATM   25  O3  UNL     1      -0.410  11.717  19.640  1.00  0.00    -0.273 OA
HETATM   26  N2  UNL     1      -1.053  13.717  20.591  1.00  0.00    -0.356 N 
ATOM     27  H2  UNL     1      -1.838  14.310  20.861  1.00  0.00     0.162 HD
BRANCH  26  28
HETATM   28  C14 UNL     1       0.261  14.195  20.849  1.00  0.00     0.088 C 
HETATM   29  C15 UNL     1       0.806  13.758  22.202  1.00  0.00     0.051 C 
HETATM   30  C16 UNL     1       2.305  13.985  22.145  1.00  0.00     0.169 C 
HETATM   31  O4  UNL     1       2.666  14.789  21.067  1.00  0.00    -0.391 OA
HETATM   32  C17 UNL     1       1.907  15.973  21.046  1.00  0.00     0.169 C 
HETATM   33  C18 UNL     1       0.440  15.671  20.742  1.00  0.00     0.051 C 
ENDBRANCH  26  28
ENDBRANCH   6  24
TORSDOF 8
ENDMDL
