MODEL 1
REMARK VINA RESULT: -8.481943226      0.000      0.000
REMARK  7 active torsions:
REMARK  status: ('A' for Active; 'I' for Inactive)
REMARK    1  A    between atoms: N1_7  and  C5_8 
REMARK    2  A    between atoms: C8_12  and  C9_13 
REMARK    3  A    between atoms: C9_13  and  S1_14 
REMARK    4  A    between atoms: S1_14  and  N2_17 
REMARK    5  A    between atoms: C12_20  and  N3_21 
REMARK    6  A    between atoms: C12_20  and  C16_26 
REMARK    7  A    between atoms: N3_21  and  C13_23 
ROOT
HETATM    1  C9  UNL     1      -4.635  10.995  21.035  1.00  0.00     0.167 C 
ENDROOT
BRANCH   1   2
HETATM    2  C8  UNL     1      -3.247  11.404  21.382  1.00  0.00    -0.023 C 
HETATM    3  C7  UNL     1      -3.141  12.440  22.443  1.00  0.00     0.049 C 
HETATM    4  C6  UNL     1      -1.769  12.910  22.771  1.00  0.00     0.194 C 
HETATM    5  C5  UNL     1      -0.674  12.513  21.835  1.00  0.00     0.125 C 
HETATM    6  F1  UNL     1      -1.740  14.284  22.925  1.00  0.00    -0.247 F 
HETATM    7  C22 UNL     1      -1.083  11.783  20.626  1.00  0.00     0.012 C 
HETATM    8  C21 UNL     1      -1.122  10.300  20.927  1.00  0.00     0.007 C 
HETATM    9  C23 UNL     1      -2.511  12.019  20.174  1.00  0.00     0.017 C 
HETATM   10  C20 UNL     1      -2.436  10.169  21.677  1.00  0.00     0.011 C 
BRANCH   5  11
HETATM   11  N1  UNL     1       0.161  13.673  21.490  1.00  0.00    -0.341 N 
HETATM   12  C1  UNL     1       1.353  13.961  22.236  1.00  0.00     0.244 C 
HETATM   13  O1  UNL     1       1.708  13.212  23.182  1.00  0.00    -0.271 OA
HETATM   14  C2  UNL     1       2.208  15.132  21.938  1.00  0.00     0.270 C 
HETATM   15  O2  UNL     1       1.763  15.931  20.921  1.00  0.00    -0.380 OA
HETATM   16  C3  UNL     1       0.390  15.941  20.773  1.00  0.00     0.188 C 
HETATM   17  C4  UNL     1      -0.133  14.557  20.389  1.00  0.00     0.152 C 
ENDBRANCH   5  11
ENDBRANCH   1   2
BRANCH   1  18
HETATM   18  S1  UNL     1      -5.039  10.855  19.353  1.00  0.00     0.212 S 
HETATM   19  O3  UNL     1      -3.813  10.654  18.481  1.00  0.00    -0.211 OA
HETATM   20  O4  UNL     1      -5.794  12.078  18.813  1.00  0.00    -0.211 OA
BRANCH  18  21
HETATM   21  N2  UNL     1      -6.079   9.552  19.060  1.00  0.00    -0.208 NA
HETATM   22  C10 UNL     1      -6.511   8.879  20.242  1.00  0.00     0.110 C 
HETATM   23  C11 UNL     1      -7.203   7.645  19.726  1.00  0.00     0.048 C 
HETATM   24  C12 UNL     1      -7.050   7.677  18.225  1.00  0.00     0.043 C 
HETATM   25  C19 UNL     1      -5.685   8.550  18.136  1.00  0.00     0.138 C 
BRANCH  24  26
HETATM   26  N3  UNL     1      -7.927   8.463  17.521  1.00  0.00    -0.407 N 
ATOM     27  H3  UNL     1      -8.327   9.240  18.049  1.00  0.00     0.154 HD
BRANCH  26  28
HETATM   28  C13 UNL     1      -8.355   8.371  16.212  1.00  0.00     0.077 A 
HETATM   29  C14 UNL     1      -8.907   9.708  15.649  1.00  0.00     0.027 A 
HETATM   30  C15 UNL     1      -7.835   8.943  14.977  1.00  0.00     0.027 A 
ENDBRANCH  26  28
ENDBRANCH  24  26
BRANCH  24  31
HETATM   31  C16 UNL     1      -6.660   6.389  17.602  1.00  0.00     0.015 A 
HETATM   32  C17 UNL     1      -6.811   5.087  18.303  1.00  0.00     0.007 A 
HETATM   33  C18 UNL     1      -5.480   5.597  17.930  1.00  0.00     0.007 A 
ENDBRANCH  24  31
ENDBRANCH  18  21
ENDBRANCH   1  18
TORSDOF 7
ENDMDL
MODEL 2
REMARK VINA RESULT: -8.376283249      1.101      1.248
REMARK  7 active torsions:
REMARK  status: ('A' for Active; 'I' for Inactive)
REMARK    1  A    between atoms: N1_7  and  C5_8 
REMARK    2  A    between atoms: C8_12  and  C9_13 
REMARK    3  A    between atoms: C9_13  and  S1_14 
REMARK    4  A    between atoms: S1_14  and  N2_17 
REMARK    5  A    between atoms: C12_20  and  N3_21 
REMARK    6  A    between atoms: C12_20  and  C16_26 
REMARK    7  A    between atoms: N3_21  and  C13_23 
ROOT
HETATM    1  C9  UNL     1      -3.973  10.350  22.011  1.00  0.00     0.167 C 
ENDROOT
BRANCH   1   2
HETATM    2  C8  UNL     1      -2.758  11.151  22.323  1.00  0.00    -0.023 C 
HETATM    3  C7  UNL     1      -3.019  12.543  22.775  1.00  0.00     0.049 C 
HETATM    4  C6  UNL     1      -1.822  13.385  23.040  1.00  0.00     0.194 C 
HETATM    5  C5  UNL     1      -0.505  12.860  22.570  1.00  0.00     0.125 C 
HETATM    6  F1  UNL     1      -1.994  14.660  22.532  1.00  0.00    -0.247 F 
HETATM    7  C22 UNL     1      -0.540  11.607  21.800  1.00  0.00     0.012 C 
HETATM    8  C21 UNL     1      -0.469  10.433  22.754  1.00  0.00     0.007 C 
HETATM    9  C23 UNL     1      -1.847  11.316  21.089  1.00  0.00     0.017 C 
HETATM   10  C20 UNL     1      -1.892  10.370  23.278  1.00  0.00     0.011 C 
BRANCH   5  11
HETATM   11  N1  UNL     1       0.241  13.899  21.845  1.00  0.00    -0.341 N 
HETATM   12  C1  UNL     1       1.608  14.183  22.181  1.00  0.00     0.244 C 
HETATM   13  O1  UNL     1       2.189  13.533  23.088  1.00  0.00    -0.271 OA
HETATM   14  C2  UNL     1       2.388  15.238  21.495  1.00  0.00     0.270 C 
HETATM   15  O2  UNL     1       1.702  15.937  20.539  1.00  0.00    -0.380 OA
HETATM   16  C3  UNL     1       0.345  16.034  20.778  1.00  0.00     0.188 C 
HETATM   17  C4  UNL     1      -0.320  14.658  20.755  1.00  0.00     0.152 C 
ENDBRANCH   5  11
ENDBRANCH   1   2
BRANCH   1  18
HETATM   18  S1  UNL     1      -5.097  11.003  20.862  1.00  0.00     0.212 S 
HETATM   19  O3  UNL     1      -4.436  11.956  19.884  1.00  0.00    -0.211 OA
HETATM   20  O4  UNL     1      -6.261  11.755  21.523  1.00  0.00    -0.211 OA
BRANCH  18  21
HETATM   21  N2  UNL     1      -5.843   9.789  19.949  1.00  0.00    -0.208 NA
HETATM   22  C10 UNL     1      -6.990   9.214  20.576  1.00  0.00     0.110 C 
HETATM   23  C11 UNL     1      -7.320   8.026  19.712  1.00  0.00     0.048 C 
HETATM   24  C12 UNL     1      -6.252   7.973  18.647  1.00  0.00     0.043 C 
HETATM   25  C19 UNL     1      -5.058   8.712  19.461  1.00  0.00     0.138 C 
BRANCH  24  26
HETATM   26  N3  UNL     1      -6.403   8.802  17.564  1.00  0.00    -0.407 N 
ATOM     27  H3  UNL     1      -5.541   9.239  17.235  1.00  0.00     0.154 HD
BRANCH  26  28
HETATM   28  C13 UNL     1      -7.534   9.140  16.850  1.00  0.00     0.077 A 
HETATM   29  C14 UNL     1      -7.382   8.928  15.320  1.00  0.00     0.027 A 
HETATM   30  C15 UNL     1      -8.487   8.332  16.100  1.00  0.00     0.027 A 
ENDBRANCH  26  28
ENDBRANCH  24  26
BRANCH  24  31
HETATM   31  C16 UNL     1      -5.688   6.627  18.383  1.00  0.00     0.015 A 
HETATM   32  C17 UNL     1      -5.762   5.980  17.047  1.00  0.00     0.007 A 
HETATM   33  C18 UNL     1      -6.450   5.394  18.211  1.00  0.00     0.007 A 
ENDBRANCH  24  31
ENDBRANCH  18  21
ENDBRANCH   1  18
TORSDOF 7
ENDMDL
MODEL 3
REMARK VINA RESULT: -8.339106146      3.828      5.585
REMARK  7 active torsions:
REMARK  status: ('A' for Active; 'I' for Inactive)
REMARK    1  A    between atoms: N1_7  and  C5_8 
REMARK    2  A    between atoms: C8_12  and  C9_13 
REMARK    3  A    between atoms: C9_13  and  S1_14 
REMARK    4  A    between atoms: S1_14  and  N2_17 
REMARK    5  A    between atoms: C12_20  and  N3_21 
REMARK    6  A    between atoms: C12_20  and  C16_26 
REMARK    7  A    between atoms: N3_21  and  C13_23 
ROOT
HETATM    1  C9  UNL     1      -2.130  12.323  21.729  1.00  0.00     0.167 C 
ENDROOT
BRANCH   1   2
HETATM    2  C8  UNL     1      -1.967  11.829  23.123  1.00  0.00    -0.023 C 
HETATM    3  C7  UNL     1      -0.589  11.405  23.486  1.00  0.00     0.049 C 
HETATM    4  C6  UNL     1      -0.408  10.854  24.855  1.00  0.00     0.194 C 
HETATM    5  C5  UNL     1      -1.646  10.524  25.624  1.00  0.00     0.125 C 
HETATM    6  F1  UNL     1       0.407   9.737  24.834  1.00  0.00    -0.247 F 
HETATM    7  C22 UNL     1      -2.920  10.683  24.906  1.00  0.00     0.012 C 
HETATM    8  C21 UNL     1      -3.411  12.106  25.068  1.00  0.00     0.007 C 
HETATM    9  C23 UNL     1      -2.833  10.582  23.395  1.00  0.00     0.017 C 
HETATM   10  C20 UNL     1      -2.541  12.851  24.071  1.00  0.00     0.011 C 
BRANCH   5  11
HETATM   11  N1  UNL     1      -1.546   9.186  26.223  1.00  0.00    -0.341 N 
HETATM   12  C1  UNL     1      -2.294   8.858  27.404  1.00  0.00     0.244 C 
HETATM   13  O1  UNL     1      -3.058   9.708  27.929  1.00  0.00    -0.271 OA
HETATM   14  C2  UNL     1      -2.203   7.531  28.054  1.00  0.00     0.270 C 
HETATM   15  O2  UNL     1      -1.335   6.654  27.463  1.00  0.00    -0.380 OA
HETATM   16  C3  UNL     1      -0.268   7.260  26.828  1.00  0.00     0.188 C 
HETATM   17  C4  UNL     1      -0.740   8.129  25.663  1.00  0.00     0.152 C 
ENDBRANCH   5  11
ENDBRANCH   1   2
BRANCH   1  18
HETATM   18  S1  UNL     1      -1.825  11.206  20.437  1.00  0.00     0.212 S 
HETATM   19  O3  UNL     1      -0.980  10.026  20.880  1.00  0.00    -0.211 OA
HETATM   20  O4  UNL     1      -1.119  11.853  19.237  1.00  0.00    -0.211 OA
BRANCH  18  21
HETATM   21  N2  UNL     1      -3.260  10.578  19.793  1.00  0.00    -0.208 NA
HETATM   22  C10 UNL     1      -3.815  11.366  18.740  1.00  0.00     0.110 C 
HETATM   23  C11 UNL     1      -5.173  10.758  18.509  1.00  0.00     0.048 C 
HETATM   24  C12 UNL     1      -5.321   9.662  19.536  1.00  0.00     0.043 C 
HETATM   25  C19 UNL     1      -4.325  10.255  20.672  1.00  0.00     0.138 C 
BRANCH  24  26
HETATM   26  N3  UNL     1      -4.733   8.455  19.255  1.00  0.00    -0.407 N 
ATOM     27  H3  UNL     1      -4.241   8.025  20.039  1.00  0.00     0.154 HD
BRANCH  26  28
HETATM   28  C13 UNL     1      -4.702   7.729  18.082  1.00  0.00     0.077 A 
HETATM   29  C14 UNL     1      -5.237   6.281  18.239  1.00  0.00     0.027 A 
HETATM   30  C15 UNL     1      -5.764   7.218  17.226  1.00  0.00     0.027 A 
ENDBRANCH  26  28
ENDBRANCH  24  26
BRANCH  24  31
HETATM   31  C16 UNL     1      -6.630   9.622  20.232  1.00  0.00     0.015 A 
HETATM   32  C17 UNL     1      -7.363   8.352  20.478  1.00  0.00     0.007 A 
HETATM   33  C18 UNL     1      -7.930   9.397  19.608  1.00  0.00     0.007 A 
ENDBRANCH  24  31
ENDBRANCH  18  21
ENDBRANCH   1  18
TORSDOF 7
ENDMDL
MODEL 4
REMARK VINA RESULT: -8.277302737      2.400      3.257
REMARK  7 active torsions:
REMARK  status: ('A' for Active; 'I' for Inactive)
REMARK    1  A    between atoms: N1_7  and  C5_8 
REMARK    2  A    between atoms: C8_12  and  C9_13 
REMARK    3  A    between atoms: C9_13  and  S1_14 
REMARK    4  A    between atoms: S1_14  and  N2_17 
REMARK    5  A    between atoms: C12_20  and  N3_21 
REMARK    6  A    between atoms: C12_20  and  C16_26 
REMARK    7  A    between atoms: N3_21  and  C13_23 
ROOT
HETATM    1  C9  UNL     1      -5.388  12.248  18.158  1.00  0.00     0.167 C 
ENDROOT
BRANCH   1   2
HETATM    2  C8  UNL     1      -4.176  12.235  19.021  1.00  0.00    -0.023 C 
HETATM    3  C7  UNL     1      -3.652  10.884  19.353  1.00  0.00     0.049 C 
HETATM    4  C6  UNL     1      -2.475  10.839  20.261  1.00  0.00     0.194 C 
HETATM    5  C5  UNL     1      -2.109  12.106  20.962  1.00  0.00     0.125 C 
HETATM    6  F1  UNL     1      -2.618   9.839  21.205  1.00  0.00    -0.247 F 
HETATM    7  C22 UNL     1      -3.015  13.247  20.761  1.00  0.00     0.012 C 
HETATM    8  C21 UNL     1      -2.587  14.013  19.527  1.00  0.00     0.007 C 
HETATM    9  C23 UNL     1      -4.442  12.889  20.392  1.00  0.00     0.017 C 
HETATM   10  C20 UNL     1      -3.136  13.141  18.413  1.00  0.00     0.011 C 
BRANCH   5  11
HETATM   11  N1  UNL     1      -1.883  11.862  22.394  1.00  0.00    -0.341 N 
HETATM   12  C1  UNL     1      -0.602  11.416  22.864  1.00  0.00     0.244 C 
HETATM   13  O1  UNL     1       0.349  11.248  22.057  1.00  0.00    -0.271 OA
HETATM   14  C2  UNL     1      -0.339  11.134  24.293  1.00  0.00     0.270 C 
HETATM   15  O2  UNL     1      -1.413  11.303  25.124  1.00  0.00    -0.380 OA
HETATM   16  C3  UNL     1      -2.634  11.073  24.521  1.00  0.00     0.188 C 
HETATM   17  C4  UNL     1      -2.893  12.080  23.400  1.00  0.00     0.152 C 
ENDBRANCH   5  11
ENDBRANCH   1   2
BRANCH   1  18
HETATM   18  S1  UNL     1      -5.358  11.295  16.709  1.00  0.00     0.212 S 
HETATM   19  O3  UNL     1      -3.945  10.961  16.267  1.00  0.00    -0.211 OA
HETATM   20  O4  UNL     1      -6.060  11.977  15.526  1.00  0.00    -0.211 OA
BRANCH  18  21
HETATM   21  N2  UNL     1      -6.181   9.828  16.900  1.00  0.00    -0.208 NA
HETATM   22  C10 UNL     1      -6.833   9.691  18.162  1.00  0.00     0.110 C 
HETATM   23  C11 UNL     1      -7.271   8.251  18.191  1.00  0.00     0.048 C 
HETATM   24  C12 UNL     1      -6.756   7.632  16.914  1.00  0.00     0.043 C 
HETATM   25  C19 UNL     1      -5.489   8.613  16.660  1.00  0.00     0.138 C 
BRANCH  24  26
HETATM   26  N3  UNL     1      -7.495   7.833  15.776  1.00  0.00    -0.407 N 
ATOM     27  H3  UNL     1      -6.946   8.023  14.936  1.00  0.00     0.154 HD
BRANCH  26  28
HETATM   28  C13 UNL     1      -8.861   7.820  15.585  1.00  0.00     0.077 A 
HETATM   29  C14 UNL     1      -9.431   9.185  15.116  1.00  0.00     0.027 A 
HETATM   30  C15 UNL     1      -9.676   7.925  14.382  1.00  0.00     0.027 A 
ENDBRANCH  26  28
ENDBRANCH  24  26
BRANCH  24  31
HETATM   31  C16 UNL     1      -6.118   6.302  17.069  1.00  0.00     0.015 A 
HETATM   32  C17 UNL     1      -6.545   5.330  18.110  1.00  0.00     0.007 A 
HETATM   33  C18 UNL     1      -5.191   5.911  18.126  1.00  0.00     0.007 A 
ENDBRANCH  24  31
ENDBRANCH  18  21
ENDBRANCH   1  18
TORSDOF 7
ENDMDL
MODEL 5
REMARK VINA RESULT: -8.252544324      1.079      2.309
REMARK  7 active torsions:
REMARK  status: ('A' for Active; 'I' for Inactive)
REMARK    1  A    between atoms: N1_7  and  C5_8 
REMARK    2  A    between atoms: C8_12  and  C9_13 
REMARK    3  A    between atoms: C9_13  and  S1_14 
REMARK    4  A    between atoms: S1_14  and  N2_17 
REMARK    5  A    between atoms: C12_20  and  N3_21 
REMARK    6  A    between atoms: C12_20  and  C16_26 
REMARK    7  A    between atoms: N3_21  and  C13_23 
ROOT
HETATM    1  C9  UNL     1      -4.091  10.495  21.740  1.00  0.00     0.167 C 
ENDROOT
BRANCH   1   2
HETATM    2  C8  UNL     1      -2.811  11.190  22.047  1.00  0.00    -0.023 C 
HETATM    3  C7  UNL     1      -2.955  12.514  22.708  1.00  0.00     0.049 C 
HETATM    4  C6  UNL     1      -1.695  13.257  22.975  1.00  0.00     0.194 C 
HETATM    5  C5  UNL     1      -0.453  12.746  22.319  1.00  0.00     0.125 C 
HETATM    6  F1  UNL     1      -1.837  14.597  22.665  1.00  0.00    -0.247 F 
HETATM    7  C22 UNL     1      -0.623  11.617  21.392  1.00  0.00     0.012 C 
HETATM    8  C21 UNL     1      -0.538  10.318  22.165  1.00  0.00     0.007 C 
HETATM    9  C23 UNL     1      -2.000  11.487  20.769  1.00  0.00     0.017 C 
HETATM   10  C20 UNL     1      -1.914  10.244  22.803  1.00  0.00     0.011 C 
BRANCH   5  11
HETATM   11  N1  UNL     1       0.286  13.843  21.679  1.00  0.00    -0.341 N 
HETATM   12  C1  UNL     1       1.595  14.209  22.144  1.00  0.00     0.244 C 
HETATM   13  O1  UNL     1       2.131  13.581  23.093  1.00  0.00    -0.271 OA
HETATM   14  C2  UNL     1       2.363  15.323  21.545  1.00  0.00     0.270 C 
HETATM   15  O2  UNL     1       1.724  15.993  20.538  1.00  0.00    -0.380 OA
HETATM   16  C3  UNL     1       0.347  15.999  20.651  1.00  0.00     0.188 C 
HETATM   17  C4  UNL     1      -0.221  14.584  20.551  1.00  0.00     0.152 C 
ENDBRANCH   5  11
ENDBRANCH   1   2
BRANCH   1  18
HETATM   18  S1  UNL     1      -5.143  11.221  20.567  1.00  0.00     0.212 S 
HETATM   19  O3  UNL     1      -4.523  12.442  19.914  1.00  0.00    -0.211 OA
HETATM   20  O4  UNL     1      -6.495  11.649  21.156  1.00  0.00    -0.211 OA
BRANCH  18  21
HETATM   21  N2  UNL     1      -5.546  10.142  19.326  1.00  0.00    -0.208 NA
HETATM   22  C10 UNL     1      -4.599  10.108  18.259  1.00  0.00     0.110 C 
HETATM   23  C11 UNL     1      -5.280   9.290  17.194  1.00  0.00     0.048 C 
HETATM   24  C12 UNL     1      -6.650   8.958  17.734  1.00  0.00     0.043 C 
HETATM   25  C19 UNL     1      -6.833  10.223  18.734  1.00  0.00     0.138 C 
BRANCH  24  26
HETATM   26  N3  UNL     1      -6.743   7.902  18.605  1.00  0.00    -0.407 N 
ATOM     27  H3  UNL     1      -7.490   7.979  19.296  1.00  0.00     0.154 HD
BRANCH  26  28
HETATM   28  C13 UNL     1      -5.986   6.751  18.697  1.00  0.00     0.077 A 
HETATM   29  C14 UNL     1      -6.781   5.463  18.358  1.00  0.00     0.027 A 
HETATM   30  C15 UNL     1      -5.513   5.815  17.685  1.00  0.00     0.027 A 
ENDBRANCH  26  28
ENDBRANCH  24  26
BRANCH  24  31
HETATM   31  C16 UNL     1      -7.767   9.131  16.774  1.00  0.00     0.015 A 
HETATM   32  C17 UNL     1      -8.324   7.999  15.987  1.00  0.00     0.007 A 
HETATM   33  C18 UNL     1      -7.658   9.131  15.319  1.00  0.00     0.007 A 
ENDBRANCH  24  31
ENDBRANCH  18  21
ENDBRANCH   1  18
TORSDOF 7
ENDMDL
