MODEL 1
REMARK VINA RESULT: -8.531582354      0.000      0.000
REMARK  10 active torsions:
REMARK  status: ('A' for Active; 'I' for Inactive)
REMARK    1  A    between atoms: N1_2  and  C2_3 
REMARK    2  A    between atoms: N1_2  and  C9_11 
REMARK    3  A    between atoms: C2_3  and  C3_4 
REMARK    4  A    between atoms: C9_11  and  O1_12 
REMARK    5  A    between atoms: C9_11  and  C10_14 
REMARK    6  A    between atoms: C13_17  and  S1_18 
REMARK    7  A    between atoms: S1_18  and  C14_21 
REMARK    8  A    between atoms: C17_24  and  S2_25 
REMARK    9  A    between atoms: S2_25  and  N2_26 
REMARK   10  A    between atoms: N3_34  and  O6_35 
ROOT
HETATM    1  C10 UNL     1      -6.132  10.851  20.534  1.00  0.00     0.112 A 
HETATM    2  C11 UNL     1      -4.935  10.244  20.804  1.00  0.00     0.038 A 
HETATM    3  C12 UNL     1      -4.022  10.807  21.708  1.00  0.00     0.028 A 
HETATM    4  C13 UNL     1      -4.296  11.984  22.351  1.00  0.00     0.082 A 
HETATM    5  C20 UNL     1      -5.502  12.575  22.065  1.00  0.00     0.147 A 
HETATM    6  N3  UNL     1      -6.368  12.034  21.203  1.00  0.00    -0.230 N 
ENDROOT
BRANCH   4   7
HETATM    7  S1  UNL     1      -3.180  12.714  23.483  1.00  0.00     0.208 S 
HETATM    8  O2  UNL     1      -2.037  13.324  22.715  1.00  0.00    -0.217 OA
HETATM    9  O3  UNL     1      -3.916  13.770  24.274  1.00  0.00    -0.217 OA
BRANCH   7  10
HETATM   10  C14 UNL     1      -2.573  11.467  24.526  1.00  0.00     0.064 A 
HETATM   11  C15 UNL     1      -3.262  11.135  25.661  1.00  0.00     0.025 A 
HETATM   12  C16 UNL     1      -2.821  10.152  26.522  1.00  0.00     0.027 A 
HETATM   13  C17 UNL     1      -1.647   9.504  26.201  1.00  0.00     0.079 A 
HETATM   14  C18 UNL     1      -0.960   9.842  25.058  1.00  0.00     0.027 A 
HETATM   15  C19 UNL     1      -1.409  10.821  24.211  1.00  0.00     0.025 A 
BRANCH  13  16
HETATM   16  S2  UNL     1      -1.003   8.231  27.240  1.00  0.00     0.256 S 
HETATM   17  O4  UNL     1      -0.793   7.011  26.381  1.00  0.00    -0.201 OA
HETATM   18  O5  UNL     1       0.276   8.699  27.847  1.00  0.00    -0.201 OA
BRANCH  16  19
HETATM   19  N2  UNL     1      -2.183   7.920  28.460  1.00  0.00    -0.324 N 
ATOM     20  H22 UNL     1      -2.587   8.617  29.086  1.00  0.00     0.169 HD
ATOM     21  H21 UNL     1      -2.390   6.922  28.433  1.00  0.00     0.169 HD
ENDBRANCH  16  19
ENDBRANCH  13  16
ENDBRANCH   7  10
ENDBRANCH   4   7
BRANCH   6  22
HETATM   22  O6  UNL     1      -7.565  12.659  20.944  1.00  0.00    -0.283 OA
ATOM     23  H6  UNL     1      -7.947  13.157  21.657  1.00  0.00     0.245 HD
ENDBRANCH   6  22
BRANCH   1  24
HETATM   24  C9  UNL     1      -7.130  10.345  19.639  1.00  0.00     0.168 C 
BRANCH  24  25
HETATM   25  N1  UNL     1      -7.219  10.263  18.251  1.00  0.00    -0.360 N 
HETATM   26  C1  UNL     1      -8.330  11.065  17.592  1.00  0.00     0.152 C 
BRANCH  25  27
HETATM   27  C2  UNL     1      -6.457   9.541  17.280  1.00  0.00     0.163 C 
BRANCH  27  28
HETATM   28  C3  UNL     1      -6.485   8.071  17.598  1.00  0.00    -0.040 A 
HETATM   29  C4  UNL     1      -5.382   7.472  18.166  1.00  0.00     0.012 A 
HETATM   30  C5  UNL     1      -5.424   6.130  18.451  1.00  0.00     0.043 A 
HETATM   31  C6  UNL     1      -6.540   5.400  18.174  1.00  0.00     0.116 A 
HETATM   32  F1  UNL     1      -6.630   4.060  18.438  1.00  0.00    -0.206 F 
HETATM   33  C7  UNL     1      -7.646   5.979  17.609  1.00  0.00     0.043 A 
HETATM   34  C8  UNL     1      -7.622   7.324  17.317  1.00  0.00     0.012 A 
ENDBRANCH  27  28
ENDBRANCH  25  27
ENDBRANCH  24  25
BRANCH  24  35
HETATM   35  O1  UNL     1      -8.194   9.849  20.238  1.00  0.00    -0.344 OA
ATOM     36  H1  UNL     1      -8.999  10.251  19.932  1.00  0.00     0.219 HD
ENDBRANCH  24  35
ENDBRANCH   1  24
TORSDOF 10
ENDMDL
MODEL 2
REMARK VINA RESULT: -8.516008061      0.886      1.436
REMARK  10 active torsions:
REMARK  status: ('A' for Active; 'I' for Inactive)
REMARK    1  A    between atoms: N1_2  and  C2_3 
REMARK    2  A    between atoms: N1_2  and  C9_11 
REMARK    3  A    between atoms: C2_3  and  C3_4 
REMARK    4  A    between atoms: C9_11  and  O1_12 
REMARK    5  A    between atoms: C9_11  and  C10_14 
REMARK    6  A    between atoms: C13_17  and  S1_18 
REMARK    7  A    between atoms: S1_18  and  C14_21 
REMARK    8  A    between atoms: C17_24  and  S2_25 
REMARK    9  A    between atoms: S2_25  and  N2_26 
REMARK   10  A    between atoms: N3_34  and  O6_35 
ROOT
HETATM    1  C10 UNL     1      -5.802  11.233  20.141  1.00  0.00     0.112 A 
HETATM    2  C11 UNL     1      -5.500  12.569  20.146  1.00  0.00     0.038 A 
HETATM    3  C12 UNL     1      -4.623  13.112  21.097  1.00  0.00     0.028 A 
HETATM    4  C13 UNL     1      -4.041  12.326  22.054  1.00  0.00     0.082 A 
HETATM    5  C20 UNL     1      -4.359  10.990  22.031  1.00  0.00     0.147 A 
HETATM    6  N3  UNL     1      -5.194  10.478  21.122  1.00  0.00    -0.230 N 
ENDROOT
BRANCH   4   7
HETATM    7  S1  UNL     1      -2.944  12.970  23.255  1.00  0.00     0.208 S 
HETATM    8  O2  UNL     1      -1.755  13.574  22.555  1.00  0.00    -0.217 OA
HETATM    9  O3  UNL     1      -3.674  14.016  24.065  1.00  0.00    -0.217 OA
BRANCH   7  10
HETATM   10  C14 UNL     1      -2.415  11.661  24.264  1.00  0.00     0.064 A 
HETATM   11  C15 UNL     1      -3.111  11.357  25.403  1.00  0.00     0.025 A 
HETATM   12  C16 UNL     1      -2.731  10.327  26.238  1.00  0.00     0.027 A 
HETATM   13  C17 UNL     1      -1.613   9.601  25.885  1.00  0.00     0.079 A 
HETATM   14  C18 UNL     1      -0.919   9.912  24.738  1.00  0.00     0.027 A 
HETATM   15  C19 UNL     1      -1.307  10.938  23.918  1.00  0.00     0.025 A 
BRANCH  13  16
HETATM   16  S2  UNL     1      -1.049   8.264  26.889  1.00  0.00     0.256 S 
HETATM   17  O4  UNL     1      -0.464   7.225  25.968  1.00  0.00    -0.201 OA
HETATM   18  O5  UNL     1      -0.032   8.774  27.854  1.00  0.00    -0.201 OA
BRANCH  16  19
HETATM   19  N2  UNL     1      -2.422   7.635  27.723  1.00  0.00    -0.324 N 
ATOM     20  H22 UNL     1      -3.173   7.089  27.302  1.00  0.00     0.169 HD
ATOM     21  H21 UNL     1      -2.336   7.913  28.701  1.00  0.00     0.169 HD
ENDBRANCH  16  19
ENDBRANCH  13  16
ENDBRANCH   7  10
ENDBRANCH   4   7
BRANCH   6  22
HETATM   22  O6  UNL     1      -5.486   9.135  21.134  1.00  0.00    -0.283 OA
ATOM     23  H6  UNL     1      -5.221   8.649  21.906  1.00  0.00     0.245 HD
ENDBRANCH   6  22
BRANCH   1  24
HETATM   24  C9  UNL     1      -6.672  10.589  19.204  1.00  0.00     0.168 C 
BRANCH  24  25
HETATM   25  N1  UNL     1      -6.593  10.344  17.835  1.00  0.00    -0.360 N 
HETATM   26  C1  UNL     1      -7.512  11.162  16.942  1.00  0.00     0.152 C 
BRANCH  25  27
HETATM   27  C2  UNL     1      -5.799   9.437  17.065  1.00  0.00     0.163 C 
BRANCH  27  28
HETATM   28  C3  UNL     1      -6.131   8.019  17.445  1.00  0.00    -0.040 A 
HETATM   29  C4  UNL     1      -7.341   7.476  17.072  1.00  0.00     0.012 A 
HETATM   30  C5  UNL     1      -7.630   6.182  17.425  1.00  0.00     0.043 A 
HETATM   31  C6  UNL     1      -6.731   5.443  18.135  1.00  0.00     0.116 A 
HETATM   32  F1  UNL     1      -6.973   4.149  18.511  1.00  0.00    -0.206 F 
HETATM   33  C7  UNL     1      -5.523   5.967  18.513  1.00  0.00     0.043 A 
HETATM   34  C8  UNL     1      -5.218   7.264  18.168  1.00  0.00     0.012 A 
ENDBRANCH  27  28
ENDBRANCH  25  27
ENDBRANCH  24  25
BRANCH  24  35
HETATM   35  O1  UNL     1      -7.788  10.124  19.729  1.00  0.00    -0.344 OA
ATOM     36  H1  UNL     1      -7.656   9.771  20.601  1.00  0.00     0.219 HD
ENDBRANCH  24  35
ENDBRANCH   1  24
TORSDOF 10
ENDMDL
MODEL 3
REMARK VINA RESULT: -8.460565446      1.898      2.193
REMARK  10 active torsions:
REMARK  status: ('A' for Active; 'I' for Inactive)
REMARK    1  A    between atoms: N1_2  and  C2_3 
REMARK    2  A    between atoms: N1_2  and  C9_11 
REMARK    3  A    between atoms: C2_3  and  C3_4 
REMARK    4  A    between atoms: C9_11  and  O1_12 
REMARK    5  A    between atoms: C9_11  and  C10_14 
REMARK    6  A    between atoms: C13_17  and  S1_18 
REMARK    7  A    between atoms: S1_18  and  C14_21 
REMARK    8  A    between atoms: C17_24  and  S2_25 
REMARK    9  A    between atoms: S2_25  and  N2_26 
REMARK   10  A    between atoms: N3_34  and  O6_35 
ROOT
HETATM    1  C10 UNL     1      -4.440  10.798  19.388  1.00  0.00     0.112 A 
HETATM    2  C11 UNL     1      -3.992   9.881  20.300  1.00  0.00     0.038 A 
HETATM    3  C12 UNL     1      -2.990  10.206  21.226  1.00  0.00     0.028 A 
HETATM    4  C13 UNL     1      -2.423  11.452  21.248  1.00  0.00     0.082 A 
HETATM    5  C20 UNL     1      -2.886  12.356  20.323  1.00  0.00     0.147 A 
HETATM    6  N3  UNL     1      -3.842  12.041  19.445  1.00  0.00    -0.230 N 
ENDROOT
BRANCH   4   7
HETATM    7  S1  UNL     1      -1.170  11.891  22.387  1.00  0.00     0.208 S 
HETATM    8  O2  UNL     1       0.172  11.574  21.781  1.00  0.00    -0.217 OA
HETATM    9  O3  UNL     1      -1.285  13.367  22.688  1.00  0.00    -0.217 OA
BRANCH   7  10
HETATM   10  C14 UNL     1      -1.390  10.945  23.825  1.00  0.00     0.064 A 
HETATM   11  C15 UNL     1      -0.555   9.890  24.079  1.00  0.00     0.025 A 
HETATM   12  C16 UNL     1      -0.688   9.108  25.207  1.00  0.00     0.027 A 
HETATM   13  C17 UNL     1      -1.703   9.425  26.086  1.00  0.00     0.079 A 
HETATM   14  C18 UNL     1      -2.537  10.488  25.825  1.00  0.00     0.027 A 
HETATM   15  C19 UNL     1      -2.394  11.256  24.700  1.00  0.00     0.025 A 
BRANCH  13  16
HETATM   16  S2  UNL     1      -1.952   8.484  27.557  1.00  0.00     0.256 S 
HETATM   17  O4  UNL     1      -2.480   7.135  27.145  1.00  0.00    -0.201 OA
HETATM   18  O5  UNL     1      -0.655   8.364  28.284  1.00  0.00    -0.201 OA
BRANCH  16  19
HETATM   19  N2  UNL     1      -3.114   9.327  28.515  1.00  0.00    -0.324 N 
ATOM     20  H22 UNL     1      -4.027   9.647  28.194  1.00  0.00     0.169 HD
ATOM     21  H21 UNL     1      -2.713   9.440  29.446  1.00  0.00     0.169 HD
ENDBRANCH  16  19
ENDBRANCH  13  16
ENDBRANCH   7  10
ENDBRANCH   4   7
BRANCH   6  22
HETATM   22  O6  UNL     1      -4.278  12.975  18.535  1.00  0.00    -0.283 OA
ATOM     23  H6  UNL     1      -4.956  13.572  18.831  1.00  0.00     0.245 HD
ENDBRANCH   6  22
BRANCH   1  24
HETATM   24  C9  UNL     1      -5.466  10.562  18.417  1.00  0.00     0.168 C 
BRANCH  24  25
HETATM   25  N1  UNL     1      -6.858  10.561  18.475  1.00  0.00    -0.360 N 
HETATM   26  C1  UNL     1      -7.572  11.670  17.717  1.00  0.00     0.152 C 
BRANCH  25  27
HETATM   27  C2  UNL     1      -7.792   9.704  19.136  1.00  0.00     0.163 C 
BRANCH  27  28
HETATM   28  C3  UNL     1      -7.697   8.312  18.571  1.00  0.00    -0.040 A 
HETATM   29  C4  UNL     1      -7.133   7.305  19.322  1.00  0.00     0.012 A 
HETATM   30  C5  UNL     1      -7.055   6.041  18.793  1.00  0.00     0.043 A 
HETATM   31  C6  UNL     1      -7.528   5.787  17.540  1.00  0.00     0.116 A 
HETATM   32  F1  UNL     1      -7.471   4.544  16.969  1.00  0.00    -0.206 F 
HETATM   33  C7  UNL     1      -8.092   6.777  16.779  1.00  0.00     0.043 A 
HETATM   34  C8  UNL     1      -8.178   8.050  17.294  1.00  0.00     0.012 A 
ENDBRANCH  27  28
ENDBRANCH  25  27
ENDBRANCH  24  25
BRANCH  24  35
HETATM   35  O1  UNL     1      -5.017  10.283  17.209  1.00  0.00    -0.344 OA
ATOM     36  H1  UNL     1      -4.224  10.762  17.001  1.00  0.00     0.219 HD
ENDBRANCH  24  35
ENDBRANCH   1  24
TORSDOF 10
ENDMDL
MODEL 4
REMARK VINA RESULT: -8.442886371      0.836      1.301
REMARK  10 active torsions:
REMARK  status: ('A' for Active; 'I' for Inactive)
REMARK    1  A    between atoms: N1_2  and  C2_3 
REMARK    2  A    between atoms: N1_2  and  C9_11 
REMARK    3  A    between atoms: C2_3  and  C3_4 
REMARK    4  A    between atoms: C9_11  and  O1_12 
REMARK    5  A    between atoms: C9_11  and  C10_14 
REMARK    6  A    between atoms: C13_17  and  S1_18 
REMARK    7  A    between atoms: S1_18  and  C14_21 
REMARK    8  A    between atoms: C17_24  and  S2_25 
REMARK    9  A    between atoms: S2_25  and  N2_26 
REMARK   10  A    between atoms: N3_34  and  O6_35 
ROOT
HETATM    1  C10 UNL     1      -6.687  10.973  21.020  1.00  0.00     0.112 A 
HETATM    2  C11 UNL     1      -5.420  10.477  20.863  1.00  0.00     0.038 A 
HETATM    3  C12 UNL     1      -4.341  10.997  21.594  1.00  0.00     0.028 A 
HETATM    4  C13 UNL     1      -4.517  12.018  22.487  1.00  0.00     0.082 A 
HETATM    5  C20 UNL     1      -5.795  12.501  22.628  1.00  0.00     0.147 A 
HETATM    6  N3  UNL     1      -6.819  12.001  21.930  1.00  0.00    -0.230 N 
ENDROOT
BRANCH   4   7
HETATM    7  S1  UNL     1      -3.194  12.690  23.413  1.00  0.00     0.208 S 
HETATM    8  O2  UNL     1      -2.101  13.112  22.466  1.00  0.00    -0.217 OA
HETATM    9  O3  UNL     1      -3.705  13.875  24.199  1.00  0.00    -0.217 OA
BRANCH   7  10
HETATM   10  C14 UNL     1      -2.591  11.455  24.473  1.00  0.00     0.064 A 
HETATM   11  C15 UNL     1      -1.454  10.770  24.141  1.00  0.00     0.025 A 
HETATM   12  C16 UNL     1      -0.935   9.780  24.949  1.00  0.00     0.027 A 
HETATM   13  C17 UNL     1      -1.606   9.497  26.120  1.00  0.00     0.079 A 
HETATM   14  C18 UNL     1      -2.749  10.190  26.448  1.00  0.00     0.027 A 
HETATM   15  C19 UNL     1      -3.254  11.171  25.636  1.00  0.00     0.025 A 
BRANCH  13  16
HETATM   16  S2  UNL     1      -1.020   8.248  27.219  1.00  0.00     0.256 S 
HETATM   17  O4  UNL     1      -0.807   6.996  26.407  1.00  0.00    -0.201 OA
HETATM   18  O5  UNL     1       0.250   8.712  27.850  1.00  0.00    -0.201 OA
BRANCH  16  19
HETATM   19  N2  UNL     1      -2.241   8.000  28.412  1.00  0.00    -0.324 N 
ATOM     20  H22 UNL     1      -2.413   8.599  29.219  1.00  0.00     0.169 HD
ATOM     21  H21 UNL     1      -2.746   7.151  28.156  1.00  0.00     0.169 HD
ENDBRANCH  16  19
ENDBRANCH  13  16
ENDBRANCH   7  10
ENDBRANCH   4   7
BRANCH   6  22
HETATM   22  O6  UNL     1      -8.084  12.513  22.100  1.00  0.00    -0.283 OA
ATOM     23  H6  UNL     1      -8.414  13.071  21.406  1.00  0.00     0.245 HD
ENDBRANCH   6  22
BRANCH   1  24
HETATM   24  C9  UNL     1      -7.849  10.498  20.330  1.00  0.00     0.168 C 
BRANCH  24  25
HETATM   25  N1  UNL     1      -8.276  10.576  19.006  1.00  0.00    -0.360 N 
HETATM   26  C1  UNL     1      -8.528  11.970  18.454  1.00  0.00     0.152 C 
BRANCH  25  27
HETATM   27  C2  UNL     1      -8.549   9.574  18.024  1.00  0.00     0.163 C 
BRANCH  27  28
HETATM   28  C3  UNL     1      -7.539   8.463  18.133  1.00  0.00    -0.040 A 
HETATM   29  C4  UNL     1      -6.242   8.674  17.719  1.00  0.00     0.012 A 
HETATM   30  C5  UNL     1      -5.333   7.652  17.825  1.00  0.00     0.043 A 
HETATM   31  C6  UNL     1      -5.708   6.444  18.333  1.00  0.00     0.116 A 
HETATM   32  F1  UNL     1      -4.839   5.395  18.458  1.00  0.00    -0.206 F 
HETATM   33  C7  UNL     1      -6.993   6.217  18.750  1.00  0.00     0.043 A 
HETATM   34  C8  UNL     1      -7.918   7.232  18.650  1.00  0.00     0.012 A 
ENDBRANCH  27  28
ENDBRANCH  25  27
ENDBRANCH  24  25
BRANCH  24  35
HETATM   35  O1  UNL     1      -8.705   9.848  21.093  1.00  0.00    -0.344 OA
ATOM     36  H1  UNL     1      -8.732  10.192  21.977  1.00  0.00     0.219 HD
ENDBRANCH  24  35
ENDBRANCH   1  24
TORSDOF 10
ENDMDL
MODEL 5
REMARK VINA RESULT: -8.228616416      1.407      1.796
REMARK  10 active torsions:
REMARK  status: ('A' for Active; 'I' for Inactive)
REMARK    1  A    between atoms: N1_2  and  C2_3 
REMARK    2  A    between atoms: N1_2  and  C9_11 
REMARK    3  A    between atoms: C2_3  and  C3_4 
REMARK    4  A    between atoms: C9_11  and  O1_12 
REMARK    5  A    between atoms: C9_11  and  C10_14 
REMARK    6  A    between atoms: C13_17  and  S1_18 
REMARK    7  A    between atoms: S1_18  and  C14_21 
REMARK    8  A    between atoms: C17_24  and  S2_25 
REMARK    9  A    between atoms: S2_25  and  N2_26 
REMARK   10  A    between atoms: N3_34  and  O6_35 
ROOT
HETATM    1  C10 UNL     1      -6.711  12.003  20.996  1.00  0.00     0.112 A 
HETATM    2  C11 UNL     1      -5.449  12.206  20.506  1.00  0.00     0.038 A 
HETATM    3  C12 UNL     1      -4.407  12.639  21.339  1.00  0.00     0.028 A 
HETATM    4  C13 UNL     1      -4.616  12.876  22.671  1.00  0.00     0.082 A 
HETATM    5  C20 UNL     1      -5.890  12.667  23.140  1.00  0.00     0.147 A 
HETATM    6  N3  UNL     1      -6.878  12.253  22.343  1.00  0.00    -0.230 N 
ENDROOT
BRANCH   4   7
HETATM    7  S1  UNL     1      -3.340  13.418  23.737  1.00  0.00     0.208 S 
HETATM    8  O2  UNL     1      -2.249  14.046  22.910  1.00  0.00    -0.217 OA
HETATM    9  O3  UNL     1      -3.916  14.420  24.710  1.00  0.00    -0.217 OA
BRANCH   7  10
HETATM   10  C14 UNL     1      -2.706  12.035  24.571  1.00  0.00     0.064 A 
HETATM   11  C15 UNL     1      -1.580  11.416  24.102  1.00  0.00     0.025 A 
HETATM   12  C16 UNL     1      -1.037  10.314  24.728  1.00  0.00     0.027 A 
HETATM   13  C17 UNL     1      -1.673   9.847  25.860  1.00  0.00     0.079 A 
HETATM   14  C18 UNL     1      -2.804  10.475  26.326  1.00  0.00     0.027 A 
HETATM   15  C19 UNL     1      -3.334  11.569  25.694  1.00  0.00     0.025 A 
BRANCH  13  16
HETATM   16  S2  UNL     1      -1.053   8.443  26.731  1.00  0.00     0.256 S 
HETATM   17  O4  UNL     1      -0.485   7.493  25.710  1.00  0.00    -0.201 OA
HETATM   18  O5  UNL     1      -0.011   8.893  27.699  1.00  0.00    -0.201 OA
BRANCH  16  19
HETATM   19  N2  UNL     1      -2.386   7.724  27.558  1.00  0.00    -0.324 N 
ATOM     20  H22 UNL     1      -3.349   7.701  27.224  1.00  0.00     0.169 HD
ATOM     21  H21 UNL     1      -2.026   7.334  28.429  1.00  0.00     0.169 HD
ENDBRANCH  16  19
ENDBRANCH  13  16
ENDBRANCH   7  10
ENDBRANCH   4   7
BRANCH   6  22
HETATM   22  O6  UNL     1      -8.140  12.056  22.853  1.00  0.00    -0.283 OA
ATOM     23  H6  UNL     1      -8.450  12.699  23.480  1.00  0.00     0.245 HD
ENDBRANCH   6  22
BRANCH   1  24
HETATM   24  C9  UNL     1      -7.831  11.549  20.227  1.00  0.00     0.168 C 
BRANCH  24  25
HETATM   25  N1  UNL     1      -8.312  10.286  19.888  1.00  0.00    -0.360 N 
HETATM   26  C1  UNL     1      -9.068  10.175  18.574  1.00  0.00     0.152 C 
BRANCH  25  27
HETATM   27  C2  UNL     1      -8.247   9.023  20.555  1.00  0.00     0.163 C 
BRANCH  27  28
HETATM   28  C3  UNL     1      -7.278   8.118  19.842  1.00  0.00    -0.040 A 
HETATM   29  C4  UNL     1      -5.954   8.485  19.732  1.00  0.00     0.012 A 
HETATM   30  C5  UNL     1      -5.083   7.649  19.080  1.00  0.00     0.043 A 
HETATM   31  C6  UNL     1      -5.520   6.474  18.548  1.00  0.00     0.116 A 
HETATM   32  F1  UNL     1      -4.690   5.608  17.888  1.00  0.00    -0.206 F 
HETATM   33  C7  UNL     1      -6.833   6.094  18.648  1.00  0.00     0.043 A 
HETATM   34  C8  UNL     1      -7.721   6.920  19.298  1.00  0.00     0.012 A 
ENDBRANCH  27  28
ENDBRANCH  25  27
ENDBRANCH  24  25
BRANCH  24  35
HETATM   35  O1  UNL     1      -8.574  12.516  19.726  1.00  0.00    -0.344 OA
ATOM     36  H1  UNL     1      -9.496  12.401  19.923  1.00  0.00     0.219 HD
ENDBRANCH  24  35
ENDBRANCH   1  24
TORSDOF 10
ENDMDL
