MODEL 1
REMARK VINA RESULT: -8.655639851      0.000      0.000
REMARK  7 active torsions:
REMARK  status: ('A' for Active; 'I' for Inactive)
REMARK    1  A    between atoms: C4_4  and  C5_5 
REMARK       I    between atoms: C5_5  and  N1_7 
REMARK    2  A    between atoms: C9_11  and  C10_12 
REMARK       I    between atoms: C10_12  and  N2_14 
REMARK    3  A    between atoms: C13_17  and  C14_19 
REMARK    4  A    between atoms: C14_19  and  O4_21 
REMARK    5  A    between atoms: O4_21  and  C15_22 
REMARK    6  A    between atoms: C15_22  and  C16_23 
REMARK    7  A    between atoms: C16_23  and  N3_24 
ROOT
HETATM    1  C10 UNL     1      -5.165  12.226  21.109  1.00  0.00     0.225 C 
HETATM    2  O2  UNL     1      -5.466  11.747  22.265  1.00  0.00    -0.273 OA
HETATM    3  N2  UNL     1      -4.261  13.310  21.019  1.00  0.00    -0.352 N 
HETATM    4  C11 UNL     1      -3.917  13.847  19.729  1.00  0.00     0.129 C 
HETATM    5  C12 UNL     1      -2.529  14.440  19.718  1.00  0.00     0.074 C 
HETATM    6  C13 UNL     1      -1.640  13.850  20.777  1.00  0.00     0.193 C 
HETATM    7  F1  UNL     1      -0.455  14.558  20.796  1.00  0.00    -0.232 F 
HETATM    8  C22 UNL     1      -2.215  13.811  22.138  1.00  0.00     0.074 C 
HETATM    9  C23 UNL     1      -3.700  13.857  22.247  1.00  0.00     0.129 C 
ENDROOT
BRANCH   1  10
HETATM   10  C9  UNL     1      -5.749  11.667  19.876  1.00  0.00     0.096 C 
HETATM   11  C8  UNL     1      -4.721  10.646  19.348  1.00  0.00     0.017 C 
HETATM   12  C7  UNL     1      -5.050  10.507  17.868  1.00  0.00     0.021 C 
HETATM   13  C6  UNL     1      -6.486  10.015  17.803  1.00  0.00     0.126 C 
HETATM   14  N1  UNL     1      -7.035   9.792  19.109  1.00  0.00    -0.348 N 
HETATM   15  C5  UNL     1      -7.598   8.560  19.528  1.00  0.00     0.243 C 
HETATM   16  C24 UNL     1      -7.021  10.908  20.080  1.00  0.00     0.140 C 
HETATM   17  O1  UNL     1      -8.064   8.439  20.709  1.00  0.00    -0.268 OA
BRANCH  15  18
HETATM   18  C4  UNL     1      -7.682   7.391  18.676  1.00  0.00     0.076 C 
HETATM   19  C2  UNL     1      -6.672   6.602  18.364  1.00  0.00    -0.082 C 
HETATM   20  C1  UNL     1      -6.919   5.411  17.456  1.00  0.00     0.043 C 
HETATM   21  C3  UNL     1      -5.304   6.850  18.880  1.00  0.00     0.043 C 
ENDBRANCH  15  18
ENDBRANCH   1  10
BRANCH   6  22
HETATM   22  C14 UNL     1      -1.263  12.450  20.374  1.00  0.00     0.299 C 
HETATM   23  O3  UNL     1      -0.366  12.274  19.524  1.00  0.00    -0.261 OA
BRANCH  22  24
HETATM   24  O4  UNL     1      -1.873  11.346  20.910  1.00  0.00    -0.317 OA
BRANCH  24  25
HETATM   25  C15 UNL     1      -1.192  10.252  21.502  1.00  0.00     0.198 C 
BRANCH  25  26
HETATM   26  C16 UNL     1      -0.593  10.780  22.799  1.00  0.00     0.152 C 
BRANCH  26  27
HETATM   27  N3  UNL     1      -1.402  10.397  23.935  1.00  0.00    -0.350 N 
HETATM   28  C17 UNL     1      -2.838  10.506  23.977  1.00  0.00     0.126 C 
HETATM   29  C18 UNL     1      -3.343  11.067  25.275  1.00  0.00     0.020 C 
HETATM   30  C19 UNL     1      -2.614  10.582  26.483  1.00  0.00     0.011 C 
HETATM   31  C20 UNL     1      -1.719   9.380  26.167  1.00  0.00     0.103 C 
HETATM   32  C21 UNL     1      -0.770   9.872  25.112  1.00  0.00     0.219 C 
HETATM   33  O5  UNL     1       0.458   9.821  25.263  1.00  0.00    -0.273 OA
ENDBRANCH  26  27
ENDBRANCH  25  26
ENDBRANCH  24  25
ENDBRANCH  22  24
ENDBRANCH   6  22
TORSDOF 7
ENDMDL
MODEL 2
REMARK VINA RESULT: -8.464637053      0.931      1.333
REMARK  7 active torsions:
REMARK  status: ('A' for Active; 'I' for Inactive)
REMARK    1  A    between atoms: C4_4  and  C5_5 
REMARK       I    between atoms: C5_5  and  N1_7 
REMARK    2  A    between atoms: C9_11  and  C10_12 
REMARK       I    between atoms: C10_12  and  N2_14 
REMARK    3  A    between atoms: C13_17  and  C14_19 
REMARK    4  A    between atoms: C14_19  and  O4_21 
REMARK    5  A    between atoms: O4_21  and  C15_22 
REMARK    6  A    between atoms: C15_22  and  C16_23 
REMARK    7  A    between atoms: C16_23  and  N3_24 
ROOT
HETATM    1  C10 UNL     1      -4.811  12.279  21.345  1.00  0.00     0.225 C 
HETATM    2  O2  UNL     1      -5.056  11.784  22.507  1.00  0.00    -0.273 OA
HETATM    3  N2  UNL     1      -3.895  13.351  21.226  1.00  0.00    -0.352 N 
HETATM    4  C11 UNL     1      -3.613  13.907  19.928  1.00  0.00     0.129 C 
HETATM    5  C12 UNL     1      -2.219  14.479  19.853  1.00  0.00     0.074 C 
HETATM    6  C13 UNL     1      -1.283  13.856  20.851  1.00  0.00     0.193 C 
HETATM    7  F1  UNL     1      -0.088  14.546  20.818  1.00  0.00    -0.232 F 
HETATM    8  C22 UNL     1      -1.784  13.800  22.240  1.00  0.00     0.074 C 
HETATM    9  C23 UNL     1      -3.261  13.866  22.431  1.00  0.00     0.129 C 
ENDROOT
BRANCH   1  10
HETATM   10  C9  UNL     1      -5.470  11.752  20.136  1.00  0.00     0.096 C 
HETATM   11  C8  UNL     1      -4.490  10.724  19.536  1.00  0.00     0.017 C 
HETATM   12  C7  UNL     1      -4.899  10.616  18.075  1.00  0.00     0.021 C 
HETATM   13  C6  UNL     1      -6.346  10.150  18.078  1.00  0.00     0.126 C 
HETATM   14  N1  UNL     1      -6.828   9.914  19.408  1.00  0.00    -0.348 N 
HETATM   15  C5  UNL     1      -7.390   8.684  19.836  1.00  0.00     0.243 C 
HETATM   16  C24 UNL     1      -6.743  11.011  20.396  1.00  0.00     0.140 C 
HETATM   17  O1  UNL     1      -7.795   8.550  21.038  1.00  0.00    -0.268 OA
BRANCH  15  18
HETATM   18  C4  UNL     1      -7.540   7.532  18.969  1.00  0.00     0.076 C 
HETATM   19  C2  UNL     1      -6.557   6.757  18.556  1.00  0.00    -0.082 C 
HETATM   20  C1  UNL     1      -6.874   5.583  17.648  1.00  0.00     0.043 C 
HETATM   21  C3  UNL     1      -5.151   7.005  18.958  1.00  0.00     0.043 C 
ENDBRANCH  15  18
ENDBRANCH   1  10
BRANCH   6  22
HETATM   22  C14 UNL     1      -0.951  12.458  20.403  1.00  0.00     0.299 C 
HETATM   23  O3  UNL     1      -0.222  12.288  19.403  1.00  0.00    -0.261 OA
BRANCH  22  24
HETATM   24  O4  UNL     1      -1.423  11.350  21.057  1.00  0.00    -0.317 OA
BRANCH  24  25
HETATM   25  C15 UNL     1      -0.877  10.825  22.256  1.00  0.00     0.198 C 
BRANCH  25  26
HETATM   26  C16 UNL     1      -2.054  10.272  23.049  1.00  0.00     0.152 C 
BRANCH  26  27
HETATM   27  N3  UNL     1      -1.681  10.027  24.425  1.00  0.00    -0.350 N 
HETATM   28  C17 UNL     1      -0.400   9.507  24.833  1.00  0.00     0.126 C 
HETATM   29  C18 UNL     1      -0.512   8.443  25.887  1.00  0.00     0.020 C 
HETATM   30  C19 UNL     1      -1.556   8.705  26.921  1.00  0.00     0.011 C 
HETATM   31  C20 UNL     1      -2.068  10.147  26.864  1.00  0.00     0.103 C 
HETATM   32  C21 UNL     1      -2.617  10.307  25.476  1.00  0.00     0.219 C 
HETATM   33  O5  UNL     1      -3.788  10.654  25.272  1.00  0.00    -0.273 OA
ENDBRANCH  26  27
ENDBRANCH  25  26
ENDBRANCH  24  25
ENDBRANCH  22  24
ENDBRANCH   6  22
TORSDOF 7
ENDMDL
MODEL 3
REMARK VINA RESULT: -8.451292009      2.494      3.763
REMARK  7 active torsions:
REMARK  status: ('A' for Active; 'I' for Inactive)
REMARK    1  A    between atoms: C4_4  and  C5_5 
REMARK       I    between atoms: C5_5  and  N1_7 
REMARK    2  A    between atoms: C9_11  and  C10_12 
REMARK       I    between atoms: C10_12  and  N2_14 
REMARK    3  A    between atoms: C13_17  and  C14_19 
REMARK    4  A    between atoms: C14_19  and  O4_21 
REMARK    5  A    between atoms: O4_21  and  C15_22 
REMARK    6  A    between atoms: C15_22  and  C16_23 
REMARK    7  A    between atoms: C16_23  and  N3_24 
ROOT
HETATM    1  C10 UNL     1      -6.098  13.369  20.813  1.00  0.00     0.225 C 
HETATM    2  O2  UNL     1      -7.280  13.346  20.306  1.00  0.00    -0.273 OA
HETATM    3  N2  UNL     1      -5.716  14.455  21.636  1.00  0.00    -0.352 N 
HETATM    4  C11 UNL     1      -4.396  14.484  22.211  1.00  0.00     0.129 C 
HETATM    5  C12 UNL     1      -4.371  15.231  23.522  1.00  0.00     0.074 C 
HETATM    6  C13 UNL     1      -5.711  15.252  24.202  1.00  0.00     0.193 C 
HETATM    7  F1  UNL     1      -5.630  16.083  25.301  1.00  0.00    -0.232 F 
HETATM    8  C22 UNL     1      -6.847  15.665  23.351  1.00  0.00     0.074 C 
HETATM    9  C23 UNL     1      -6.678  15.522  21.878  1.00  0.00     0.129 C 
ENDROOT
BRANCH   1  10
HETATM   10  C9  UNL     1      -5.133  12.285  20.550  1.00  0.00     0.096 C 
HETATM   11  C8  UNL     1      -5.608  11.085  21.393  1.00  0.00     0.017 C 
HETATM   12  C7  UNL     1      -4.367  10.218  21.553  1.00  0.00     0.021 C 
HETATM   13  C6  UNL     1      -3.934   9.843  20.145  1.00  0.00     0.126 C 
HETATM   14  N1  UNL     1      -4.833  10.359  19.154  1.00  0.00    -0.348 N 
HETATM   15  C5  UNL     1      -5.481   9.554  18.183  1.00  0.00     0.243 C 
HETATM   16  C24 UNL     1      -5.102  11.813  19.132  1.00  0.00     0.140 C 
HETATM   17  O1  UNL     1      -6.270  10.087  17.335  1.00  0.00    -0.268 OA
BRANCH  15  18
HETATM   18  C4  UNL     1      -5.301   8.119  18.087  1.00  0.00     0.076 C 
HETATM   19  C2  UNL     1      -6.086   7.214  18.639  1.00  0.00    -0.082 C 
HETATM   20  C1  UNL     1      -5.765   5.744  18.448  1.00  0.00     0.043 C 
HETATM   21  C3  UNL     1      -7.274   7.601  19.440  1.00  0.00     0.043 C 
ENDBRANCH  15  18
ENDBRANCH   1  10
BRANCH   6  22
HETATM   22  C14 UNL     1      -5.999  13.882  24.756  1.00  0.00     0.299 C 
HETATM   23  O3  UNL     1      -7.086  13.327  24.492  1.00  0.00    -0.261 OA
BRANCH  22  24
HETATM   24  O4  UNL     1      -5.105  13.212  25.550  1.00  0.00    -0.317 OA
BRANCH  24  25
HETATM   25  C15 UNL     1      -4.569  11.932  25.261  1.00  0.00     0.198 C 
BRANCH  25  26
HETATM   26  C16 UNL     1      -3.062  12.123  25.140  1.00  0.00     0.152 C 
BRANCH  26  27
HETATM   27  N3  UNL     1      -2.362  10.882  25.394  1.00  0.00    -0.350 N 
HETATM   28  C17 UNL     1      -2.820   9.872  26.313  1.00  0.00     0.126 C 
HETATM   29  C18 UNL     1      -1.717   9.325  27.174  1.00  0.00     0.020 C 
HETATM   30  C19 UNL     1      -0.418   9.131  26.464  1.00  0.00     0.011 C 
HETATM   31  C20 UNL     1      -0.575   9.233  24.944  1.00  0.00     0.103 C 
HETATM   32  C21 UNL     1      -1.134  10.607  24.706  1.00  0.00     0.219 C 
HETATM   33  O5  UNL     1      -0.564  11.425  23.970  1.00  0.00    -0.273 OA
ENDBRANCH  26  27
ENDBRANCH  25  26
ENDBRANCH  24  25
ENDBRANCH  22  24
ENDBRANCH   6  22
TORSDOF 7
ENDMDL
MODEL 4
REMARK VINA RESULT: -8.276665082      2.583      3.813
REMARK  7 active torsions:
REMARK  status: ('A' for Active; 'I' for Inactive)
REMARK    1  A    between atoms: C4_4  and  C5_5 
REMARK       I    between atoms: C5_5  and  N1_7 
REMARK    2  A    between atoms: C9_11  and  C10_12 
REMARK       I    between atoms: C10_12  and  N2_14 
REMARK    3  A    between atoms: C13_17  and  C14_19 
REMARK    4  A    between atoms: C14_19  and  O4_21 
REMARK    5  A    between atoms: O4_21  and  C15_22 
REMARK    6  A    between atoms: C15_22  and  C16_23 
REMARK    7  A    between atoms: C16_23  and  N3_24 
ROOT
HETATM    1  C10 UNL     1      -6.298  13.084  20.500  1.00  0.00     0.225 C 
HETATM    2  O2  UNL     1      -7.467  13.065  19.962  1.00  0.00    -0.273 OA
HETATM    3  N2  UNL     1      -5.906  14.204  21.270  1.00  0.00    -0.352 N 
HETATM    4  C11 UNL     1      -4.602  14.229  21.879  1.00  0.00     0.129 C 
HETATM    5  C12 UNL     1      -4.589  15.049  23.146  1.00  0.00     0.074 C 
HETATM    6  C13 UNL     1      -5.945  15.147  23.785  1.00  0.00     0.193 C 
HETATM    7  F1  UNL     1      -5.868  16.038  24.838  1.00  0.00    -0.232 F 
HETATM    8  C22 UNL     1      -7.045  15.542  22.882  1.00  0.00     0.074 C 
HETATM    9  C23 UNL     1      -6.842  15.309  21.424  1.00  0.00     0.129 C 
ENDROOT
BRANCH   1  10
HETATM   10  C9  UNL     1      -5.360  11.960  20.326  1.00  0.00     0.096 C 
HETATM   11  C8  UNL     1      -5.951  10.788  21.135  1.00  0.00     0.017 C 
HETATM   12  C7  UNL     1      -4.763   9.875  21.404  1.00  0.00     0.021 C 
HETATM   13  C6  UNL     1      -4.231   9.468  20.040  1.00  0.00     0.126 C 
HETATM   14  N1  UNL     1      -5.024  10.008  18.974  1.00  0.00    -0.348 N 
HETATM   15  C5  UNL     1      -5.622   9.219  17.959  1.00  0.00     0.243 C 
HETATM   16  C24 UNL     1      -5.231  11.471  18.919  1.00  0.00     0.140 C 
HETATM   17  O1  UNL     1      -6.316   9.774  17.044  1.00  0.00    -0.268 OA
BRANCH  15  18
HETATM   18  C4  UNL     1      -5.492   7.777  17.889  1.00  0.00     0.076 C 
HETATM   19  C2  UNL     1      -6.271   6.911  18.508  1.00  0.00    -0.082 C 
HETATM   20  C1  UNL     1      -6.008   5.427  18.336  1.00  0.00     0.043 C 
HETATM   21  C3  UNL     1      -7.397   7.355  19.366  1.00  0.00     0.043 C 
ENDBRANCH  15  18
ENDBRANCH   1  10
BRANCH   6  22
HETATM   22  C14 UNL     1      -6.288  13.820  24.409  1.00  0.00     0.299 C 
HETATM   23  O3  UNL     1      -7.385  13.283  24.148  1.00  0.00    -0.261 OA
BRANCH  22  24
HETATM   24  O4  UNL     1      -5.434  13.171  25.261  1.00  0.00    -0.317 OA
BRANCH  24  25
HETATM   25  C15 UNL     1      -4.689  12.010  24.931  1.00  0.00     0.198 C 
BRANCH  25  26
HETATM   26  C16 UNL     1      -3.278  12.252  25.450  1.00  0.00     0.152 C 
BRANCH  26  27
HETATM   27  N3  UNL     1      -2.292  11.748  24.519  1.00  0.00    -0.350 N 
HETATM   28  C17 UNL     1      -1.789  12.495  23.393  1.00  0.00     0.126 C 
HETATM   29  C18 UNL     1      -1.701  11.671  22.140  1.00  0.00     0.020 C 
HETATM   30  C19 UNL     1      -1.232  10.270  22.354  1.00  0.00     0.011 C 
HETATM   31  C20 UNL     1      -0.644  10.071  23.754  1.00  0.00     0.103 C 
HETATM   32  C21 UNL     1      -1.758  10.428  24.695  1.00  0.00     0.219 C 
HETATM   33  O5  UNL     1      -2.172   9.633  25.550  1.00  0.00    -0.273 OA
ENDBRANCH  26  27
ENDBRANCH  25  26
ENDBRANCH  24  25
ENDBRANCH  22  24
ENDBRANCH   6  22
TORSDOF 7
ENDMDL
MODEL 5
REMARK VINA RESULT: -8.239626786      2.396      3.380
REMARK  7 active torsions:
REMARK  status: ('A' for Active; 'I' for Inactive)
REMARK    1  A    between atoms: C4_4  and  C5_5 
REMARK       I    between atoms: C5_5  and  N1_7 
REMARK    2  A    between atoms: C9_11  and  C10_12 
REMARK       I    between atoms: C10_12  and  N2_14 
REMARK    3  A    between atoms: C13_17  and  C14_19 
REMARK    4  A    between atoms: C14_19  and  O4_21 
REMARK    5  A    between atoms: O4_21  and  C15_22 
REMARK    6  A    between atoms: C15_22  and  C16_23 
REMARK    7  A    between atoms: C16_23  and  N3_24 
ROOT
HETATM    1  C10 UNL     1      -6.112  12.786  21.112  1.00  0.00     0.225 C 
HETATM    2  O2  UNL     1      -7.376  13.021  21.180  1.00  0.00    -0.273 OA
HETATM    3  N2  UNL     1      -5.216  13.584  21.862  1.00  0.00    -0.352 N 
HETATM    4  C11 UNL     1      -3.802  13.322  21.794  1.00  0.00     0.129 C 
HETATM    5  C12 UNL     1      -3.097  13.711  23.071  1.00  0.00     0.074 C 
HETATM    6  C13 UNL     1      -4.014  13.710  24.261  1.00  0.00     0.193 C 
HETATM    7  F1  UNL     1      -3.327  14.227  25.342  1.00  0.00    -0.232 F 
HETATM    8  C22 UNL     1      -5.284  14.446  24.084  1.00  0.00     0.074 C 
HETATM    9  C23 UNL     1      -5.756  14.656  22.687  1.00  0.00     0.129 C 
ENDROOT
BRANCH   1  10
HETATM   10  C9  UNL     1      -5.582  11.702  20.265  1.00  0.00     0.096 C 
HETATM   11  C8  UNL     1      -5.007  10.651  21.235  1.00  0.00     0.017 C 
HETATM   12  C7  UNL     1      -4.013   9.863  20.394  1.00  0.00     0.021 C 
HETATM   13  C6  UNL     1      -4.814   9.263  19.251  1.00  0.00     0.126 C 
HETATM   14  N1  UNL     1      -6.210   9.573  19.356  1.00  0.00    -0.348 N 
HETATM   15  C5  UNL     1      -7.236   8.594  19.375  1.00  0.00     0.243 C 
HETATM   16  C24 UNL     1      -6.614  10.993  19.447  1.00  0.00     0.140 C 
HETATM   17  O1  UNL     1      -8.457   8.949  19.474  1.00  0.00    -0.268 OA
BRANCH  15  18
HETATM   18  C4  UNL     1      -6.981   7.170  19.286  1.00  0.00     0.076 C 
HETATM   19  C2  UNL     1      -7.262   6.409  18.246  1.00  0.00    -0.082 C 
HETATM   20  C1  UNL     1      -6.933   4.929  18.304  1.00  0.00     0.043 C 
HETATM   21  C3  UNL     1      -7.891   6.967  17.024  1.00  0.00     0.043 C 
ENDBRANCH  15  18
ENDBRANCH   1  10
BRANCH   6  22
HETATM   22  C14 UNL     1      -4.331  12.286  24.633  1.00  0.00     0.299 C 
HETATM   23  O3  UNL     1      -5.430  12.018  25.163  1.00  0.00    -0.261 OA
BRANCH  22  24
HETATM   24  O4  UNL     1      -3.451  11.260  24.410  1.00  0.00    -0.317 OA
BRANCH  24  25
HETATM   25  C15 UNL     1      -2.352  10.941  25.247  1.00  0.00     0.198 C 
BRANCH  25  26
HETATM   26  C16 UNL     1      -2.941  10.265  26.479  1.00  0.00     0.152 C 
BRANCH  26  27
HETATM   27  N3  UNL     1      -2.072   9.212  26.956  1.00  0.00    -0.350 N 
HETATM   28  C17 UNL     1      -0.701   9.048  26.543  1.00  0.00     0.126 C 
HETATM   29  C18 UNL     1      -0.349   7.619  26.243  1.00  0.00     0.020 C 
HETATM   30  C19 UNL     1      -0.952   6.625  27.180  1.00  0.00     0.011 C 
HETATM   31  C20 UNL     1      -1.539   7.296  28.425  1.00  0.00     0.103 C 
HETATM   32  C21 UNL     1      -2.570   8.253  27.899  1.00  0.00     0.219 C 
HETATM   33  O5  UNL     1      -3.754   8.202  28.261  1.00  0.00    -0.273 OA
ENDBRANCH  26  27
ENDBRANCH  25  26
ENDBRANCH  24  25
ENDBRANCH  22  24
ENDBRANCH   6  22
TORSDOF 7
ENDMDL
