MODEL 1
REMARK VINA RESULT: -9.517064996      0.000      0.000
REMARK  9 active torsions:
REMARK  status: ('A' for Active; 'I' for Inactive)
REMARK    1  A    between atoms: C1_2  and  O2_3 
REMARK    2  A    between atoms: C1_2  and  C20_30 
REMARK    3  A    between atoms: O2_3  and  C2_4 
REMARK    4  A    between atoms: C2_4  and  C3_5 
REMARK    5  A    between atoms: C2_4  and  C14_24 
REMARK    6  A    between atoms: C3_5  and  O3_6 
REMARK    7  A    between atoms: C3_5  and  N1_8 
REMARK    8  A    between atoms: N2_11  and  S1_12 
REMARK    9  A    between atoms: S1_12  and  C6_15 
ROOT
HETATM    1  C3  UNL     1      -5.222   9.964  19.529  1.00  0.00     0.148 C 
ENDROOT
BRANCH   1   2
HETATM    2  C2  UNL     1      -6.290   9.143  20.124  1.00  0.00     0.239 C 
BRANCH   2   3
HETATM    3  O2  UNL     1      -7.520   9.811  20.063  1.00  0.00    -0.301 OA
BRANCH   3   4
HETATM    4  C1  UNL     1      -8.139  10.202  21.239  1.00  0.00     0.291 C 
HETATM    5  O1  UNL     1      -8.841   9.379  21.859  1.00  0.00    -0.263 OA
BRANCH   4   6
HETATM    6  C20 UNL     1      -7.971  11.557  21.740  1.00  0.00     0.286 C 
HETATM    7  C21 UNL     1      -8.927  11.956  22.864  1.00  0.00     0.071 C 
HETATM    8  C22 UNL     1      -7.724  12.806  23.294  1.00  0.00     0.236 C 
HETATM    9  N3  UNL     1      -6.892  11.769  22.663  1.00  0.00    -0.062 N 
ATOM     10  H32 UNL     1      -6.505  10.998  23.208  1.00  0.00     0.278 HD
ATOM     11  H31 UNL     1      -5.949  11.977  22.334  1.00  0.00     0.278 HD
ENDBRANCH   4   6
ENDBRANCH   3   4
ENDBRANCH   2   3
BRANCH   2  12
HETATM   12  C14 UNL     1      -6.335   7.889  19.278  1.00  0.00    -0.021 A 
HETATM   13  C15 UNL     1      -7.542   7.476  18.766  1.00  0.00     0.010 A 
HETATM   14  C16 UNL     1      -7.649   6.340  17.988  1.00  0.00     0.001 A 
HETATM   15  C17 UNL     1      -6.511   5.617  17.728  1.00  0.00     0.000 A 
HETATM   16  C18 UNL     1      -5.281   6.034  18.247  1.00  0.00     0.001 A 
HETATM   17  C19 UNL     1      -5.187   7.185  19.033  1.00  0.00     0.010 A 
ENDBRANCH   2  12
ENDBRANCH   1   2
BRANCH   1  18
HETATM   18  O3  UNL     1      -5.221  10.123  18.238  1.00  0.00    -0.347 OA
ATOM     19  H3  UNL     1      -4.520  10.637  17.852  1.00  0.00     0.219 HD
ENDBRANCH   1  18
BRANCH   1  20
HETATM   20  N1  UNL     1      -4.192  10.605  20.202  1.00  0.00    -0.361 N 
HETATM   21  C4  UNL     1      -3.655  11.904  19.939  1.00  0.00     0.140 C 
HETATM   22  C5  UNL     1      -2.374  12.165  20.707  1.00  0.00     0.127 C 
HETATM   23  N2  UNL     1      -2.491  11.912  22.108  1.00  0.00    -0.203 NA
HETATM   24  C12 UNL     1      -3.483  10.924  22.446  1.00  0.00     0.127 C 
HETATM   25  C13 UNL     1      -3.538   9.898  21.334  1.00  0.00     0.140 C 
BRANCH  23  26
HETATM   26  S1  UNL     1      -0.990  11.433  22.804  1.00  0.00     0.243 S 
HETATM   27  O4  UNL     1      -0.118  12.639  23.095  1.00  0.00    -0.206 OA
HETATM   28  O5  UNL     1      -0.208  10.552  21.890  1.00  0.00    -0.206 OA
BRANCH  26  29
HETATM   29  C6  UNL     1      -1.293  10.621  24.341  1.00  0.00     0.074 A 
HETATM   30  C7  UNL     1      -2.271  11.028  25.213  1.00  0.00     0.028 A 
HETATM   31  C8  UNL     1      -2.509  10.388  26.421  1.00  0.00     0.044 A 
HETATM   32  C9  UNL     1      -1.742   9.308  26.766  1.00  0.00     0.116 A 
HETATM   33  F1  UNL     1      -1.965   8.664  27.958  1.00  0.00    -0.206 F 
HETATM   34  C10 UNL     1      -0.755   8.883  25.906  1.00  0.00     0.044 A 
HETATM   35  C11 UNL     1      -0.527   9.525  24.708  1.00  0.00     0.028 A 
ENDBRANCH  26  29
ENDBRANCH  23  26
ENDBRANCH   1  20
TORSDOF 9
ENDMDL
MODEL 2
REMARK VINA RESULT: -9.392482256      3.121      7.927
REMARK  9 active torsions:
REMARK  status: ('A' for Active; 'I' for Inactive)
REMARK    1  A    between atoms: C1_2  and  O2_3 
REMARK    2  A    between atoms: C1_2  and  C20_30 
REMARK    3  A    between atoms: O2_3  and  C2_4 
REMARK    4  A    between atoms: C2_4  and  C3_5 
REMARK    5  A    between atoms: C2_4  and  C14_24 
REMARK    6  A    between atoms: C3_5  and  O3_6 
REMARK    7  A    between atoms: C3_5  and  N1_8 
REMARK    8  A    between atoms: N2_11  and  S1_12 
REMARK    9  A    between atoms: S1_12  and  C6_15 
ROOT
HETATM    1  C3  UNL     1      -2.965  12.288  23.229  1.00  0.00     0.148 C 
ENDROOT
BRANCH   1   2
HETATM    2  C2  UNL     1      -3.515  11.904  24.540  1.00  0.00     0.239 C 
BRANCH   2   3
HETATM    3  O2  UNL     1      -2.497  11.813  25.498  1.00  0.00    -0.301 OA
BRANCH   3   4
HETATM    4  C1  UNL     1      -1.686  10.691  25.523  1.00  0.00     0.291 C 
HETATM    5  O1  UNL     1      -0.562  10.742  24.983  1.00  0.00    -0.263 OA
BRANCH   4   6
HETATM    6  C20 UNL     1      -2.141   9.470  26.170  1.00  0.00     0.286 C 
HETATM    7  C21 UNL     1      -1.117   8.798  27.082  1.00  0.00     0.071 C 
HETATM    8  C22 UNL     1      -2.384   8.391  27.846  1.00  0.00     0.236 C 
HETATM    9  N3  UNL     1      -2.978   9.633  27.326  1.00  0.00    -0.062 N 
ATOM     10  H32 UNL     1      -2.962  10.495  27.871  1.00  0.00     0.278 HD
ATOM     11  H31 UNL     1      -3.988   9.738  27.236  1.00  0.00     0.278 HD
ENDBRANCH   4   6
ENDBRANCH   3   4
ENDBRANCH   2   3
BRANCH   2  12
HETATM   12  C14 UNL     1      -4.474  13.017  24.903  1.00  0.00    -0.021 A 
HETATM   13  C15 UNL     1      -4.045  14.016  25.743  1.00  0.00     0.010 A 
HETATM   14  C16 UNL     1      -4.873  15.058  26.113  1.00  0.00     0.001 A 
HETATM   15  C17 UNL     1      -6.153  15.083  25.616  1.00  0.00     0.000 A 
HETATM   16  C18 UNL     1      -6.593  14.068  24.760  1.00  0.00     0.001 A 
HETATM   17  C19 UNL     1      -5.746  13.019  24.395  1.00  0.00     0.010 A 
ENDBRANCH   2  12
ENDBRANCH   1   2
BRANCH   1  18
HETATM   18  O3  UNL     1      -1.932  13.078  23.208  1.00  0.00    -0.347 OA
ATOM     19  H3  UNL     1      -1.978  13.859  22.669  1.00  0.00     0.219 HD
ENDBRANCH   1  18
BRANCH   1  20
HETATM   20  N1  UNL     1      -3.430  11.894  21.984  1.00  0.00    -0.361 N 
HETATM   21  C4  UNL     1      -2.907  12.258  20.703  1.00  0.00     0.140 C 
HETATM   22  C5  UNL     1      -3.825  11.848  19.567  1.00  0.00     0.127 C 
HETATM   23  N2  UNL     1      -4.204  10.471  19.615  1.00  0.00    -0.203 NA
HETATM   24  C12 UNL     1      -4.209   9.908  20.941  1.00  0.00     0.127 C 
HETATM   25  C13 UNL     1      -4.608  10.989  21.921  1.00  0.00     0.140 C 
BRANCH  23  26
HETATM   26  S1  UNL     1      -5.752  10.204  18.907  1.00  0.00     0.243 S 
HETATM   27  O4  UNL     1      -5.813  10.778  17.504  1.00  0.00    -0.206 OA
HETATM   28  O5  UNL     1      -6.841  10.863  19.685  1.00  0.00    -0.206 OA
BRANCH  26  29
HETATM   29  C6  UNL     1      -6.042   8.469  18.777  1.00  0.00     0.074 A 
HETATM   30  C7  UNL     1      -5.046   7.572  18.483  1.00  0.00     0.028 A 
HETATM   31  C8  UNL     1      -5.275   6.207  18.382  1.00  0.00     0.044 A 
HETATM   32  C9  UNL     1      -6.542   5.727  18.580  1.00  0.00     0.116 A 
HETATM   33  F1  UNL     1      -6.786   4.379  18.484  1.00  0.00    -0.206 F 
HETATM   34  C10 UNL     1      -7.556   6.610  18.876  1.00  0.00     0.044 A 
HETATM   35  C11 UNL     1      -7.318   7.963  18.975  1.00  0.00     0.028 A 
ENDBRANCH  26  29
ENDBRANCH  23  26
ENDBRANCH   1  20
TORSDOF 9
ENDMDL
MODEL 3
REMARK VINA RESULT: -9.383071203      1.266      1.337
REMARK  9 active torsions:
REMARK  status: ('A' for Active; 'I' for Inactive)
REMARK    1  A    between atoms: C1_2  and  O2_3 
REMARK    2  A    between atoms: C1_2  and  C20_30 
REMARK    3  A    between atoms: O2_3  and  C2_4 
REMARK    4  A    between atoms: C2_4  and  C3_5 
REMARK    5  A    between atoms: C2_4  and  C14_24 
REMARK    6  A    between atoms: C3_5  and  O3_6 
REMARK    7  A    between atoms: C3_5  and  N1_8 
REMARK    8  A    between atoms: N2_11  and  S1_12 
REMARK    9  A    between atoms: S1_12  and  C6_15 
ROOT
HETATM    1  C3  UNL     1      -5.072  10.128  19.142  1.00  0.00     0.148 C 
ENDROOT
BRANCH   1   2
HETATM    2  C2  UNL     1      -6.335   9.520  19.592  1.00  0.00     0.239 C 
BRANCH   2   3
HETATM    3  O2  UNL     1      -7.432  10.183  19.028  1.00  0.00    -0.301 OA
BRANCH   3   4
HETATM    4  C1  UNL     1      -8.185  11.040  19.814  1.00  0.00     0.291 C 
HETATM    5  O1  UNL     1      -7.806  12.219  19.961  1.00  0.00    -0.263 OA
BRANCH   4   6
HETATM    6  C20 UNL     1      -9.400  10.568  20.459  1.00  0.00     0.286 C 
HETATM    7  C21 UNL     1      -9.192   9.857  21.796  1.00  0.00     0.071 C 
HETATM    8  C22 UNL     1     -10.564  10.476  22.093  1.00  0.00     0.236 C 
HETATM    9  N3  UNL     1     -10.171  11.551  21.168  1.00  0.00    -0.062 N 
ATOM     10  H32 UNL     1      -9.743  12.411  21.510  1.00  0.00     0.278 HD
ATOM     11  H31 UNL     1     -10.871  12.118  20.690  1.00  0.00     0.278 HD
ENDBRANCH   4   6
ENDBRANCH   3   4
ENDBRANCH   2   3
BRANCH   2  12
HETATM   12  C14 UNL     1      -6.278   8.091  19.096  1.00  0.00    -0.021 A 
HETATM   13  C15 UNL     1      -7.455   7.425  18.854  1.00  0.00     0.010 A 
HETATM   14  C16 UNL     1      -7.470   6.120  18.401  1.00  0.00     0.001 A 
HETATM   15  C17 UNL     1      -6.269   5.488  18.191  1.00  0.00     0.000 A 
HETATM   16  C18 UNL     1      -5.068   6.163  18.436  1.00  0.00     0.001 A 
HETATM   17  C19 UNL     1      -5.068   7.483  18.894  1.00  0.00     0.010 A 
ENDBRANCH   2  12
ENDBRANCH   1   2
BRANCH   1  18
HETATM   18  O3  UNL     1      -4.802  10.107  17.870  1.00  0.00    -0.347 OA
ATOM     19  H3  UNL     1      -3.959   9.763  17.598  1.00  0.00     0.219 HD
ENDBRANCH   1  18
BRANCH   1  20
HETATM   20  N1  UNL     1      -4.113  10.739  19.937  1.00  0.00    -0.361 N 
HETATM   21  C4  UNL     1      -3.680  12.101  19.888  1.00  0.00     0.140 C 
HETATM   22  C5  UNL     1      -2.441  12.343  20.729  1.00  0.00     0.127 C 
HETATM   23  N2  UNL     1      -2.567  11.872  22.072  1.00  0.00    -0.203 NA
HETATM   24  C12 UNL     1      -3.481  10.770  22.226  1.00  0.00     0.127 C 
HETATM   25  C13 UNL     1      -3.427   9.923  20.973  1.00  0.00     0.140 C 
BRANCH  23  26
HETATM   26  S1  UNL     1      -1.046  11.413  22.739  1.00  0.00     0.243 S 
HETATM   27  O4  UNL     1      -0.181  12.630  23.007  1.00  0.00    -0.206 OA
HETATM   28  O5  UNL     1      -0.274  10.537  21.812  1.00  0.00    -0.206 OA
BRANCH  26  29
HETATM   29  C6  UNL     1      -1.308  10.605  24.285  1.00  0.00     0.074 A 
HETATM   30  C7  UNL     1      -2.271  11.007  25.176  1.00  0.00     0.028 A 
HETATM   31  C8  UNL     1      -2.477  10.370  26.392  1.00  0.00     0.044 A 
HETATM   32  C9  UNL     1      -1.693   9.298  26.725  1.00  0.00     0.116 A 
HETATM   33  F1  UNL     1      -1.883   8.657  27.924  1.00  0.00    -0.206 F 
HETATM   34  C10 UNL     1      -0.721   8.878  25.844  1.00  0.00     0.044 A 
HETATM   35  C11 UNL     1      -0.525   9.517  24.640  1.00  0.00     0.028 A 
ENDBRANCH  26  29
ENDBRANCH  23  26
ENDBRANCH   1  20
TORSDOF 9
ENDMDL
MODEL 4
REMARK VINA RESULT: -9.314098217      2.072      3.736
REMARK  9 active torsions:
REMARK  status: ('A' for Active; 'I' for Inactive)
REMARK    1  A    between atoms: C1_2  and  O2_3 
REMARK    2  A    between atoms: C1_2  and  C20_30 
REMARK    3  A    between atoms: O2_3  and  C2_4 
REMARK    4  A    between atoms: C2_4  and  C3_5 
REMARK    5  A    between atoms: C2_4  and  C14_24 
REMARK    6  A    between atoms: C3_5  and  O3_6 
REMARK    7  A    between atoms: C3_5  and  N1_8 
REMARK    8  A    between atoms: N2_11  and  S1_12 
REMARK    9  A    between atoms: S1_12  and  C6_15 
ROOT
HETATM    1  C3  UNL     1      -5.761  10.327  19.843  1.00  0.00     0.148 C 
ENDROOT
BRANCH   1   2
HETATM    2  C2  UNL     1      -5.878   9.944  18.426  1.00  0.00     0.239 C 
BRANCH   2   3
HETATM    3  O2  UNL     1      -4.687  10.210  17.740  1.00  0.00    -0.301 OA
BRANCH   3   4
HETATM    4  C1  UNL     1      -4.735  10.874  16.526  1.00  0.00     0.291 C 
HETATM    5  O1  UNL     1      -3.849  11.708  16.254  1.00  0.00    -0.263 OA
BRANCH   4   6
HETATM    6  C20 UNL     1      -5.809  10.602  15.583  1.00  0.00     0.286 C 
HETATM    7  C21 UNL     1      -5.622  11.210  14.194  1.00  0.00     0.071 C 
HETATM    8  C22 UNL     1      -6.398   9.953  13.776  1.00  0.00     0.236 C 
HETATM    9  N3  UNL     1      -5.797   9.310  14.956  1.00  0.00    -0.062 N 
ATOM     10  H32 UNL     1      -4.937   8.768  14.881  1.00  0.00     0.278 HD
ATOM     11  H31 UNL     1      -6.238   8.504  15.399  1.00  0.00     0.278 HD
ENDBRANCH   4   6
ENDBRANCH   3   4
ENDBRANCH   2   3
BRANCH   2  12
HETATM   12  C14 UNL     1      -6.146   8.455  18.446  1.00  0.00    -0.021 A 
HETATM   13  C15 UNL     1      -5.082   7.588  18.506  1.00  0.00     0.010 A 
HETATM   14  C16 UNL     1      -5.260   6.219  18.526  1.00  0.00     0.001 A 
HETATM   15  C17 UNL     1      -6.542   5.727  18.486  1.00  0.00     0.000 A 
HETATM   16  C18 UNL     1      -7.629   6.606  18.424  1.00  0.00     0.001 A 
HETATM   17  C19 UNL     1      -7.434   7.989  18.404  1.00  0.00     0.010 A 
ENDBRANCH   2  12
ENDBRANCH   1   2
BRANCH   1  18
HETATM   18  O3  UNL     1      -6.796  10.153  20.611  1.00  0.00    -0.347 OA
ATOM     19  H3  UNL     1      -6.954  10.789  21.299  1.00  0.00     0.219 HD
ENDBRANCH   1  18
BRANCH   1  20
HETATM   20  N1  UNL     1      -4.647  10.865  20.470  1.00  0.00    -0.361 N 
HETATM   21  C4  UNL     1      -4.084  12.167  20.282  1.00  0.00     0.140 C 
HETATM   22  C5  UNL     1      -2.727  12.309  20.942  1.00  0.00     0.127 C 
HETATM   23  N2  UNL     1      -2.723  11.922  22.317  1.00  0.00    -0.203 NA
HETATM   24  C12 UNL     1      -3.718  10.937  22.654  1.00  0.00     0.127 C 
HETATM   25  C13 UNL     1      -3.919  10.029  21.461  1.00  0.00     0.140 C 
BRANCH  23  26
HETATM   26  S1  UNL     1      -1.183  11.329  22.815  1.00  0.00     0.243 S 
HETATM   27  O4  UNL     1      -0.202  12.468  23.015  1.00  0.00    -0.206 OA
HETATM   28  O5  UNL     1      -0.581  10.421  21.797  1.00  0.00    -0.206 OA
BRANCH  26  29
HETATM   29  C6  UNL     1      -1.351  10.501  24.364  1.00  0.00     0.074 A 
HETATM   30  C7  UNL     1      -2.288  10.862  25.298  1.00  0.00     0.028 A 
HETATM   31  C8  UNL     1      -2.419  10.210  26.516  1.00  0.00     0.044 A 
HETATM   32  C9  UNL     1      -1.584   9.165  26.808  1.00  0.00     0.116 A 
HETATM   33  F1  UNL     1      -1.701   8.510  28.008  1.00  0.00    -0.206 F 
HETATM   34  C10 UNL     1      -0.636   8.787  25.884  1.00  0.00     0.044 A 
HETATM   35  C11 UNL     1      -0.514   9.440  24.677  1.00  0.00     0.028 A 
ENDBRANCH  26  29
ENDBRANCH  23  26
ENDBRANCH   1  20
TORSDOF 9
ENDMDL
MODEL 5
REMARK VINA RESULT: -9.260268363      3.054      7.945
REMARK  9 active torsions:
REMARK  status: ('A' for Active; 'I' for Inactive)
REMARK    1  A    between atoms: C1_2  and  O2_3 
REMARK    2  A    between atoms: C1_2  and  C20_30 
REMARK    3  A    between atoms: O2_3  and  C2_4 
REMARK    4  A    between atoms: C2_4  and  C3_5 
REMARK    5  A    between atoms: C2_4  and  C14_24 
REMARK    6  A    between atoms: C3_5  and  O3_6 
REMARK    7  A    between atoms: C3_5  and  N1_8 
REMARK    8  A    between atoms: N2_11  and  S1_12 
REMARK    9  A    between atoms: S1_12  and  C6_15 
ROOT
HETATM    1  C3  UNL     1      -2.532  12.071  22.375  1.00  0.00     0.148 C 
ENDROOT
BRANCH   1   2
HETATM    2  C2  UNL     1      -1.184  11.597  22.727  1.00  0.00     0.239 C 
BRANCH   2   3
HETATM    3  O2  UNL     1      -0.307  12.677  22.895  1.00  0.00    -0.301 OA
BRANCH   3   4
HETATM    4  C1  UNL     1       0.417  13.138  21.808  1.00  0.00     0.291 C 
HETATM    5  O1  UNL     1       1.328  12.428  21.339  1.00  0.00    -0.263 OA
BRANCH   4   6
HETATM    6  C20 UNL     1       0.116  14.437  21.224  1.00  0.00     0.286 C 
HETATM    7  C21 UNL     1      -0.708  14.394  19.938  1.00  0.00     0.071 C 
HETATM    8  C22 UNL     1      -1.234  15.728  20.486  1.00  0.00     0.236 C 
HETATM    9  N3  UNL     1      -0.963  15.172  21.822  1.00  0.00    -0.062 N 
ATOM     10  H32 UNL     1      -1.692  14.700  22.355  1.00  0.00     0.278 HD
ATOM     11  H31 UNL     1      -0.805  15.782  22.625  1.00  0.00     0.278 HD
ENDBRANCH   4   6
ENDBRANCH   3   4
ENDBRANCH   2   3
BRANCH   2  12
HETATM   12  C14 UNL     1      -1.359  10.860  24.037  1.00  0.00    -0.021 A 
HETATM   13  C15 UNL     1      -0.551   9.782  24.307  1.00  0.00     0.010 A 
HETATM   14  C16 UNL     1      -0.663   9.067  25.483  1.00  0.00     0.001 A 
HETATM   15  C17 UNL     1      -1.609   9.460  26.398  1.00  0.00     0.000 A 
HETATM   16  C18 UNL     1      -2.434  10.557  26.128  1.00  0.00     0.001 A 
HETATM   17  C19 UNL     1      -2.310  11.271  24.933  1.00  0.00     0.010 A 
ENDBRANCH   2  12
ENDBRANCH   1   2
BRANCH   1  18
HETATM   18  O3  UNL     1      -2.891  13.252  22.783  1.00  0.00    -0.347 OA
ATOM     19  H3  UNL     1      -3.245  13.858  22.142  1.00  0.00     0.219 HD
ENDBRANCH   1  18
BRANCH   1  20
HETATM   20  N1  UNL     1      -3.488  11.388  21.637  1.00  0.00    -0.361 N 
HETATM   21  C4  UNL     1      -4.304  10.295  22.068  1.00  0.00     0.140 C 
HETATM   22  C5  UNL     1      -5.046   9.641  20.918  1.00  0.00     0.127 C 
HETATM   23  N2  UNL     1      -5.779  10.568  20.117  1.00  0.00    -0.203 NA
HETATM   24  C12 UNL     1      -5.233  11.901  20.111  1.00  0.00     0.127 C 
HETATM   25  C13 UNL     1      -3.728  11.804  20.231  1.00  0.00     0.140 C 
BRANCH  23  26
HETATM   26  S1  UNL     1      -5.927  10.035  18.485  1.00  0.00     0.243 S 
HETATM   27  O4  UNL     1      -4.661  10.326  17.703  1.00  0.00    -0.206 OA
HETATM   28  O5  UNL     1      -7.039  10.727  17.772  1.00  0.00    -0.206 OA
BRANCH  26  29
HETATM   29  C6  UNL     1      -6.167   8.287  18.463  1.00  0.00     0.074 A 
HETATM   30  C7  UNL     1      -5.129   7.399  18.338  1.00  0.00     0.028 A 
HETATM   31  C8  UNL     1      -5.319   6.025  18.321  1.00  0.00     0.044 A 
HETATM   32  C9  UNL     1      -6.589   5.525  18.431  1.00  0.00     0.116 A 
HETATM   33  F1  UNL     1      -6.794   4.168  18.416  1.00  0.00    -0.206 F 
HETATM   34  C10 UNL     1      -7.645   6.399  18.557  1.00  0.00     0.044 A 
HETATM   35  C11 UNL     1      -7.446   7.762  18.574  1.00  0.00     0.028 A 
ENDBRANCH  26  29
ENDBRANCH  23  26
ENDBRANCH   1  20
TORSDOF 9
ENDMDL
