MODEL 1
REMARK VINA RESULT: -8.097868064      0.000      0.000
REMARK  10 active torsions:
REMARK  status: ('A' for Active; 'I' for Inactive)
REMARK    1  A    between atoms: O1_2  and  C2_3 
REMARK    2  A    between atoms: C2_3  and  C3_5 
REMARK    3  A    between atoms: C3_5  and  C4_6 
REMARK    4  A    between atoms: C3_5  and  N1_13 
REMARK    5  A    between atoms: C4_6  and  C5_7 
REMARK    6  A    between atoms: N1_13  and  C11_15 
REMARK    7  A    between atoms: C11_15  and  O3_16 
REMARK    8  A    between atoms: C11_15  and  C12_18 
REMARK    9  A    between atoms: C14_20  and  S1_21 
REMARK   10  A    between atoms: S1_21  and  N2_24 
ROOT
HETATM    1  C11 UNL     1      -3.176  10.105  21.470  1.00  0.00     0.148 C 
ENDROOT
BRANCH   1   2
HETATM    2  N1  UNL     1      -1.815  10.013  21.724  1.00  0.00    -0.356 N 
ATOM      3  H1  UNL     1      -1.230   9.361  21.201  1.00  0.00     0.162 HD
BRANCH   2   4
HETATM    4  C3  UNL     1      -1.230  10.886  22.775  1.00  0.00     0.187 C 
BRANCH   4   5
HETATM    5  C2  UNL     1      -0.412  11.937  22.183  1.00  0.00     0.281 C 
HETATM    6  O2  UNL     1      -0.162  11.852  20.926  1.00  0.00    -0.263 OA
BRANCH   5   7
HETATM    7  O1  UNL     1       0.131  13.019  22.808  1.00  0.00    -0.325 OA
HETATM    8  C1  UNL     1       0.867  14.026  22.145  1.00  0.00     0.213 C 
ENDBRANCH   5   7
ENDBRANCH   4   5
BRANCH   4   9
HETATM    9  C4  UNL     1      -0.511   9.939  23.696  1.00  0.00     0.074 C 
BRANCH   9  10
HETATM   10  C5  UNL     1      -1.128   9.709  24.992  1.00  0.00    -0.056 A 
HETATM   11  C6  UNL     1      -2.195  10.470  25.396  1.00  0.00     0.007 A 
HETATM   12  C7  UNL     1      -2.828  10.298  26.617  1.00  0.00     0.001 A 
HETATM   13  C8  UNL     1      -2.346   9.310  27.452  1.00  0.00     0.000 A 
HETATM   14  C9  UNL     1      -1.269   8.531  27.062  1.00  0.00     0.001 A 
HETATM   15  C10 UNL     1      -0.663   8.729  25.840  1.00  0.00     0.007 A 
ENDBRANCH   9  10
ENDBRANCH   4   9
ENDBRANCH   2   4
ENDBRANCH   1   2
BRANCH   1  16
HETATM   16  O3  UNL     1      -3.924  10.143  22.545  1.00  0.00    -0.346 OA
ATOM     17  H3  UNL     1      -4.839  10.338  22.378  1.00  0.00     0.219 HD
ENDBRANCH   1  16
BRANCH   1  18
HETATM   18  C12 UNL     1      -3.906  10.169  20.224  1.00  0.00     0.033 A 
HETATM   19  C13 UNL     1      -4.454   8.976  19.693  1.00  0.00     0.042 A 
HETATM   20  C14 UNL     1      -5.190   8.998  18.542  1.00  0.00     0.075 A 
HETATM   21  C17 UNL     1      -5.428  10.164  17.859  1.00  0.00     0.026 A 
HETATM   22  C18 UNL     1      -4.918  11.338  18.335  1.00  0.00     0.021 A 
HETATM   23  C19 UNL     1      -4.164  11.301  19.518  1.00  0.00     0.025 A 
HETATM   24 BR1  UNL     1      -3.439  12.969  20.061  1.00  0.00    -0.050 Br
BRANCH  20  25
HETATM   25  S1  UNL     1      -5.831   7.482  17.951  1.00  0.00     0.243 S 
HETATM   26  O4  UNL     1      -5.022   6.377  18.528  1.00  0.00    -0.206 OA
HETATM   27  O5  UNL     1      -5.684   7.396  16.439  1.00  0.00    -0.206 OA
BRANCH  25  28
HETATM   28  N2  UNL     1      -7.468   7.346  18.438  1.00  0.00    -0.215 NA
HETATM   29  C15 UNL     1      -7.635   7.893  19.758  1.00  0.00     0.129 C 
HETATM   30  C16 UNL     1      -8.286   8.023  17.441  1.00  0.00     0.129 C 
ENDBRANCH  25  28
ENDBRANCH  20  25
ENDBRANCH   1  18
TORSDOF 10
ENDMDL
MODEL 2
REMARK VINA RESULT: -8.029562089      3.356      7.887
REMARK  10 active torsions:
REMARK  status: ('A' for Active; 'I' for Inactive)
REMARK    1  A    between atoms: O1_2  and  C2_3 
REMARK    2  A    between atoms: C2_3  and  C3_5 
REMARK    3  A    between atoms: C3_5  and  C4_6 
REMARK    4  A    between atoms: C3_5  and  N1_13 
REMARK    5  A    between atoms: C4_6  and  C5_7 
REMARK    6  A    between atoms: N1_13  and  C11_15 
REMARK    7  A    between atoms: C11_15  and  O3_16 
REMARK    8  A    between atoms: C11_15  and  C12_18 
REMARK    9  A    between atoms: C14_20  and  S1_21 
REMARK   10  A    between atoms: S1_21  and  N2_24 
ROOT
HETATM    1  C11 UNL     1      -5.899  11.641  21.784  1.00  0.00     0.148 C 
ENDROOT
BRANCH   1   2
HETATM    2  N1  UNL     1      -6.984  10.781  21.872  1.00  0.00    -0.356 N 
ATOM      3  H1  UNL     1      -7.360  10.507  22.779  1.00  0.00     0.162 HD
BRANCH   2   4
HETATM    4  C3  UNL     1      -7.586  10.269  20.613  1.00  0.00     0.187 C 
BRANCH   4   5
HETATM    5  C2  UNL     1      -8.820  10.978  20.301  1.00  0.00     0.281 C 
HETATM    6  O2  UNL     1      -8.714  12.165  19.821  1.00  0.00    -0.263 OA
BRANCH   5   7
HETATM    7  O1  UNL     1     -10.098  10.532  20.457  1.00  0.00    -0.325 OA
HETATM    8  C1  UNL     1     -10.842  10.671  21.651  1.00  0.00     0.213 C 
ENDBRANCH   5   7
ENDBRANCH   4   5
BRANCH   4   9
HETATM    9  C4  UNL     1      -7.721   8.788  20.834  1.00  0.00     0.074 C 
BRANCH   9  10
HETATM   10  C5  UNL     1      -6.962   7.932  19.937  1.00  0.00    -0.056 A 
HETATM   11  C6  UNL     1      -7.579   6.898  19.279  1.00  0.00     0.007 A 
HETATM   12  C7  UNL     1      -6.912   6.049  18.410  1.00  0.00     0.001 A 
HETATM   13  C8  UNL     1      -5.565   6.271  18.210  1.00  0.00     0.000 A 
HETATM   14  C9  UNL     1      -4.924   7.310  18.865  1.00  0.00     0.001 A 
HETATM   15  C10 UNL     1      -5.617   8.135  19.723  1.00  0.00     0.007 A 
ENDBRANCH   9  10
ENDBRANCH   4   9
ENDBRANCH   2   4
ENDBRANCH   1   2
BRANCH   1  16
HETATM   16  O3  UNL     1      -6.221  12.902  21.629  1.00  0.00    -0.346 OA
ATOM     17  H3  UNL     1      -5.479  13.497  21.623  1.00  0.00     0.219 HD
ENDBRANCH   1  16
BRANCH   1  18
HETATM   18  C12 UNL     1      -4.477  11.383  21.838  1.00  0.00     0.033 A 
HETATM   19  C13 UNL     1      -3.839  11.354  23.102  1.00  0.00     0.042 A 
HETATM   20  C14 UNL     1      -2.506  11.069  23.203  1.00  0.00     0.075 A 
HETATM   21  C17 UNL     1      -1.738  10.802  22.098  1.00  0.00     0.026 A 
HETATM   22  C18 UNL     1      -2.313  10.820  20.860  1.00  0.00     0.021 A 
HETATM   23  C19 UNL     1      -3.683  11.114  20.770  1.00  0.00     0.025 A 
HETATM   24 BR1  UNL     1      -4.374  11.185  19.004  1.00  0.00    -0.050 Br
BRANCH  20  25
HETATM   25  S1  UNL     1      -1.792  11.054  24.799  1.00  0.00     0.243 S 
HETATM   26  O4  UNL     1      -2.501  12.055  25.638  1.00  0.00    -0.206 OA
HETATM   27  O5  UNL     1      -0.334  11.484  24.734  1.00  0.00    -0.206 OA
BRANCH  25  28
HETATM   28  N2  UNL     1      -1.960   9.484  25.466  1.00  0.00    -0.215 NA
HETATM   29  C15 UNL     1      -0.673   8.849  25.557  1.00  0.00     0.129 C 
HETATM   30  C16 UNL     1      -2.613   9.619  26.761  1.00  0.00     0.129 C 
ENDBRANCH  25  28
ENDBRANCH  20  25
ENDBRANCH   1  18
TORSDOF 10
ENDMDL
MODEL 3
REMARK VINA RESULT: -7.693649327      3.633      8.028
REMARK  10 active torsions:
REMARK  status: ('A' for Active; 'I' for Inactive)
REMARK    1  A    between atoms: O1_2  and  C2_3 
REMARK    2  A    between atoms: C2_3  and  C3_5 
REMARK    3  A    between atoms: C3_5  and  C4_6 
REMARK    4  A    between atoms: C3_5  and  N1_13 
REMARK    5  A    between atoms: C4_6  and  C5_7 
REMARK    6  A    between atoms: N1_13  and  C11_15 
REMARK    7  A    between atoms: C11_15  and  O3_16 
REMARK    8  A    between atoms: C11_15  and  C12_18 
REMARK    9  A    between atoms: C14_20  and  S1_21 
REMARK   10  A    between atoms: S1_21  and  N2_24 
ROOT
HETATM    1  C11 UNL     1      -6.164  11.684  21.735  1.00  0.00     0.148 C 
ENDROOT
BRANCH   1   2
HETATM    2  N1  UNL     1      -7.162  10.730  21.869  1.00  0.00    -0.356 N 
ATOM      3  H1  UNL     1      -7.430  10.381  22.789  1.00  0.00     0.162 HD
BRANCH   2   4
HETATM    4  C3  UNL     1      -7.832  10.228  20.640  1.00  0.00     0.187 C 
BRANCH   4   5
HETATM    5  C2  UNL     1      -9.121  10.881  20.447  1.00  0.00     0.281 C 
HETATM    6  O2  UNL     1      -9.133  11.976  19.777  1.00  0.00    -0.263 OA
BRANCH   5   7
HETATM    7  O1  UNL     1     -10.338  10.466  20.898  1.00  0.00    -0.325 OA
HETATM    8  C1  UNL     1     -10.740  10.523  22.251  1.00  0.00     0.213 C 
ENDBRANCH   5   7
ENDBRANCH   4   5
BRANCH   4   9
HETATM    9  C4  UNL     1      -7.875   8.736  20.815  1.00  0.00     0.074 C 
BRANCH   9  10
HETATM   10  C5  UNL     1      -7.011   7.960  19.940  1.00  0.00    -0.056 A 
HETATM   11  C6  UNL     1      -7.491   6.841  19.308  1.00  0.00     0.007 A 
HETATM   12  C7  UNL     1      -6.720   6.061  18.460  1.00  0.00     0.001 A 
HETATM   13  C8  UNL     1      -5.410   6.446  18.255  1.00  0.00     0.000 A 
HETATM   14  C9  UNL     1      -4.907   7.573  18.884  1.00  0.00     0.001 A 
HETATM   15  C10 UNL     1      -5.702   8.325  19.722  1.00  0.00     0.007 A 
ENDBRANCH   9  10
ENDBRANCH   4   9
ENDBRANCH   2   4
ENDBRANCH   1   2
BRANCH   1  16
HETATM   16  O3  UNL     1      -6.074  12.207  20.537  1.00  0.00    -0.346 OA
ATOM     17  H3  UNL     1      -6.418  13.090  20.469  1.00  0.00     0.219 HD
ENDBRANCH   1  16
BRANCH   1  18
HETATM   18  C12 UNL     1      -5.212  12.201  22.692  1.00  0.00     0.033 A 
HETATM   19  C13 UNL     1      -3.956  11.558  22.819  1.00  0.00     0.042 A 
HETATM   20  C14 UNL     1      -3.010  12.040  23.678  1.00  0.00     0.075 A 
HETATM   21  C17 UNL     1      -3.231  13.156  24.446  1.00  0.00     0.026 A 
HETATM   22  C18 UNL     1      -4.428  13.806  24.355  1.00  0.00     0.021 A 
HETATM   23  C19 UNL     1      -5.392  13.300  23.469  1.00  0.00     0.025 A 
HETATM   24 BR1  UNL     1      -7.046  14.230  23.467  1.00  0.00    -0.050 Br
BRANCH  20  25
HETATM   25  S1  UNL     1      -1.485  11.189  23.777  1.00  0.00     0.243 S 
HETATM   26  O4  UNL     1      -0.402  12.122  23.373  1.00  0.00    -0.206 OA
HETATM   27  O5  UNL     1      -1.460  10.027  22.794  1.00  0.00    -0.206 OA
BRANCH  25  28
HETATM   28  N2  UNL     1      -1.251  10.659  25.390  1.00  0.00    -0.215 NA
HETATM   29  C15 UNL     1      -2.515  10.308  25.980  1.00  0.00     0.129 C 
HETATM   30  C16 UNL     1      -0.316   9.543  25.359  1.00  0.00     0.129 C 
ENDBRANCH  25  28
ENDBRANCH  20  25
ENDBRANCH   1  18
TORSDOF 10
ENDMDL
MODEL 4
REMARK VINA RESULT: -7.669816661      3.704      7.495
REMARK  10 active torsions:
REMARK  status: ('A' for Active; 'I' for Inactive)
REMARK    1  A    between atoms: O1_2  and  C2_3 
REMARK    2  A    between atoms: C2_3  and  C3_5 
REMARK    3  A    between atoms: C3_5  and  C4_6 
REMARK    4  A    between atoms: C3_5  and  N1_13 
REMARK    5  A    between atoms: C4_6  and  C5_7 
REMARK    6  A    between atoms: N1_13  and  C11_15 
REMARK    7  A    between atoms: C11_15  and  O3_16 
REMARK    8  A    between atoms: C11_15  and  C12_18 
REMARK    9  A    between atoms: C14_20  and  S1_21 
REMARK   10  A    between atoms: S1_21  and  N2_24 
ROOT
HETATM    1  C11 UNL     1      -4.220  10.916  22.255  1.00  0.00     0.148 C 
ENDROOT
BRANCH   1   2
HETATM    2  N1  UNL     1      -5.387  10.529  21.613  1.00  0.00    -0.356 N 
ATOM      3  H1  UNL     1      -6.292  10.629  22.071  1.00  0.00     0.162 HD
BRANCH   2   4
HETATM    4  C3  UNL     1      -5.288   9.966  20.240  1.00  0.00     0.187 C 
BRANCH   4   5
HETATM    5  C2  UNL     1      -5.088  11.022  19.257  1.00  0.00     0.281 C 
HETATM    6  O2  UNL     1      -5.650  12.154  19.485  1.00  0.00    -0.263 OA
BRANCH   5   7
HETATM    7  O1  UNL     1      -4.365  10.959  18.104  1.00  0.00    -0.325 OA
HETATM    8  C1  UNL     1      -4.938  10.811  16.820  1.00  0.00     0.213 C 
ENDBRANCH   5   7
ENDBRANCH   4   5
BRANCH   4   9
HETATM    9  C4  UNL     1      -6.538   9.147  20.076  1.00  0.00     0.074 C 
BRANCH   9  10
HETATM   10  C5  UNL     1      -6.382   7.856  19.427  1.00  0.00    -0.056 A 
HETATM   11  C6  UNL     1      -7.455   7.011  19.299  1.00  0.00     0.007 A 
HETATM   12  C7  UNL     1      -7.371   5.769  18.689  1.00  0.00     0.001 A 
HETATM   13  C8  UNL     1      -6.142   5.383  18.194  1.00  0.00     0.000 A 
HETATM   14  C9  UNL     1      -5.047   6.223  18.313  1.00  0.00     0.001 A 
HETATM   15  C10 UNL     1      -5.165   7.451  18.926  1.00  0.00     0.007 A 
ENDBRANCH   9  10
ENDBRANCH   4   9
ENDBRANCH   2   4
ENDBRANCH   1   2
BRANCH   1  16
HETATM   16  O3  UNL     1      -3.586   9.939  22.857  1.00  0.00    -0.346 OA
ATOM     17  H3  UNL     1      -3.158  10.191  23.667  1.00  0.00     0.219 HD
ENDBRANCH   1  16
BRANCH   1  18
HETATM   18  C12 UNL     1      -3.583  12.209  22.369  1.00  0.00     0.033 A 
HETATM   19  C13 UNL     1      -2.297  12.387  21.803  1.00  0.00     0.042 A 
HETATM   20  C14 UNL     1      -1.679  13.604  21.848  1.00  0.00     0.075 A 
HETATM   21  C17 UNL     1      -2.269  14.694  22.436  1.00  0.00     0.026 A 
HETATM   22  C18 UNL     1      -3.508  14.566  22.995  1.00  0.00     0.021 A 
HETATM   23  C19 UNL     1      -4.133  13.311  22.942  1.00  0.00     0.025 A 
HETATM   24 BR1  UNL     1      -5.819  13.216  23.807  1.00  0.00    -0.050 Br
BRANCH  20  25
HETATM   25  S1  UNL     1      -0.091  13.742  21.127  1.00  0.00     0.243 S 
HETATM   26  O4  UNL     1       0.523  12.389  21.086  1.00  0.00    -0.206 OA
HETATM   27  O5  UNL     1       0.811  14.612  21.988  1.00  0.00    -0.206 OA
BRANCH  25  28
HETATM   28  N2  UNL     1      -0.256  14.373  19.542  1.00  0.00    -0.215 NA
HETATM   29  C15 UNL     1      -1.224  13.606  18.806  1.00  0.00     0.129 C 
HETATM   30  C16 UNL     1      -0.623  15.778  19.660  1.00  0.00     0.129 C 
ENDBRANCH  25  28
ENDBRANCH  20  25
ENDBRANCH   1  18
TORSDOF 10
ENDMDL
MODEL 5
REMARK VINA RESULT: -7.616104977      3.107      7.216
REMARK  10 active torsions:
REMARK  status: ('A' for Active; 'I' for Inactive)
REMARK    1  A    between atoms: O1_2  and  C2_3 
REMARK    2  A    between atoms: C2_3  and  C3_5 
REMARK    3  A    between atoms: C3_5  and  C4_6 
REMARK    4  A    between atoms: C3_5  and  N1_13 
REMARK    5  A    between atoms: C4_6  and  C5_7 
REMARK    6  A    between atoms: N1_13  and  C11_15 
REMARK    7  A    between atoms: C11_15  and  O3_16 
REMARK    8  A    between atoms: C11_15  and  C12_18 
REMARK    9  A    between atoms: C14_20  and  S1_21 
REMARK   10  A    between atoms: S1_21  and  N2_24 
ROOT
HETATM    1  C11 UNL     1      -6.192  11.529  21.511  1.00  0.00     0.148 C 
ENDROOT
BRANCH   1   2
HETATM    2  N1  UNL     1      -6.362  11.426  20.138  1.00  0.00    -0.356 N 
ATOM      3  H1  UNL     1      -7.044  12.008  19.651  1.00  0.00     0.162 HD
BRANCH   2   4
HETATM    4  C3  UNL     1      -5.530  10.446  19.392  1.00  0.00     0.187 C 
BRANCH   4   5
HETATM    5  C2  UNL     1      -4.420  11.110  18.721  1.00  0.00     0.281 C 
HETATM    6  O2  UNL     1      -4.420  11.108  17.437  1.00  0.00    -0.263 OA
BRANCH   5   7
HETATM    7  O1  UNL     1      -3.361  11.745  19.297  1.00  0.00    -0.325 OA
HETATM    8  C1  UNL     1      -3.203  13.150  19.325  1.00  0.00     0.213 C 
ENDBRANCH   5   7
ENDBRANCH   4   5
BRANCH   4   9
HETATM    9  C4  UNL     1      -6.501   9.729  18.495  1.00  0.00     0.074 C 
BRANCH   9  10
HETATM   10  C5  UNL     1      -6.411   8.278  18.478  1.00  0.00    -0.056 A 
HETATM   11  C6  UNL     1      -7.550   7.513  18.486  1.00  0.00     0.007 A 
HETATM   12  C7  UNL     1      -7.531   6.127  18.468  1.00  0.00     0.001 A 
HETATM   13  C8  UNL     1      -6.298   5.507  18.440  1.00  0.00     0.000 A 
HETATM   14  C9  UNL     1      -5.137   6.262  18.432  1.00  0.00     0.001 A 
HETATM   15  C10 UNL     1      -5.192   7.638  18.451  1.00  0.00     0.007 A 
ENDBRANCH   9  10
ENDBRANCH   4   9
ENDBRANCH   2   4
ENDBRANCH   1   2
BRANCH   1  16
HETATM   16  O3  UNL     1      -7.141  10.965  22.216  1.00  0.00    -0.346 OA
ATOM     17  H3  UNL     1      -7.020  10.033  22.359  1.00  0.00     0.219 HD
ENDBRANCH   1  16
BRANCH   1  18
HETATM   18  C12 UNL     1      -5.146  12.149  22.292  1.00  0.00     0.033 A 
HETATM   19  C13 UNL     1      -4.031  11.366  22.679  1.00  0.00     0.042 A 
HETATM   20  C14 UNL     1      -2.998  11.922  23.380  1.00  0.00     0.075 A 
HETATM   21  C17 UNL     1      -2.996  13.248  23.734  1.00  0.00     0.026 A 
HETATM   22  C18 UNL     1      -4.051  14.039  23.381  1.00  0.00     0.021 A 
HETATM   23  C19 UNL     1      -5.105  13.455  22.662  1.00  0.00     0.025 A 
HETATM   24 BR1  UNL     1      -6.557  14.616  22.281  1.00  0.00    -0.050 Br
BRANCH  20  25
HETATM   25  S1  UNL     1      -1.659  10.888  23.821  1.00  0.00     0.243 S 
HETATM   26  O4  UNL     1      -0.513  11.750  24.214  1.00  0.00    -0.206 OA
HETATM   27  O5  UNL     1      -1.205  10.065  22.625  1.00  0.00    -0.206 OA
BRANCH  25  28
HETATM   28  N2  UNL     1      -2.137   9.891  25.131  1.00  0.00    -0.215 NA
HETATM   29  C15 UNL     1      -0.984   9.256  25.710  1.00  0.00     0.129 C 
HETATM   30  C16 UNL     1      -2.858  10.724  26.083  1.00  0.00     0.129 C 
ENDBRANCH  25  28
ENDBRANCH  20  25
ENDBRANCH   1  18
TORSDOF 10
ENDMDL
