MODEL 1
REMARK VINA RESULT: -6.790010636      0.000      0.000
REMARK  7 active torsions:
REMARK  status: ('A' for Active; 'I' for Inactive)
REMARK    1  A    between atoms: N1_2  and  C2_4 
REMARK    2  A    between atoms: C4_6  and  C5_7 
REMARK    3  A    between atoms: C9_13  and  N3_14 
REMARK       I    between atoms: N3_14  and  C10_16 
REMARK    4  A    between atoms: C10_16  and  C11_18 
REMARK    5  A    between atoms: C11_18  and  C12_19 
REMARK    6  A    between atoms: C11_18  and  C14_22 
REMARK    7  A    between atoms: C14_22  and  C15_24 
ROOT
HETATM    1  C2  UNL     1       5.868   3.827  20.862  1.00  0.00     0.118 A 
HETATM    2  C3  UNL     1       6.242   3.096  19.755  1.00  0.00     0.075 A 
HETATM    3  C4  UNL     1       7.243   3.595  18.953  1.00  0.00     0.037 A 
HETATM    4  N2  UNL     1       7.826   4.763  19.258  1.00  0.00    -0.194 N 
ATOM      5  H2  UNL     1       8.568   5.131  18.663  1.00  0.00     0.184 HD
HETATM    6  C9  UNL     1       7.438   5.446  20.342  1.00  0.00     0.686 A 
HETATM    7  N4  UNL     1       6.469   4.992  21.144  1.00  0.00    -0.177 N 
ATOM      8  H4  UNL     1       6.188   5.529  21.964  1.00  0.00     0.186 HD
ENDROOT
BRANCH   6   9
HETATM    9  N3  UNL     1       8.049   6.574  20.583  1.00  0.00    -0.158 N 
HETATM   10  C10 UNL     1       7.778   7.292  21.786  1.00  0.00     0.254 C 
HETATM   11  O1  UNL     1       8.233   6.899  22.878  1.00  0.00    -0.271 OA
ATOM     12  H3  UNL     1       8.721   6.943  19.910  1.00  0.00     0.187 HD
BRANCH  10  13
HETATM   13  C11 UNL     1       6.923   8.519  21.620  1.00  0.00     0.219 C 
BRANCH  13  14
HETATM   14  C12 UNL     1       6.781   9.110  22.947  1.00  0.00     0.143 C 
HETATM   15  C13 UNL     1       5.633   8.960  23.850  1.00  0.00     0.092 C 
HETATM   16  O2  UNL     1       7.715   9.812  23.369  1.00  0.00    -0.297 OA
ENDBRANCH  13  14
BRANCH  13  17
HETATM   17  C14 UNL     1       7.567   9.391  20.601  1.00  0.00     0.176 C 
HETATM   18  O3  UNL     1       8.771   9.277  20.423  1.00  0.00    -0.294 OA
BRANCH  17  19
HETATM   19  C15 UNL     1       6.863  10.391  19.780  1.00  0.00     0.133 C 
HETATM   20  C16 UNL     1       7.075  10.247  18.291  1.00  0.00     0.049 C 
HETATM   21 BR1  UNL     1       7.442  12.181  20.327  1.00  0.00    -0.065 Br
HETATM   22 BR2  UNL     1       4.964  10.254  20.129  1.00  0.00    -0.065 Br
ENDBRANCH  17  19
ENDBRANCH  13  17
ENDBRANCH  10  13
ENDBRANCH   6   9
BRANCH   3  23
HETATM   23  C5  UNL     1       7.701   2.870  17.751  1.00  0.00    -0.008 C 
HETATM   24  C6  UNL     1       7.243   3.576  16.496  1.00  0.00     0.021 C 
HETATM   25  C7  UNL     1       9.198   2.751  17.817  1.00  0.00     0.021 C 
HETATM   26  C8  UNL     1       7.086   1.475  17.814  1.00  0.00     0.021 C 
ENDBRANCH   3  23
BRANCH   1  27
HETATM   27  N1  UNL     1       4.944   3.390  21.623  1.00  0.00    -0.380 N 
HETATM   28  C1  UNL     1       4.784   1.968  21.835  1.00  0.00     0.147 C 
ATOM     29  H1  UNL     1       4.314   4.045  22.085  1.00  0.00     0.160 HD
ENDBRANCH   1  27
TORSDOF 7
ENDMDL
MODEL 2
REMARK VINA RESULT: -6.773710212      0.679      1.046
REMARK  7 active torsions:
REMARK  status: ('A' for Active; 'I' for Inactive)
REMARK    1  A    between atoms: N1_2  and  C2_4 
REMARK    2  A    between atoms: C4_6  and  C5_7 
REMARK    3  A    between atoms: C9_13  and  N3_14 
REMARK       I    between atoms: N3_14  and  C10_16 
REMARK    4  A    between atoms: C10_16  and  C11_18 
REMARK    5  A    between atoms: C11_18  and  C12_19 
REMARK    6  A    between atoms: C11_18  and  C14_22 
REMARK    7  A    between atoms: C14_22  and  C15_24 
ROOT
HETATM    1  C2  UNL     1       5.892   3.816  20.899  1.00  0.00     0.118 A 
HETATM    2  C3  UNL     1       6.270   3.085  19.793  1.00  0.00     0.075 A 
HETATM    3  C4  UNL     1       7.250   3.601  18.975  1.00  0.00     0.037 A 
HETATM    4  N2  UNL     1       7.810   4.783  19.265  1.00  0.00    -0.194 N 
ATOM      5  H2  UNL     1       8.536   5.164  18.658  1.00  0.00     0.184 HD
HETATM    6  C9  UNL     1       7.418   5.466  20.348  1.00  0.00     0.686 A 
HETATM    7  N4  UNL     1       6.469   4.997  21.164  1.00  0.00    -0.177 N 
ATOM      8  H4  UNL     1       6.185   5.533  21.983  1.00  0.00     0.186 HD
ENDROOT
BRANCH   6   9
HETATM    9  N3  UNL     1       8.006   6.610  20.573  1.00  0.00    -0.158 N 
HETATM   10  C10 UNL     1       7.770   7.306  21.796  1.00  0.00     0.254 C 
HETATM   11  O1  UNL     1       8.288   6.916  22.861  1.00  0.00    -0.271 OA
ATOM     12  H3  UNL     1       8.634   7.005  19.875  1.00  0.00     0.187 HD
BRANCH  10  13
HETATM   13  C11 UNL     1       6.872   8.508  21.686  1.00  0.00     0.219 C 
BRANCH  13  14
HETATM   14  C12 UNL     1       6.761   9.070  23.027  1.00  0.00     0.143 C 
HETATM   15  C13 UNL     1       5.642   8.885  23.960  1.00  0.00     0.092 C 
HETATM   16  O2  UNL     1       7.697   9.777  23.437  1.00  0.00    -0.297 OA
ENDBRANCH  13  14
BRANCH  13  17
HETATM   17  C14 UNL     1       7.451   9.419  20.661  1.00  0.00     0.176 C 
HETATM   18  O3  UNL     1       8.649   9.336  20.428  1.00  0.00    -0.294 OA
BRANCH  17  19
HETATM   19  C15 UNL     1       6.689  10.422  19.897  1.00  0.00     0.133 C 
HETATM   20  C16 UNL     1       5.212  10.463  20.208  1.00  0.00     0.049 C 
HETATM   21 BR1  UNL     1       6.919  10.070  17.983  1.00  0.00    -0.065 Br
HETATM   22 BR2  UNL     1       7.427  12.174  20.266  1.00  0.00    -0.065 Br
ENDBRANCH  17  19
ENDBRANCH  13  17
ENDBRANCH  10  13
ENDBRANCH   6   9
BRANCH   3  23
HETATM   23  C5  UNL     1       7.712   2.876  17.774  1.00  0.00    -0.008 C 
HETATM   24  C6  UNL     1       7.275   3.596  16.519  1.00  0.00     0.021 C 
HETATM   25  C7  UNL     1       9.206   2.738  17.855  1.00  0.00     0.021 C 
HETATM   26  C8  UNL     1       7.078   1.489  17.822  1.00  0.00     0.021 C 
ENDBRANCH   3  23
BRANCH   1  27
HETATM   27  N1  UNL     1       4.987   3.363  21.673  1.00  0.00    -0.380 N 
HETATM   28  C1  UNL     1       4.806   1.937  21.830  1.00  0.00     0.147 C 
ATOM     29  H1  UNL     1       4.387   4.010  22.185  1.00  0.00     0.160 HD
ENDBRANCH   1  27
TORSDOF 7
ENDMDL
MODEL 3
REMARK VINA RESULT: -6.663412265      2.614      3.753
REMARK  7 active torsions:
REMARK  status: ('A' for Active; 'I' for Inactive)
REMARK    1  A    between atoms: N1_2  and  C2_4 
REMARK    2  A    between atoms: C4_6  and  C5_7 
REMARK    3  A    between atoms: C9_13  and  N3_14 
REMARK       I    between atoms: N3_14  and  C10_16 
REMARK    4  A    between atoms: C10_16  and  C11_18 
REMARK    5  A    between atoms: C11_18  and  C12_19 
REMARK    6  A    between atoms: C11_18  and  C14_22 
REMARK    7  A    between atoms: C14_22  and  C15_24 
ROOT
HETATM    1  C2  UNL     1       5.985   1.491  20.986  1.00  0.00     0.118 A 
HETATM    2  C3  UNL     1       6.684   0.941  19.933  1.00  0.00     0.075 A 
HETATM    3  C4  UNL     1       7.597   1.731  19.273  1.00  0.00     0.037 A 
HETATM    4  N2  UNL     1       7.788   2.999  19.660  1.00  0.00    -0.194 N 
ATOM      5  H2  UNL     1       8.466   3.584  19.170  1.00  0.00     0.184 HD
HETATM    6  C9  UNL     1       7.091   3.502  20.687  1.00  0.00     0.686 A 
HETATM    7  N4  UNL     1       6.196   2.764  21.351  1.00  0.00    -0.177 N 
ATOM      8  H4  UNL     1       5.676   3.167  22.130  1.00  0.00     0.186 HD
ENDROOT
BRANCH   6   9
HETATM    9  N3  UNL     1       7.328   4.744  21.014  1.00  0.00    -0.158 N 
HETATM   10  C10 UNL     1       6.274   5.705  20.978  1.00  0.00     0.254 C 
HETATM   11  O1  UNL     1       5.395   5.720  21.862  1.00  0.00    -0.271 OA
ATOM     12  H3  UNL     1       8.266   5.026  21.294  1.00  0.00     0.187 HD
BRANCH  10  13
HETATM   13  C11 UNL     1       6.320   6.663  19.818  1.00  0.00     0.219 C 
BRANCH  13  14
HETATM   14  C12 UNL     1       7.364   7.636  20.122  1.00  0.00     0.143 C 
HETATM   15  C13 UNL     1       7.693   8.835  19.341  1.00  0.00     0.092 C 
HETATM   16  O2  UNL     1       8.053   7.445  21.139  1.00  0.00    -0.297 OA
ENDBRANCH  13  14
BRANCH  13  17
HETATM   17  C14 UNL     1       6.533   5.869  18.578  1.00  0.00     0.176 C 
HETATM   18  O3  UNL     1       7.679   5.569  18.275  1.00  0.00    -0.294 OA
BRANCH  17  19
HETATM   19  C15 UNL     1       5.462   5.410  17.676  1.00  0.00     0.133 C 
HETATM   20  C16 UNL     1       4.427   4.523  18.327  1.00  0.00     0.049 C 
HETATM   21 BR1  UNL     1       6.268   4.439  16.177  1.00  0.00    -0.065 Br
HETATM   22 BR2  UNL     1       4.553   6.959  16.954  1.00  0.00    -0.065 Br
ENDBRANCH  17  19
ENDBRANCH  13  17
ENDBRANCH  10  13
ENDBRANCH   6   9
BRANCH   3  23
HETATM   23  C5  UNL     1       8.387   1.212  18.138  1.00  0.00    -0.008 C 
HETATM   24  C6  UNL     1       9.268   0.068  18.583  1.00  0.00     0.021 C 
HETATM   25  C7  UNL     1       7.433   0.801  17.052  1.00  0.00     0.021 C 
HETATM   26  C8  UNL     1       9.250   2.365  17.636  1.00  0.00     0.021 C 
ENDBRANCH   3  23
BRANCH   1  27
HETATM   27  N1  UNL     1       5.132   0.784  21.615  1.00  0.00    -0.380 N 
HETATM   28  C1  UNL     1       4.038   1.414  22.321  1.00  0.00     0.147 C 
ATOM     29  H1  UNL     1       5.221  -0.232  21.621  1.00  0.00     0.160 HD
ENDBRANCH   1  27
TORSDOF 7
ENDMDL
MODEL 4
REMARK VINA RESULT: -6.648310158      2.563      3.702
REMARK  7 active torsions:
REMARK  status: ('A' for Active; 'I' for Inactive)
REMARK    1  A    between atoms: N1_2  and  C2_4 
REMARK    2  A    between atoms: C4_6  and  C5_7 
REMARK    3  A    between atoms: C9_13  and  N3_14 
REMARK       I    between atoms: N3_14  and  C10_16 
REMARK    4  A    between atoms: C10_16  and  C11_18 
REMARK    5  A    between atoms: C11_18  and  C12_19 
REMARK    6  A    between atoms: C11_18  and  C14_22 
REMARK    7  A    between atoms: C14_22  and  C15_24 
ROOT
HETATM    1  C2  UNL     1       6.724   2.031  20.916  1.00  0.00     0.118 A 
HETATM    2  C3  UNL     1       7.264   1.212  19.948  1.00  0.00     0.075 A 
HETATM    3  C4  UNL     1       7.963   1.797  18.916  1.00  0.00     0.037 A 
HETATM    4  N2  UNL     1       8.103   3.129  18.873  1.00  0.00    -0.194 N 
ATOM      5  H2  UNL     1       8.622   3.561  18.109  1.00  0.00     0.184 HD
HETATM    6  C9  UNL     1       7.565   3.894  19.832  1.00  0.00     0.686 A 
HETATM    7  N4  UNL     1       6.880   3.361  20.848  1.00  0.00    -0.177 N 
ATOM      8  H4  UNL     1       6.478   3.962  21.567  1.00  0.00     0.186 HD
ENDROOT
BRANCH   6   9
HETATM    9  N3  UNL     1       7.743   5.183  19.731  1.00  0.00    -0.158 N 
HETATM   10  C10 UNL     1       7.225   6.056  20.734  1.00  0.00     0.254 C 
HETATM   11  O1  UNL     1       7.777   6.144  21.849  1.00  0.00    -0.271 OA
ATOM     12  H3  UNL     1       8.251   5.567  18.935  1.00  0.00     0.187 HD
BRANCH  10  13
HETATM   13  C11 UNL     1       5.998   6.831  20.337  1.00  0.00     0.219 C 
BRANCH  13  14
HETATM   14  C12 UNL     1       5.857   6.678  18.893  1.00  0.00     0.143 C 
HETATM   15  C13 UNL     1       4.821   5.907  18.195  1.00  0.00     0.092 C 
HETATM   16  O2  UNL     1       6.688   7.251  18.169  1.00  0.00    -0.297 OA
ENDBRANCH  13  14
BRANCH  13  17
HETATM   17  C14 UNL     1       4.855   6.322  21.144  1.00  0.00     0.176 C 
HETATM   18  O3  UNL     1       4.740   5.113  21.281  1.00  0.00    -0.294 OA
BRANCH  17  19
HETATM   19  C15 UNL     1       3.842   7.169  21.799  1.00  0.00     0.133 C 
HETATM   20  C16 UNL     1       2.539   7.291  21.044  1.00  0.00     0.049 C 
HETATM   21 BR1  UNL     1       4.588   8.961  22.061  1.00  0.00    -0.065 Br
HETATM   22 BR2  UNL     1       3.454   6.431  23.546  1.00  0.00    -0.065 Br
ENDBRANCH  17  19
ENDBRANCH  13  17
ENDBRANCH  10  13
ENDBRANCH   6   9
BRANCH   3  23
HETATM   23  C5  UNL     1       8.573   0.987  17.843  1.00  0.00    -0.008 C 
HETATM   24  C6  UNL     1       9.566   0.003  18.419  1.00  0.00     0.021 C 
HETATM   25  C7  UNL     1       7.471   0.300  17.088  1.00  0.00     0.021 C 
HETATM   26  C8  UNL     1       9.290   1.958  16.909  1.00  0.00     0.021 C 
ENDBRANCH   3  23
BRANCH   1  27
HETATM   27  N1  UNL     1       6.071   1.517  21.883  1.00  0.00    -0.380 N 
HETATM   28  C1  UNL     1       4.692   1.119  21.704  1.00  0.00     0.147 C 
ATOM     29  H1  UNL     1       6.523   1.387  22.788  1.00  0.00     0.160 HD
ENDBRANCH   1  27
TORSDOF 7
ENDMDL
MODEL 5
REMARK VINA RESULT: -6.630823927      3.296      5.588
REMARK  7 active torsions:
REMARK  status: ('A' for Active; 'I' for Inactive)
REMARK    1  A    between atoms: N1_2  and  C2_4 
REMARK    2  A    between atoms: C4_6  and  C5_7 
REMARK    3  A    between atoms: C9_13  and  N3_14 
REMARK       I    between atoms: N3_14  and  C10_16 
REMARK    4  A    between atoms: C10_16  and  C11_18 
REMARK    5  A    between atoms: C11_18  and  C12_19 
REMARK    6  A    between atoms: C11_18  and  C14_22 
REMARK    7  A    between atoms: C14_22  and  C15_24 
ROOT
HETATM    1  C2  UNL     1       3.736   5.123  22.642  1.00  0.00     0.118 A 
HETATM    2  C3  UNL     1       2.651   5.930  22.905  1.00  0.00     0.075 A 
HETATM    3  C4  UNL     1       2.841   7.042  23.692  1.00  0.00     0.037 A 
HETATM    4  N2  UNL     1       4.059   7.317  24.180  1.00  0.00    -0.194 N 
ATOM      5  H2  UNL     1       4.199   8.142  24.762  1.00  0.00     0.184 HD
HETATM    6  C9  UNL     1       5.092   6.511  23.903  1.00  0.00     0.686 A 
HETATM    7  N4  UNL     1       4.944   5.421  23.143  1.00  0.00    -0.177 N 
ATOM      8  H4  UNL     1       5.743   4.821  22.946  1.00  0.00     0.186 HD
ENDROOT
BRANCH   6   9
HETATM    9  N3  UNL     1       6.251   6.837  24.407  1.00  0.00    -0.158 N 
HETATM   10  C10 UNL     1       6.733   8.174  24.282  1.00  0.00     0.254 C 
HETATM   11  O1  UNL     1       6.256   9.092  24.980  1.00  0.00    -0.271 OA
ATOM     12  H3  UNL     1       6.812   6.136  24.891  1.00  0.00     0.187 HD
BRANCH  10  13
HETATM   13  C11 UNL     1       7.828   8.368  23.269  1.00  0.00     0.219 C 
BRANCH  13  14
HETATM   14  C12 UNL     1       9.080   8.030  23.937  1.00  0.00     0.143 C 
HETATM   15  C13 UNL     1      10.413   8.546  23.604  1.00  0.00     0.092 C 
HETATM   16  O2  UNL     1       9.030   7.227  24.884  1.00  0.00    -0.297 OA
ENDBRANCH  13  14
BRANCH  13  17
HETATM   17  C14 UNL     1       7.499   7.540  22.077  1.00  0.00     0.176 C 
HETATM   18  O3  UNL     1       7.794   6.353  22.101  1.00  0.00    -0.294 OA
BRANCH  17  19
HETATM   19  C15 UNL     1       6.840   8.040  20.857  1.00  0.00     0.133 C 
HETATM   20  C16 UNL     1       5.796   7.113  20.280  1.00  0.00     0.049 C 
HETATM   21 BR1  UNL     1       8.205   8.377  19.493  1.00  0.00    -0.065 Br
HETATM   22 BR2  UNL     1       5.983   9.727  21.264  1.00  0.00    -0.065 Br
ENDBRANCH  17  19
ENDBRANCH  13  17
ENDBRANCH  10  13
ENDBRANCH   6   9
BRANCH   3  23
HETATM   23  C5  UNL     1       1.728   7.957  24.016  1.00  0.00    -0.008 C 
HETATM   24  C6  UNL     1       2.179   9.017  24.995  1.00  0.00     0.021 C 
HETATM   25  C7  UNL     1       1.223   8.554  22.733  1.00  0.00     0.021 C 
HETATM   26  C8  UNL     1       0.625   7.110  24.642  1.00  0.00     0.021 C 
ENDBRANCH   3  23
BRANCH   1  27
HETATM   27  N1  UNL     1       3.589   4.085  21.916  1.00  0.00    -0.380 N 
HETATM   28  C1  UNL     1       4.116   2.810  22.350  1.00  0.00     0.147 C 
ATOM     29  H1  UNL     1       3.098   4.155  21.025  1.00  0.00     0.160 HD
ENDBRANCH   1  27
TORSDOF 7
ENDMDL
