MODEL 1
REMARK VINA RESULT: -8.566724007      0.000      0.000
REMARK  7 active torsions:
REMARK  status: ('A' for Active; 'I' for Inactive)
REMARK    1  A    between atoms: C2_2  and  N1_3 
REMARK    2  A    between atoms: N1_3  and  C3_4 
REMARK    3  A    between atoms: N1_3  and  C5_6 
REMARK    4  A    between atoms: C5_6  and  N2_8 
REMARK    5  A    between atoms: C8_11  and  N3_12 
REMARK       I    between atoms: N3_12  and  C9_14 
REMARK    6  A    between atoms: C9_14  and  C10_16 
REMARK    7  A    between atoms: C15_21  and  C16_22 
ROOT
HETATM    1  C10 UNL     1       7.743   2.628  18.993  1.00  0.00     0.051 C 
HETATM    2  C11 UNL     1       8.934   3.183  18.264  1.00  0.00     0.024 C 
HETATM    3  C12 UNL     1       9.782   2.233  17.513  1.00  0.00    -0.013 C 
HETATM    4  C13 UNL     1       9.293   1.962  16.107  1.00  0.00     0.006 C 
HETATM    5  C14 UNL     1       7.819   2.216  16.017  1.00  0.00     0.020 C 
HETATM    6  C15 UNL     1       7.034   1.374  17.035  1.00  0.00     0.048 C 
HETATM    7  C17 UNL     1       7.774   0.185  17.524  1.00  0.00     0.024 C 
HETATM    8  C18 UNL     1       8.714   0.404  18.661  1.00  0.00    -0.012 C 
HETATM    9  C19 UNL     1      10.049   0.943  18.225  1.00  0.00     0.009 C 
HETATM   10  C20 UNL     1       8.157   1.313  19.692  1.00  0.00     0.025 C 
HETATM   11  C21 UNL     1       6.558   2.309  18.161  1.00  0.00    -0.004 A 
HETATM   12  C22 UNL     1       5.640   3.390  17.761  1.00  0.00     0.017 A 
HETATM   13  C23 UNL     1       5.194   2.187  18.585  1.00  0.00    -0.007 A 
HETATM   14  C24 UNL     1       4.633   2.510  19.946  1.00  0.00     0.011 C 
ENDROOT
BRANCH   1  15
HETATM   15  C9  UNL     1       7.505   3.599  20.104  1.00  0.00     0.227 C 
HETATM   16  N3  UNL     1       7.296   4.989  19.882  1.00  0.00    -0.356 N 
ATOM     17  H3  UNL     1       7.314   5.331  18.921  1.00  0.00     0.162 HD
HETATM   18  O1  UNL     1       7.473   3.243  21.314  1.00  0.00    -0.273 OA
BRANCH  16  19
HETATM   19  C8  UNL     1       7.060   5.946  20.942  1.00  0.00     0.087 C 
HETATM   20  C7  UNL     1       5.612   5.945  21.389  1.00  0.00     0.045 C 
HETATM   21  C6  UNL     1       5.496   6.733  22.664  1.00  0.00     0.127 C 
HETATM   22  N2  UNL     1       6.291   8.006  22.566  1.00  0.00    -0.358 N 
HETATM   23  C26 UNL     1       6.503   8.355  21.190  1.00  0.00     0.127 C 
HETATM   24  C25 UNL     1       7.473   7.362  20.561  1.00  0.00     0.045 C 
BRANCH  22  25
HETATM   25  C5  UNL     1       6.673   8.672  23.707  1.00  0.00     0.172 C 
HETATM   26  S1  UNL     1       5.371   9.169  24.676  1.00  0.00    -0.041 SA
BRANCH  25  27
HETATM   27  N1  UNL     1       7.914   9.005  24.210  1.00  0.00    -0.359 N 
BRANCH  27  28
HETATM   28  C2  UNL     1       8.402   8.193  25.386  1.00  0.00     0.120 C 
HETATM   29  C1  UNL     1       9.840   8.543  25.675  1.00  0.00     0.026 C 
ENDBRANCH  27  28
BRANCH  27  30
HETATM   30  C3  UNL     1       8.869   9.995  23.802  1.00  0.00     0.120 C 
HETATM   31  C4  UNL     1       8.349  10.937  22.755  1.00  0.00     0.026 C 
ENDBRANCH  27  30
ENDBRANCH  25  27
ENDBRANCH  22  25
ENDBRANCH  16  19
ENDBRANCH   1  15
BRANCH   6  32
HETATM   32  C16 UNL     1       5.877   0.862  16.255  1.00  0.00     0.240 C 
HETATM   33  N4  UNL     1       5.356   1.438  15.069  1.00  0.00    -0.061 NA
HETATM   34  O2  UNL     1       5.247  -0.189  16.629  1.00  0.00    -0.276 OA
ENDBRANCH   6  32
TORSDOF 7
ENDMDL
MODEL 2
REMARK VINA RESULT: -8.554415136      1.285      1.657
REMARK  7 active torsions:
REMARK  status: ('A' for Active; 'I' for Inactive)
REMARK    1  A    between atoms: C2_2  and  N1_3 
REMARK    2  A    between atoms: N1_3  and  C3_4 
REMARK    3  A    between atoms: N1_3  and  C5_6 
REMARK    4  A    between atoms: C5_6  and  N2_8 
REMARK    5  A    between atoms: C8_11  and  N3_12 
REMARK       I    between atoms: N3_12  and  C9_14 
REMARK    6  A    between atoms: C9_14  and  C10_16 
REMARK    7  A    between atoms: C15_21  and  C16_22 
ROOT
HETATM    1  C10 UNL     1       7.763   3.129  18.784  1.00  0.00     0.051 C 
HETATM    2  C11 UNL     1       9.163   3.315  18.273  1.00  0.00     0.024 C 
HETATM    3  C12 UNL     1       9.875   2.120  17.770  1.00  0.00    -0.013 C 
HETATM    4  C13 UNL     1       9.594   1.814  16.316  1.00  0.00     0.006 C 
HETATM    5  C14 UNL     1       8.267   2.384  15.916  1.00  0.00     0.020 C 
HETATM    6  C15 UNL     1       7.131   1.860  16.808  1.00  0.00     0.048 C 
HETATM    7  C17 UNL     1       7.459   0.595  17.512  1.00  0.00     0.024 C 
HETATM    8  C18 UNL     1       8.205   0.720  18.797  1.00  0.00    -0.012 C 
HETATM    9  C19 UNL     1       9.687   0.890  18.604  1.00  0.00     0.009 C 
HETATM   10  C20 UNL     1       7.711   1.840  19.634  1.00  0.00     0.025 C 
HETATM   11  C21 UNL     1       6.705   2.997  17.753  1.00  0.00    -0.004 A 
HETATM   12  C22 UNL     1       6.165   4.207  17.109  1.00  0.00     0.017 A 
HETATM   13  C23 UNL     1       5.298   3.236  17.903  1.00  0.00    -0.007 A 
HETATM   14  C24 UNL     1       4.599   3.826  19.101  1.00  0.00     0.011 C 
ENDROOT
BRANCH   1  15
HETATM   15  C9  UNL     1       7.573   4.245  19.759  1.00  0.00     0.227 C 
HETATM   16  N3  UNL     1       7.733   5.615  19.405  1.00  0.00    -0.356 N 
ATOM     17  H3  UNL     1       7.990   5.836  18.443  1.00  0.00     0.162 HD
HETATM   18  O1  UNL     1       7.258   4.040  20.963  1.00  0.00    -0.273 OA
BRANCH  16  19
HETATM   19  C8  UNL     1       7.551   6.711  20.331  1.00  0.00     0.087 C 
HETATM   20  C7  UNL     1       6.201   7.378  20.157  1.00  0.00     0.045 C 
HETATM   21  C6  UNL     1       5.960   8.301  21.319  1.00  0.00     0.127 C 
HETATM   22  N2  UNL     1       7.201   9.095  21.622  1.00  0.00    -0.358 N 
HETATM   23  C26 UNL     1       8.056   9.140  20.470  1.00  0.00     0.127 C 
HETATM   24  C25 UNL     1       8.652   7.758  20.230  1.00  0.00     0.045 C 
BRANCH  22  25
HETATM   25  C5  UNL     1       7.363   9.681  22.855  1.00  0.00     0.172 C 
HETATM   26  S1  UNL     1       8.274  11.113  22.817  1.00  0.00    -0.041 SA
BRANCH  25  27
HETATM   27  N1  UNL     1       6.919   9.325  24.113  1.00  0.00    -0.359 N 
BRANCH  27  28
HETATM   28  C2  UNL     1       7.969   8.833  25.081  1.00  0.00     0.120 C 
HETATM   29  C1  UNL     1       8.719   7.680  24.464  1.00  0.00     0.026 C 
ENDBRANCH  27  28
BRANCH  27  30
HETATM   30  C3  UNL     1       5.611   9.354  24.701  1.00  0.00     0.120 C 
HETATM   31  C4  UNL     1       5.024   7.991  24.929  1.00  0.00     0.026 C 
ENDBRANCH  27  30
ENDBRANCH  25  27
ENDBRANCH  22  25
ENDBRANCH  16  19
ENDBRANCH   1  15
BRANCH   6  32
HETATM   32  C16 UNL     1       6.044   1.540  15.847  1.00  0.00     0.240 C 
HETATM   33  N4  UNL     1       5.911   2.069  14.539  1.00  0.00    -0.061 NA
HETATM   34  O2  UNL     1       5.108   0.723  16.162  1.00  0.00    -0.276 OA
ENDBRANCH   6  32
TORSDOF 7
ENDMDL
MODEL 3
REMARK VINA RESULT: -8.543556861      1.410      1.757
REMARK  7 active torsions:
REMARK  status: ('A' for Active; 'I' for Inactive)
REMARK    1  A    between atoms: C2_2  and  N1_3 
REMARK    2  A    between atoms: N1_3  and  C3_4 
REMARK    3  A    between atoms: N1_3  and  C5_6 
REMARK    4  A    between atoms: C5_6  and  N2_8 
REMARK    5  A    between atoms: C8_11  and  N3_12 
REMARK       I    between atoms: N3_12  and  C9_14 
REMARK    6  A    between atoms: C9_14  and  C10_16 
REMARK    7  A    between atoms: C15_21  and  C16_22 
ROOT
HETATM    1  C10 UNL     1       7.827   3.161  18.811  1.00  0.00     0.051 C 
HETATM    2  C11 UNL     1       9.154   3.312  18.122  1.00  0.00     0.024 C 
HETATM    3  C12 UNL     1       9.809   2.086  17.619  1.00  0.00    -0.013 C 
HETATM    4  C13 UNL     1       9.356   1.681  16.233  1.00  0.00     0.006 C 
HETATM    5  C14 UNL     1       7.986   2.223  15.960  1.00  0.00     0.020 C 
HETATM    6  C15 UNL     1       6.971   1.761  17.017  1.00  0.00     0.048 C 
HETATM    7  C17 UNL     1       7.392   0.547  17.759  1.00  0.00     0.024 C 
HETATM    8  C18 UNL     1       8.287   0.759  18.933  1.00  0.00    -0.012 C 
HETATM    9  C19 UNL     1       9.733   0.916  18.550  1.00  0.00     0.009 C 
HETATM   10  C20 UNL     1       7.889   1.934  19.746  1.00  0.00     0.025 C 
HETATM   11  C21 UNL     1       6.653   2.960  17.927  1.00  0.00    -0.004 A 
HETATM   12  C22 UNL     1       6.029   4.123  17.272  1.00  0.00     0.017 A 
HETATM   13  C23 UNL     1       5.273   3.209  18.230  1.00  0.00    -0.007 A 
HETATM   14  C24 UNL     1       4.719   3.879  19.461  1.00  0.00     0.011 C 
ENDROOT
BRANCH   1  15
HETATM   15  C9  UNL     1       7.748   4.342  19.724  1.00  0.00     0.227 C 
HETATM   16  N3  UNL     1       7.809   5.685  19.256  1.00  0.00    -0.356 N 
ATOM     17  H3  UNL     1       7.915   5.841  18.253  1.00  0.00     0.162 HD
HETATM   18  O1  UNL     1       7.621   4.219  20.972  1.00  0.00    -0.273 OA
BRANCH  16  19
HETATM   19  C8  UNL     1       7.731   6.842  20.121  1.00  0.00     0.087 C 
HETATM   20  C7  UNL     1       6.440   7.610  19.920  1.00  0.00     0.045 C 
HETATM   21  C6  UNL     1       6.292   8.612  21.030  1.00  0.00     0.127 C 
HETATM   22  N2  UNL     1       7.598   9.315  21.280  1.00  0.00    -0.358 N 
HETATM   23  C26 UNL     1       8.440   9.224  20.120  1.00  0.00     0.127 C 
HETATM   24  C25 UNL     1       8.915   7.785  19.953  1.00  0.00     0.045 C 
BRANCH  22  25
HETATM   25  C5  UNL     1       7.824   9.951  22.477  1.00  0.00     0.172 C 
HETATM   26  S1  UNL     1       8.069  11.624  22.326  1.00  0.00    -0.041 SA
BRANCH  25  27
HETATM   27  N1  UNL     1       7.882   9.485  23.775  1.00  0.00    -0.359 N 
BRANCH  27  28
HETATM   28  C2  UNL     1       6.560   9.220  24.453  1.00  0.00     0.120 C 
HETATM   29  C1  UNL     1       6.359   7.732  24.597  1.00  0.00     0.026 C 
ENDBRANCH  27  28
BRANCH  27  30
HETATM   30  C3  UNL     1       8.998   9.174  24.621  1.00  0.00     0.120 C 
HETATM   31  C4  UNL     1      10.247   8.824  23.866  1.00  0.00     0.026 C 
ENDBRANCH  27  30
ENDBRANCH  25  27
ENDBRANCH  22  25
ENDBRANCH  16  19
ENDBRANCH   1  15
BRANCH   6  32
HETATM   32  C16 UNL     1       5.778   1.377  16.219  1.00  0.00     0.240 C 
HETATM   33  N4  UNL     1       4.714   0.552  16.662  1.00  0.00    -0.061 NA
HETATM   34  O2  UNL     1       5.631   1.791  15.015  1.00  0.00    -0.276 OA
ENDBRANCH   6  32
TORSDOF 7
ENDMDL
MODEL 4
REMARK VINA RESULT: -8.480907326      0.229      1.167
REMARK  7 active torsions:
REMARK  status: ('A' for Active; 'I' for Inactive)
REMARK    1  A    between atoms: C2_2  and  N1_3 
REMARK    2  A    between atoms: N1_3  and  C3_4 
REMARK    3  A    between atoms: N1_3  and  C5_6 
REMARK    4  A    between atoms: C5_6  and  N2_8 
REMARK    5  A    between atoms: C8_11  and  N3_12 
REMARK       I    between atoms: N3_12  and  C9_14 
REMARK    6  A    between atoms: C9_14  and  C10_16 
REMARK    7  A    between atoms: C15_21  and  C16_22 
ROOT
HETATM    1  C10 UNL     1       7.799   2.619  19.006  1.00  0.00     0.051 C 
HETATM    2  C11 UNL     1       8.993   3.177  18.285  1.00  0.00     0.024 C 
HETATM    3  C12 UNL     1       9.833   2.233  17.518  1.00  0.00    -0.013 C 
HETATM    4  C13 UNL     1       9.341   1.990  16.108  1.00  0.00     0.006 C 
HETATM    5  C14 UNL     1       7.869   2.257  16.024  1.00  0.00     0.020 C 
HETATM    6  C15 UNL     1       7.078   1.404  17.028  1.00  0.00     0.048 C 
HETATM    7  C17 UNL     1       7.809   0.201  17.496  1.00  0.00     0.024 C 
HETATM    8  C18 UNL     1       8.751   0.393  18.636  1.00  0.00    -0.012 C 
HETATM    9  C19 UNL     1      10.091   0.929  18.208  1.00  0.00     0.009 C 
HETATM   10  C20 UNL     1       8.202   1.290  19.682  1.00  0.00     0.025 C 
HETATM   11  C21 UNL     1       6.611   2.324  18.170  1.00  0.00    -0.004 A 
HETATM   12  C22 UNL     1       5.701   3.419  17.788  1.00  0.00     0.017 A 
HETATM   13  C23 UNL     1       5.246   2.206  18.593  1.00  0.00    -0.007 A 
HETATM   14  C24 UNL     1       4.689   2.510  19.960  1.00  0.00     0.011 C 
ENDROOT
BRANCH   1  15
HETATM   15  C9  UNL     1       7.569   3.573  20.134  1.00  0.00     0.227 C 
HETATM   16  N3  UNL     1       7.455   4.979  19.943  1.00  0.00    -0.356 N 
ATOM     17  H3  UNL     1       7.537   5.345  18.994  1.00  0.00     0.162 HD
HETATM   18  O1  UNL     1       7.461   3.188  21.330  1.00  0.00    -0.273 OA
BRANCH  16  19
HETATM   19  C8  UNL     1       7.228   5.920  21.019  1.00  0.00     0.087 C 
HETATM   20  C7  UNL     1       5.759   6.023  21.377  1.00  0.00     0.045 C 
HETATM   21  C6  UNL     1       5.626   6.781  22.669  1.00  0.00     0.127 C 
HETATM   22  N2  UNL     1       6.525   7.987  22.664  1.00  0.00    -0.358 N 
HETATM   23  C26 UNL     1       6.850   8.358  21.316  1.00  0.00     0.127 C 
HETATM   24  C25 UNL     1       7.776   7.308  20.713  1.00  0.00     0.045 C 
BRANCH  22  25
HETATM   25  C5  UNL     1       6.885   8.586  23.848  1.00  0.00     0.172 C 
HETATM   26  S1  UNL     1       5.576   9.232  24.713  1.00  0.00    -0.041 SA
BRANCH  25  27
HETATM   27  N1  UNL     1       8.109   8.753  24.463  1.00  0.00    -0.359 N 
BRANCH  27  28
HETATM   28  C2  UNL     1       9.165   9.485  23.671  1.00  0.00     0.120 C 
HETATM   29  C1  UNL     1       8.593  10.780  23.150  1.00  0.00     0.026 C 
ENDBRANCH  27  28
BRANCH  27  30
HETATM   30  C3  UNL     1       8.577   8.369  25.764  1.00  0.00     0.120 C 
HETATM   31  C4  UNL     1      10.073   8.355  25.886  1.00  0.00     0.026 C 
ENDBRANCH  27  30
ENDBRANCH  25  27
ENDBRANCH  22  25
ENDBRANCH  16  19
ENDBRANCH   1  15
BRANCH   6  32
HETATM   32  C16 UNL     1       5.917   0.914  16.240  1.00  0.00     0.240 C 
HETATM   33  N4  UNL     1       5.403   1.511  15.062  1.00  0.00    -0.061 NA
HETATM   34  O2  UNL     1       5.275  -0.135  16.600  1.00  0.00    -0.276 OA
ENDBRANCH   6  32
TORSDOF 7
ENDMDL
MODEL 5
REMARK VINA RESULT: -8.230563622      1.417      2.276
REMARK  7 active torsions:
REMARK  status: ('A' for Active; 'I' for Inactive)
REMARK    1  A    between atoms: C2_2  and  N1_3 
REMARK    2  A    between atoms: N1_3  and  C3_4 
REMARK    3  A    between atoms: N1_3  and  C5_6 
REMARK    4  A    between atoms: C5_6  and  N2_8 
REMARK    5  A    between atoms: C8_11  and  N3_12 
REMARK       I    between atoms: N3_12  and  C9_14 
REMARK    6  A    between atoms: C9_14  and  C10_16 
REMARK    7  A    between atoms: C15_21  and  C16_22 
ROOT
HETATM    1  C10 UNL     1       7.568   2.616  18.947  1.00  0.00     0.051 C 
HETATM    2  C11 UNL     1       8.763   3.248  18.292  1.00  0.00     0.024 C 
HETATM    3  C12 UNL     1       9.717   2.356  17.599  1.00  0.00    -0.013 C 
HETATM    4  C13 UNL     1       9.336   2.056  16.166  1.00  0.00     0.006 C 
HETATM    5  C14 UNL     1       7.857   2.214  15.983  1.00  0.00     0.020 C 
HETATM    6  C15 UNL     1       7.066   1.321  16.951  1.00  0.00     0.048 C 
HETATM    7  C17 UNL     1       7.849   0.182  17.489  1.00  0.00     0.024 C 
HETATM    8  C18 UNL     1       8.699   0.460  18.683  1.00  0.00    -0.012 C 
HETATM    9  C19 UNL     1      10.022   1.085  18.331  1.00  0.00     0.009 C 
HETATM   10  C20 UNL     1       8.020   1.330  19.673  1.00  0.00     0.025 C 
HETATM   11  C21 UNL     1       6.461   2.222  18.042  1.00  0.00    -0.004 A 
HETATM   12  C22 UNL     1       5.502   3.241  17.581  1.00  0.00     0.017 A 
HETATM   13  C23 UNL     1       5.083   2.011  18.379  1.00  0.00    -0.007 A 
HETATM   14  C24 UNL     1       4.418   2.295  19.702  1.00  0.00     0.011 C 
ENDROOT
BRANCH   1  15
HETATM   15  C9  UNL     1       7.197   3.568  20.037  1.00  0.00     0.227 C 
HETATM   16  N3  UNL     1       7.046   4.967  19.823  1.00  0.00    -0.356 N 
ATOM     17  H3  UNL     1       7.202   5.329  18.881  1.00  0.00     0.162 HD
HETATM   18  O1  UNL     1       6.994   3.187  21.222  1.00  0.00    -0.273 OA
BRANCH  16  19
HETATM   19  C8  UNL     1       6.684   5.906  20.862  1.00  0.00     0.087 C 
HETATM   20  C7  UNL     1       5.780   7.004  20.340  1.00  0.00     0.045 C 
HETATM   21  C6  UNL     1       5.215   7.765  21.506  1.00  0.00     0.127 C 
HETATM   22  N2  UNL     1       6.290   8.043  22.521  1.00  0.00    -0.358 N 
HETATM   23  C26 UNL     1       7.584   7.975  21.903  1.00  0.00     0.127 C 
HETATM   24  C25 UNL     1       7.896   6.527  21.544  1.00  0.00     0.045 C 
BRANCH  22  25
HETATM   25  C5  UNL     1       5.955   8.345  23.819  1.00  0.00     0.172 C 
HETATM   26  S1  UNL     1       7.289   8.721  24.800  1.00  0.00    -0.041 SA
BRANCH  25  27
HETATM   27  N1  UNL     1       4.739   8.404  24.470  1.00  0.00    -0.359 N 
BRANCH  27  28
HETATM   28  C2  UNL     1       4.038   9.741  24.463  1.00  0.00     0.120 C 
HETATM   29  C1  UNL     1       3.477  10.020  25.835  1.00  0.00     0.026 C 
ENDBRANCH  27  28
BRANCH  27  30
HETATM   30  C3  UNL     1       3.980   7.397  25.155  1.00  0.00     0.120 C 
HETATM   31  C4  UNL     1       3.093   6.592  24.249  1.00  0.00     0.026 C 
ENDBRANCH  27  30
ENDBRANCH  25  27
ENDBRANCH  22  25
ENDBRANCH  16  19
ENDBRANCH   1  15
BRANCH   6  32
HETATM   32  C16 UNL     1       5.997   0.736  16.101  1.00  0.00     0.240 C 
HETATM   33  N4  UNL     1       5.510   1.283  14.887  1.00  0.00    -0.061 NA
HETATM   34  O2  UNL     1       5.418  -0.358  16.433  1.00  0.00    -0.276 OA
ENDBRANCH   6  32
TORSDOF 7
ENDMDL
