MODEL 1
REMARK VINA RESULT: -9.490759464      0.000      0.000
REMARK  5 active torsions:
REMARK  status: ('A' for Active; 'I' for Inactive)
REMARK    1  A    between atoms: C6_6  and  C7_7 
REMARK    2  A    between atoms: C9_10  and  N1_11 
REMARK    3  A    between atoms: C9_10  and  C28_34 
REMARK       I    between atoms: N1_11  and  C10_13 
REMARK    4  A    between atoms: C10_13  and  C11_15 
REMARK       I    between atoms: N2_21  and  C17_22 
REMARK    5  A    between atoms: C17_22  and  C18_24 
ROOT
HETATM    1  C11 UNL     1       5.310   3.904  21.755  1.00  0.00     0.180 C 
HETATM    2  C12 UNL     1       3.866   3.635  22.030  1.00  0.00     0.041 C 
HETATM    3  C13 UNL     1       3.460   2.574  21.082  1.00  0.00     0.011 C 
HETATM    4  C14 UNL     1       2.483   2.953  20.004  1.00  0.00     0.009 C 
HETATM    5  C15 UNL     1       3.660   3.205  19.096  1.00  0.00     0.026 C 
HETATM    6  C16 UNL     1       4.563   2.502  20.041  1.00  0.00     0.092 C 
HETATM    7  N2  UNL     1       5.708   3.138  20.582  1.00  0.00    -0.333 N 
HETATM    8  C17 UNL     1       7.065   3.102  20.181  1.00  0.00     0.229 C 
HETATM    9  O2  UNL     1       7.880   3.793  20.913  1.00  0.00    -0.272 OA
ENDROOT
BRANCH   1  10
HETATM   10  C10 UNL     1       5.623   5.338  21.724  1.00  0.00     0.241 C 
HETATM   11  N1  UNL     1       6.909   5.903  21.736  1.00  0.00    -0.341 N 
ATOM     12  H1  UNL     1       7.721   5.286  21.718  1.00  0.00     0.163 HD
HETATM   13  O1  UNL     1       4.595   6.088  21.690  1.00  0.00    -0.271 OA
BRANCH  11  14
HETATM   14  C9  UNL     1       7.116   7.357  21.774  1.00  0.00     0.120 C 
HETATM   15  C4  UNL     1       8.416   7.901  21.232  1.00  0.00     0.032 C 
HETATM   16  C2  UNL     1       7.705   9.135  20.817  1.00  0.00    -0.034 C 
HETATM   17  C5  UNL     1       8.458   7.114  19.910  1.00  0.00     0.015 C 
HETATM   18  C1  UNL     1       8.163   9.762  19.504  1.00  0.00     0.016 C 
HETATM   19  C3  UNL     1       7.383  10.283  21.696  1.00  0.00     0.016 C 
HETATM   20  C8  UNL     1       6.547   8.120  20.662  1.00  0.00     0.038 C 
HETATM   21  C6  UNL     1       7.071   7.462  19.417  1.00  0.00     0.022 C 
BRANCH  21  22
HETATM   22  C7  UNL     1       6.309   6.408  18.751  1.00  0.00     0.227 C 
HETATM   23  F1  UNL     1       7.132   5.647  17.904  1.00  0.00    -0.255 F 
ENDBRANCH  21  22
BRANCH  14  24
HETATM   24  C28 UNL     1       6.954   7.642  23.208  1.00  0.00     0.260 C 
HETATM   25  N3  UNL     1       8.040   7.432  24.103  1.00  0.00    -0.060 NA
HETATM   26  O3  UNL     1       5.937   8.051  23.806  1.00  0.00    -0.274 OA
ENDBRANCH  14  24
ENDBRANCH  11  14
ENDBRANCH   1  10
BRANCH   8  27
HETATM   27  C18 UNL     1       7.695   2.404  19.067  1.00  0.00     0.042 C 
HETATM   28  C19 UNL     1       9.072   3.074  18.769  1.00  0.00     0.024 C 
HETATM   29  C20 UNL     1       9.766   2.397  17.652  1.00  0.00    -0.013 C 
HETATM   30  C21 UNL     1      10.108   0.982  18.005  1.00  0.00     0.009 C 
HETATM   31  C25 UNL     1       8.974   2.367  16.364  1.00  0.00     0.009 C 
HETATM   32  C22 UNL     1       8.793   0.287  18.308  1.00  0.00    -0.013 C 
HETATM   33  C23 UNL     1       7.863   0.267  17.122  1.00  0.00     0.009 C 
HETATM   34  C27 UNL     1       8.106   0.999  19.427  1.00  0.00     0.024 C 
HETATM   35  C24 UNL     1       7.662   1.688  16.689  1.00  0.00    -0.013 C 
HETATM   36  C26 UNL     1       6.991   2.538  17.753  1.00  0.00     0.024 C 
ENDBRANCH   8  27
TORSDOF 5
ENDMDL
MODEL 2
REMARK VINA RESULT: -9.285380954      1.050      1.096
REMARK  5 active torsions:
REMARK  status: ('A' for Active; 'I' for Inactive)
REMARK    1  A    between atoms: C6_6  and  C7_7 
REMARK    2  A    between atoms: C9_10  and  N1_11 
REMARK    3  A    between atoms: C9_10  and  C28_34 
REMARK       I    between atoms: N1_11  and  C10_13 
REMARK    4  A    between atoms: C10_13  and  C11_15 
REMARK       I    between atoms: N2_21  and  C17_22 
REMARK    5  A    between atoms: C17_22  and  C18_24 
ROOT
HETATM    1  C11 UNL     1       5.295   3.141  21.996  1.00  0.00     0.180 C 
HETATM    2  C12 UNL     1       4.035   2.492  22.468  1.00  0.00     0.041 C 
HETATM    3  C13 UNL     1       3.866   1.278  21.639  1.00  0.00     0.011 C 
HETATM    4  C14 UNL     1       2.713   1.258  20.675  1.00  0.00     0.009 C 
HETATM    5  C15 UNL     1       3.658   1.757  19.613  1.00  0.00     0.026 C 
HETATM    6  C16 UNL     1       4.824   1.434  20.472  1.00  0.00     0.092 C 
HETATM    7  N2  UNL     1       5.777   2.421  20.826  1.00  0.00    -0.333 N 
HETATM    8  C17 UNL     1       7.033   2.743  20.258  1.00  0.00     0.229 C 
HETATM    9  O2  UNL     1       7.678   3.704  20.840  1.00  0.00    -0.272 OA
ENDROOT
BRANCH   1  10
HETATM   10  C10 UNL     1       5.161   4.596  21.847  1.00  0.00     0.241 C 
HETATM   11  N1  UNL     1       6.188   5.541  22.006  1.00  0.00    -0.341 N 
ATOM     12  H1  UNL     1       7.136   5.215  22.198  1.00  0.00     0.163 HD
HETATM   13  O1  UNL     1       3.982   4.976  21.551  1.00  0.00    -0.271 OA
BRANCH  11  14
HETATM   14  C9  UNL     1       5.936   6.984  21.903  1.00  0.00     0.120 C 
HETATM   15  C4  UNL     1       7.112   7.890  21.627  1.00  0.00     0.032 C 
HETATM   16  C2  UNL     1       6.207   8.810  20.895  1.00  0.00    -0.034 C 
HETATM   17  C5  UNL     1       7.743   7.096  20.469  1.00  0.00     0.015 C 
HETATM   18  C1  UNL     1       6.797   9.488  19.663  1.00  0.00     0.016 C 
HETATM   19  C3  UNL     1       5.333   9.834  21.512  1.00  0.00     0.016 C 
HETATM   20  C8  UNL     1       5.491   7.471  20.596  1.00  0.00     0.038 C 
HETATM   21  C6  UNL     1       6.504   6.958  19.613  1.00  0.00     0.022 C 
BRANCH  21  22
HETATM   22  C7  UNL     1       6.300   5.685  18.925  1.00  0.00     0.227 C 
HETATM   23  F1  UNL     1       7.187   5.547  17.844  1.00  0.00    -0.255 F 
ENDBRANCH  21  22
BRANCH  14  24
HETATM   24  C28 UNL     1       5.314   7.269  23.205  1.00  0.00     0.260 C 
HETATM   25  N3  UNL     1       6.121   7.375  24.373  1.00  0.00    -0.060 NA
HETATM   26  O3  UNL     1       4.102   7.426  23.467  1.00  0.00    -0.274 OA
ENDBRANCH  14  24
ENDBRANCH  11  14
ENDBRANCH   1  10
BRANCH   8  27
HETATM   27  C18 UNL     1       7.721   2.160  19.114  1.00  0.00     0.042 C 
HETATM   28  C19 UNL     1       8.997   3.005  18.810  1.00  0.00     0.024 C 
HETATM   29  C20 UNL     1       9.747   2.450  17.662  1.00  0.00    -0.013 C 
HETATM   30  C21 UNL     1      10.270   1.080  17.968  1.00  0.00     0.009 C 
HETATM   31  C25 UNL     1       8.938   2.356  16.388  1.00  0.00     0.009 C 
HETATM   32  C22 UNL     1       9.059   0.218  18.273  1.00  0.00    -0.013 C 
HETATM   33  C23 UNL     1       8.114   0.113  17.104  1.00  0.00     0.009 C 
HETATM   34  C27 UNL     1       8.312   0.808  19.424  1.00  0.00     0.024 C 
HETATM   35  C24 UNL     1       7.728   1.510  16.716  1.00  0.00    -0.013 C 
HETATM   36  C26 UNL     1       6.979   2.240  17.816  1.00  0.00     0.024 C 
ENDBRANCH   8  27
TORSDOF 5
ENDMDL
MODEL 3
REMARK VINA RESULT: -9.269614896      0.364      1.299
REMARK  5 active torsions:
REMARK  status: ('A' for Active; 'I' for Inactive)
REMARK    1  A    between atoms: C6_6  and  C7_7 
REMARK    2  A    between atoms: C9_10  and  N1_11 
REMARK    3  A    between atoms: C9_10  and  C28_34 
REMARK       I    between atoms: N1_11  and  C10_13 
REMARK    4  A    between atoms: C10_13  and  C11_15 
REMARK       I    between atoms: N2_21  and  C17_22 
REMARK    5  A    between atoms: C17_22  and  C18_24 
ROOT
HETATM    1  C11 UNL     1       5.291   3.804  21.813  1.00  0.00     0.180 C 
HETATM    2  C12 UNL     1       3.880   3.411  22.109  1.00  0.00     0.041 C 
HETATM    3  C13 UNL     1       3.587   2.253  21.235  1.00  0.00     0.011 C 
HETATM    4  C14 UNL     1       2.583   2.459  20.136  1.00  0.00     0.009 C 
HETATM    5  C15 UNL     1       3.734   2.766  19.211  1.00  0.00     0.026 C 
HETATM    6  C16 UNL     1       4.698   2.222  20.200  1.00  0.00     0.092 C 
HETATM    7  N2  UNL     1       5.770   3.005  20.694  1.00  0.00    -0.333 N 
HETATM    8  C17 UNL     1       7.126   3.078  20.294  1.00  0.00     0.229 C 
HETATM    9  O2  UNL     1       7.864   3.895  20.977  1.00  0.00    -0.272 OA
ENDROOT
BRANCH   1  10
HETATM   10  C10 UNL     1       5.459   5.257  21.686  1.00  0.00     0.241 C 
HETATM   11  N1  UNL     1       6.669   5.962  21.800  1.00  0.00    -0.341 N 
ATOM     12  H1  UNL     1       7.535   5.441  21.938  1.00  0.00     0.163 HD
HETATM   13  O1  UNL     1       4.374   5.882  21.457  1.00  0.00    -0.271 OA
BRANCH  11  14
HETATM   14  C9  UNL     1       6.722   7.428  21.725  1.00  0.00     0.120 C 
HETATM   15  C4  UNL     1       8.023   8.069  21.305  1.00  0.00     0.032 C 
HETATM   16  C2  UNL     1       7.256   9.178  20.687  1.00  0.00    -0.034 C 
HETATM   17  C5  UNL     1       8.326   7.187  20.080  1.00  0.00     0.015 C 
HETATM   18  C1  UNL     1       7.825   9.743  19.390  1.00  0.00     0.016 C 
HETATM   19  C3  UNL     1       6.701  10.350  21.403  1.00  0.00     0.016 C 
HETATM   20  C8  UNL     1       6.238   8.029  20.481  1.00  0.00     0.038 C 
HETATM   21  C6  UNL     1       6.992   7.336  19.383  1.00  0.00     0.022 C 
BRANCH  21  22
HETATM   22  C7  UNL     1       6.439   6.153  18.728  1.00  0.00     0.227 C 
HETATM   23  F1  UNL     1       7.374   5.577  17.850  1.00  0.00    -0.255 F 
ENDBRANCH  21  22
BRANCH  14  24
HETATM   24  C28 UNL     1       6.336   7.808  23.093  1.00  0.00     0.260 C 
HETATM   25  N3  UNL     1       7.291   7.746  24.146  1.00  0.00    -0.060 NA
HETATM   26  O3  UNL     1       5.219   8.186  23.505  1.00  0.00    -0.274 OA
ENDBRANCH  14  24
ENDBRANCH  11  14
ENDBRANCH   1  10
BRANCH   8  27
HETATM   27  C18 UNL     1       7.828   2.374  19.229  1.00  0.00     0.042 C 
HETATM   28  C19 UNL     1       6.946   2.400  17.943  1.00  0.00     0.024 C 
HETATM   29  C20 UNL     1       7.615   1.710  16.820  1.00  0.00    -0.013 C 
HETATM   30  C21 UNL     1       8.875   2.415  16.423  1.00  0.00     0.009 C 
HETATM   31  C25 UNL     1       7.971   0.268  17.110  1.00  0.00     0.009 C 
HETATM   32  C22 UNL     1       9.769   2.417  17.649  1.00  0.00    -0.013 C 
HETATM   33  C23 UNL     1      10.129   1.026  18.104  1.00  0.00     0.009 C 
HETATM   34  C27 UNL     1       9.064   3.106  18.772  1.00  0.00     0.024 C 
HETATM   35  C24 UNL     1       8.846   0.289  18.343  1.00  0.00    -0.013 C 
HETATM   36  C26 UNL     1       8.011   0.905  19.451  1.00  0.00     0.024 C 
ENDBRANCH   8  27
TORSDOF 5
ENDMDL
MODEL 4
REMARK VINA RESULT: -9.201118970      0.339      1.275
REMARK  5 active torsions:
REMARK  status: ('A' for Active; 'I' for Inactive)
REMARK    1  A    between atoms: C6_6  and  C7_7 
REMARK    2  A    between atoms: C9_10  and  N1_11 
REMARK    3  A    between atoms: C9_10  and  C28_34 
REMARK       I    between atoms: N1_11  and  C10_13 
REMARK    4  A    between atoms: C10_13  and  C11_15 
REMARK       I    between atoms: N2_21  and  C17_22 
REMARK    5  A    between atoms: C17_22  and  C18_24 
ROOT
HETATM    1  C11 UNL     1       5.320   3.787  21.719  1.00  0.00     0.180 C 
HETATM    2  C12 UNL     1       3.915   3.381  22.025  1.00  0.00     0.041 C 
HETATM    3  C13 UNL     1       3.607   2.257  21.113  1.00  0.00     0.011 C 
HETATM    4  C14 UNL     1       2.582   2.504  20.041  1.00  0.00     0.009 C 
HETATM    5  C15 UNL     1       3.715   2.848  19.108  1.00  0.00     0.026 C 
HETATM    6  C16 UNL     1       4.698   2.267  20.057  1.00  0.00     0.092 C 
HETATM    7  N2  UNL     1       5.779   3.032  20.561  1.00  0.00    -0.333 N 
HETATM    8  C17 UNL     1       7.127   3.122  20.139  1.00  0.00     0.229 C 
HETATM    9  O2  UNL     1       7.877   3.913  20.839  1.00  0.00    -0.272 OA
ENDROOT
BRANCH   1  10
HETATM   10  C10 UNL     1       5.485   5.244  21.644  1.00  0.00     0.241 C 
HETATM   11  N1  UNL     1       6.695   5.946  21.769  1.00  0.00    -0.341 N 
ATOM     12  H1  UNL     1       7.563   5.421  21.876  1.00  0.00     0.163 HD
HETATM   13  O1  UNL     1       4.396   5.876  21.453  1.00  0.00    -0.271 OA
BRANCH  11  14
HETATM   14  C9  UNL     1       6.745   7.414  21.749  1.00  0.00     0.120 C 
HETATM   15  C4  UNL     1       8.045   8.072  21.354  1.00  0.00     0.032 C 
HETATM   16  C2  UNL     1       7.276   9.202  20.777  1.00  0.00    -0.034 C 
HETATM   17  C5  UNL     1       8.350   7.237  20.097  1.00  0.00     0.015 C 
HETATM   18  C1  UNL     1       7.845   9.816  19.502  1.00  0.00     0.016 C 
HETATM   19  C3  UNL     1       6.719  10.345  21.536  1.00  0.00     0.016 C 
HETATM   20  C8  UNL     1       6.261   8.060  20.528  1.00  0.00     0.038 C 
HETATM   21  C6  UNL     1       7.016   7.410  19.405  1.00  0.00     0.022 C 
BRANCH  21  22
HETATM   22  C7  UNL     1       6.466   6.251  18.706  1.00  0.00     0.227 C 
HETATM   23  F1  UNL     1       7.456   5.596  17.953  1.00  0.00    -0.255 F 
ENDBRANCH  21  22
BRANCH  14  24
HETATM   24  C28 UNL     1       6.358   7.742  23.130  1.00  0.00     0.260 C 
HETATM   25  N3  UNL     1       7.317   7.659  24.178  1.00  0.00    -0.060 NA
HETATM   26  O3  UNL     1       5.237   8.089  23.558  1.00  0.00    -0.274 OA
ENDBRANCH  14  24
ENDBRANCH  11  14
ENDBRANCH   1  10
BRANCH   8  27
HETATM   27  C18 UNL     1       7.809   2.460  19.035  1.00  0.00     0.042 C 
HETATM   28  C19 UNL     1       8.074   0.974  19.427  1.00  0.00     0.024 C 
HETATM   29  C20 UNL     1       8.755   0.244  18.336  1.00  0.00    -0.013 C 
HETATM   30  C21 UNL     1       7.888   0.160  17.117  1.00  0.00     0.009 C 
HETATM   31  C25 UNL     1      10.073   0.857  17.917  1.00  0.00     0.009 C 
HETATM   32  C22 UNL     1       7.600   1.590  16.697  1.00  0.00    -0.013 C 
HETATM   33  C23 UNL     1       8.851   2.350  16.336  1.00  0.00     0.009 C 
HETATM   34  C27 UNL     1       6.928   2.307  17.822  1.00  0.00     0.024 C 
HETATM   35  C24 UNL     1       9.770   2.284  17.520  1.00  0.00    -0.013 C 
HETATM   36  C26 UNL     1       9.192   2.958  18.751  1.00  0.00     0.024 C 
ENDBRANCH   8  27
TORSDOF 5
ENDMDL
MODEL 5
REMARK VINA RESULT: -9.164617694      2.259      2.851
REMARK  5 active torsions:
REMARK  status: ('A' for Active; 'I' for Inactive)
REMARK    1  A    between atoms: C6_6  and  C7_7 
REMARK    2  A    between atoms: C9_10  and  N1_11 
REMARK    3  A    between atoms: C9_10  and  C28_34 
REMARK       I    between atoms: N1_11  and  C10_13 
REMARK    4  A    between atoms: C10_13  and  C11_15 
REMARK       I    between atoms: N2_21  and  C17_22 
REMARK    5  A    between atoms: C17_22  and  C18_24 
ROOT
HETATM    1  C11 UNL     1       5.977   5.617  21.215  1.00  0.00     0.180 C 
HETATM    2  C12 UNL     1       4.586   5.567  21.759  1.00  0.00     0.041 C 
HETATM    3  C13 UNL     1       4.009   4.289  21.286  1.00  0.00     0.011 C 
HETATM    4  C14 UNL     1       2.888   4.368  20.288  1.00  0.00     0.009 C 
HETATM    5  C15 UNL     1       3.918   4.216  19.197  1.00  0.00     0.026 C 
HETATM    6  C16 UNL     1       4.936   3.794  20.191  1.00  0.00     0.092 C 
HETATM    7  N2  UNL     1       6.168   4.481  20.325  1.00  0.00    -0.333 N 
HETATM    8  C17 UNL     1       7.445   4.210  19.779  1.00  0.00     0.229 C 
HETATM    9  O2  UNL     1       8.383   5.037  20.118  1.00  0.00    -0.272 OA
ENDROOT
BRANCH   1  10
HETATM   10  C10 UNL     1       6.321   6.934  20.663  1.00  0.00     0.241 C 
HETATM   11  N1  UNL     1       6.818   8.029  21.388  1.00  0.00    -0.341 N 
ATOM     12  H1  UNL     1       7.012   7.918  22.384  1.00  0.00     0.163 HD
HETATM   13  O1  UNL     1       6.126   7.032  19.409  1.00  0.00    -0.271 OA
BRANCH  11  14
HETATM   14  C9  UNL     1       7.068   9.330  20.753  1.00  0.00     0.120 C 
HETATM   15  C4  UNL     1       6.013   9.877  19.822  1.00  0.00     0.032 C 
HETATM   16  C2  UNL     1       6.399  11.252  20.221  1.00  0.00    -0.034 C 
HETATM   17  C5  UNL     1       4.779   9.636  20.710  1.00  0.00     0.015 C 
HETATM   18  C1  UNL     1       5.261  12.261  20.335  1.00  0.00     0.016 C 
HETATM   19  C3  UNL     1       7.539  12.023  19.674  1.00  0.00     0.016 C 
HETATM   20  C8  UNL     1       6.720  10.512  21.543  1.00  0.00     0.038 C 
HETATM   21  C6  UNL     1       5.294  10.304  21.965  1.00  0.00     0.022 C 
BRANCH  21  22
HETATM   22  C7  UNL     1       4.977   9.670  23.243  1.00  0.00     0.227 C 
HETATM   23  F1  UNL     1       6.069   9.738  24.126  1.00  0.00    -0.255 F 
ENDBRANCH  21  22
BRANCH  14  24
HETATM   24  C28 UNL     1       8.341   9.081  20.059  1.00  0.00     0.260 C 
HETATM   25  N3  UNL     1       9.557   9.030  20.796  1.00  0.00    -0.060 NA
HETATM   26  O3  UNL     1       8.536   8.912  18.836  1.00  0.00    -0.274 OA
ENDBRANCH  14  24
ENDBRANCH  11  14
ENDBRANCH   1  10
BRANCH   8  27
HETATM   27  C18 UNL     1       7.876   3.139  18.890  1.00  0.00     0.042 C 
HETATM   28  C19 UNL     1       9.388   3.337  18.560  1.00  0.00     0.024 C 
HETATM   29  C20 UNL     1       9.886   2.268  17.668  1.00  0.00    -0.013 C 
HETATM   30  C21 UNL     1       9.822   0.930  18.339  1.00  0.00     0.009 C 
HETATM   31  C25 UNL     1       9.135   2.160  16.360  1.00  0.00     0.009 C 
HETATM   32  C22 UNL     1       8.364   0.693  18.683  1.00  0.00    -0.013 C 
HETATM   33  C23 UNL     1       7.481   0.653  17.461  1.00  0.00     0.009 C 
HETATM   34  C27 UNL     1       7.881   1.793  19.569  1.00  0.00     0.024 C 
HETATM   35  C24 UNL     1       7.683   1.941  16.722  1.00  0.00    -0.013 C 
HETATM   36  C26 UNL     1       7.255   3.155  17.528  1.00  0.00     0.024 C 
ENDBRANCH   8  27
TORSDOF 5
ENDMDL
