MODEL 1
REMARK VINA RESULT: -10.007106545      0.000      0.000
REMARK  5 active torsions:
REMARK  status: ('A' for Active; 'I' for Inactive)
REMARK    1  A    between atoms: C2_2  and  C3_3 
REMARK       I    between atoms: C3_3  and  N1_5 
REMARK       I    between atoms: N2_8  and  C6_9 
REMARK       I    between atoms: C6_9  and  N5_26 
REMARK       I    between atoms: N3_10  and  C7_12 
REMARK       I    between atoms: C7_12  and  N4_14 
REMARK    2  A    between atoms: N4_14  and  C8_16 
REMARK    3  A    between atoms: N5_26  and  C18_28 
REMARK    4  A    between atoms: C18_28  and  C19_29 
REMARK    5  A    between atoms: C19_29  and  N6_30 
ROOT
HETATM    1  C3  UNL     1       7.305  11.681  19.771  1.00  0.00     0.219 C 
HETATM    2  O1  UNL     1       6.305  12.255  19.250  1.00  0.00    -0.273 OA
HETATM    3  N1  UNL     1       7.226  10.324  20.132  1.00  0.00    -0.349 N 
HETATM    4  C4  UNL     1       8.394   9.680  20.731  1.00  0.00     0.146 C 
HETATM    5  C5  UNL     1       8.268   8.216  20.344  1.00  0.00     0.161 C 
HETATM    6  N2  UNL     1       7.077   7.745  21.077  1.00  0.00    -0.215 N 
HETATM    7  C6  UNL     1       7.172   6.750  22.062  1.00  0.00     0.680 C 
HETATM    8  N3  UNL     1       7.317   5.537  21.757  1.00  0.00    -0.142 N 
ATOM      9  H3  UNL     1       7.375   4.909  22.559  1.00  0.00     0.189 HD
HETATM   10  C7  UNL     1       7.413   4.901  20.531  1.00  0.00     0.335 C 
HETATM   11  O2  UNL     1       7.018   5.497  19.498  1.00  0.00    -0.246 OA
HETATM   12  N4  UNL     1       7.944   3.590  20.378  1.00  0.00    -0.333 N 
ATOM     13  H4  UNL     1       8.264   3.119  21.224  1.00  0.00     0.165 HD
HETATM   14  N5  UNL     1       7.091   7.113  23.428  1.00  0.00    -0.224 N 
ATOM     15  H5  UNL     1       7.932   7.453  23.895  1.00  0.00     0.177 HD
HETATM   16  C25 UNL     1       5.839   8.365  20.722  1.00  0.00     0.161 C 
HETATM   17  C26 UNL     1       5.994   9.604  19.903  1.00  0.00     0.146 C 
ENDROOT
BRANCH  14  18
HETATM   18  C18 UNL     1       5.859   7.020  24.190  1.00  0.00     0.168 C 
BRANCH  18  19
HETATM   19  C19 UNL     1       5.558   8.296  24.930  1.00  0.00     0.292 C 
BRANCH  19  20
HETATM   20  N6  UNL     1       4.313   8.828  24.420  1.00  0.00     0.092 N 
HETATM   21  C20 UNL     1       3.603   9.526  25.437  1.00  0.00     0.272 C 
HETATM   22  C21 UNL     1       2.158   9.793  25.091  1.00  0.00     0.033 C 
HETATM   23  C22 UNL     1       1.408   8.605  24.593  1.00  0.00     0.040 C 
HETATM   24  C23 UNL     1       2.291   7.431  24.318  1.00  0.00     0.198 C 
HETATM   25  F1  UNL     1       2.495   6.706  25.469  1.00  0.00    -0.248 F 
HETATM   26  C24 UNL     1       3.562   7.876  23.667  1.00  0.00     0.309 C 
ENDBRANCH  19  20
ENDBRANCH  18  19
ENDBRANCH  14  18
BRANCH  12  27
HETATM   27  C8  UNL     1       8.071   2.873  19.152  1.00  0.00     0.035 C 
HETATM   28  C9  UNL     1       6.914   3.088  18.220  1.00  0.00     0.035 C 
HETATM   29  C10 UNL     1       7.007   2.177  17.014  1.00  0.00    -0.012 C 
HETATM   30  C11 UNL     1       7.001   0.751  17.468  1.00  0.00     0.009 C 
HETATM   31  C15 UNL     1       8.255   2.541  16.249  1.00  0.00     0.009 C 
HETATM   32  C12 UNL     1       8.271   0.525  18.268  1.00  0.00    -0.012 C 
HETATM   33  C13 UNL     1       9.511   0.887  17.509  1.00  0.00     0.009 C 
HETATM   34  C17 UNL     1       8.195   1.382  19.485  1.00  0.00     0.035 C 
HETATM   35  C14 UNL     1       9.437   2.362  17.178  1.00  0.00    -0.012 C 
HETATM   36  C16 UNL     1       9.334   3.234  18.390  1.00  0.00     0.035 C 
ENDBRANCH  12  27
BRANCH   1  37
HETATM   37  C2  UNL     1       8.562  12.472  19.993  1.00  0.00     0.098 C 
HETATM   38  C1  UNL     1       8.233  13.918  20.145  1.00  0.00     0.014 C 
ENDBRANCH   1  37
TORSDOF 5
ENDMDL
MODEL 2
REMARK VINA RESULT: -9.983493752      0.711      1.055
REMARK  5 active torsions:
REMARK  status: ('A' for Active; 'I' for Inactive)
REMARK    1  A    between atoms: C2_2  and  C3_3 
REMARK       I    between atoms: C3_3  and  N1_5 
REMARK       I    between atoms: N2_8  and  C6_9 
REMARK       I    between atoms: C6_9  and  N5_26 
REMARK       I    between atoms: N3_10  and  C7_12 
REMARK       I    between atoms: C7_12  and  N4_14 
REMARK    2  A    between atoms: N4_14  and  C8_16 
REMARK    3  A    between atoms: N5_26  and  C18_28 
REMARK    4  A    between atoms: C18_28  and  C19_29 
REMARK    5  A    between atoms: C19_29  and  N6_30 
ROOT
HETATM    1  C3  UNL     1       7.304  11.680  19.777  1.00  0.00     0.219 C 
HETATM    2  O1  UNL     1       6.301  12.252  19.260  1.00  0.00    -0.273 OA
HETATM    3  N1  UNL     1       7.230  10.324  20.139  1.00  0.00    -0.349 N 
HETATM    4  C4  UNL     1       8.402   9.683  20.733  1.00  0.00     0.146 C 
HETATM    5  C5  UNL     1       8.279   8.218  20.347  1.00  0.00     0.161 C 
HETATM    6  N2  UNL     1       7.092   7.744  21.085  1.00  0.00    -0.215 N 
HETATM    7  C6  UNL     1       7.193   6.750  22.070  1.00  0.00     0.680 C 
HETATM    8  N3  UNL     1       7.340   5.537  21.765  1.00  0.00    -0.142 N 
ATOM      9  H3  UNL     1       7.403   4.909  22.566  1.00  0.00     0.189 HD
HETATM   10  C7  UNL     1       7.433   4.901  20.538  1.00  0.00     0.335 C 
HETATM   11  O2  UNL     1       7.032   5.496  19.506  1.00  0.00    -0.246 OA
HETATM   12  N4  UNL     1       7.967   3.592  20.384  1.00  0.00    -0.333 N 
ATOM     13  H4  UNL     1       8.291   3.122  21.228  1.00  0.00     0.165 HD
HETATM   14  N5  UNL     1       7.117   7.113  23.436  1.00  0.00    -0.224 N 
ATOM     15  H5  UNL     1       7.959   7.455  23.899  1.00  0.00     0.177 HD
HETATM   16  C25 UNL     1       5.850   8.362  20.735  1.00  0.00     0.161 C 
HETATM   17  C26 UNL     1       5.999   9.600  19.915  1.00  0.00     0.146 C 
ENDROOT
BRANCH  14  18
HETATM   18  C18 UNL     1       5.888   7.017  24.204  1.00  0.00     0.168 C 
BRANCH  18  19
HETATM   19  C19 UNL     1       5.399   8.368  24.652  1.00  0.00     0.292 C 
BRANCH  19  20
HETATM   20  N6  UNL     1       4.102   8.194  25.269  1.00  0.00     0.092 N 
HETATM   21  C20 UNL     1       3.376   7.142  24.640  1.00  0.00     0.272 C 
HETATM   22  C21 UNL     1       1.904   7.138  24.977  1.00  0.00     0.033 C 
HETATM   23  C22 UNL     1       1.228   8.458  24.827  1.00  0.00     0.040 C 
HETATM   24  C23 UNL     1       2.186   9.580  24.590  1.00  0.00     0.198 C 
HETATM   25  F1  UNL     1       2.483   9.682  23.251  1.00  0.00    -0.248 F 
HETATM   26  C24 UNL     1       3.398   9.422  25.453  1.00  0.00     0.309 C 
ENDBRANCH  19  20
ENDBRANCH  18  19
ENDBRANCH  14  18
BRANCH  12  27
HETATM   27  C8  UNL     1       8.090   2.875  19.156  1.00  0.00     0.035 C 
HETATM   28  C9  UNL     1       6.933   3.094  18.227  1.00  0.00     0.035 C 
HETATM   29  C10 UNL     1       7.022   2.182  17.019  1.00  0.00    -0.012 C 
HETATM   30  C11 UNL     1       7.012   0.756  17.474  1.00  0.00     0.009 C 
HETATM   31  C15 UNL     1       8.270   2.542  16.254  1.00  0.00     0.009 C 
HETATM   32  C12 UNL     1       8.282   0.526  18.272  1.00  0.00    -0.012 C 
HETATM   33  C13 UNL     1       9.522   0.885  17.512  1.00  0.00     0.009 C 
HETATM   34  C17 UNL     1       8.210   1.383  19.490  1.00  0.00     0.035 C 
HETATM   35  C14 UNL     1       9.452   2.360  17.181  1.00  0.00    -0.012 C 
HETATM   36  C16 UNL     1       9.353   3.232  18.394  1.00  0.00     0.035 C 
ENDBRANCH  12  27
BRANCH   1  37
HETATM   37  C2  UNL     1       8.560  12.475  19.993  1.00  0.00     0.098 C 
HETATM   38  C1  UNL     1       8.227  13.919  20.152  1.00  0.00     0.014 C 
ENDBRANCH   1  37
TORSDOF 5
ENDMDL
MODEL 3
REMARK VINA RESULT: -9.835720137      0.269      1.252
REMARK  5 active torsions:
REMARK  status: ('A' for Active; 'I' for Inactive)
REMARK    1  A    between atoms: C2_2  and  C3_3 
REMARK       I    between atoms: C3_3  and  N1_5 
REMARK       I    between atoms: N2_8  and  C6_9 
REMARK       I    between atoms: C6_9  and  N5_26 
REMARK       I    between atoms: N3_10  and  C7_12 
REMARK       I    between atoms: C7_12  and  N4_14 
REMARK    2  A    between atoms: N4_14  and  C8_16 
REMARK    3  A    between atoms: N5_26  and  C18_28 
REMARK    4  A    between atoms: C18_28  and  C19_29 
REMARK    5  A    between atoms: C19_29  and  N6_30 
ROOT
HETATM    1  C3  UNL     1       7.259  11.795  19.757  1.00  0.00     0.219 C 
HETATM    2  O1  UNL     1       6.254  12.368  19.242  1.00  0.00    -0.273 OA
HETATM    3  N1  UNL     1       7.168  10.453  20.166  1.00  0.00    -0.349 N 
HETATM    4  C4  UNL     1       8.341   9.810  20.756  1.00  0.00     0.146 C 
HETATM    5  C5  UNL     1       8.183   8.336  20.422  1.00  0.00     0.161 C 
HETATM    6  N2  UNL     1       7.004   7.910  21.202  1.00  0.00    -0.215 N 
HETATM    7  C6  UNL     1       7.109   6.948  22.217  1.00  0.00     0.680 C 
HETATM    8  N3  UNL     1       7.227   5.722  21.951  1.00  0.00    -0.142 N 
ATOM      9  H3  UNL     1       7.296   5.121  22.771  1.00  0.00     0.189 HD
HETATM   10  C7  UNL     1       7.281   5.044  20.745  1.00  0.00     0.335 C 
HETATM   11  O2  UNL     1       6.868   5.611  19.703  1.00  0.00    -0.246 OA
HETATM   12  N4  UNL     1       7.787   3.720  20.624  1.00  0.00    -0.333 N 
ATOM     13  H4  UNL     1       8.122   3.273  21.477  1.00  0.00     0.165 HD
HETATM   14  N5  UNL     1       7.070   7.358  23.572  1.00  0.00    -0.224 N 
ATOM     15  H5  UNL     1       7.928   7.699  24.005  1.00  0.00     0.177 HD
HETATM   16  C25 UNL     1       5.766   8.538  20.858  1.00  0.00     0.161 C 
HETATM   17  C26 UNL     1       5.919   9.745  19.993  1.00  0.00     0.146 C 
ENDROOT
BRANCH  14  18
HETATM   18  C18 UNL     1       5.857   7.311  24.369  1.00  0.00     0.168 C 
BRANCH  18  19
HETATM   19  C19 UNL     1       5.502   8.661  24.931  1.00  0.00     0.292 C 
BRANCH  19  20
HETATM   20  N6  UNL     1       4.213   9.045  24.399  1.00  0.00     0.092 N 
HETATM   21  C20 UNL     1       3.453   9.759  25.368  1.00  0.00     0.272 C 
HETATM   22  C21 UNL     1       1.988   9.875  25.023  1.00  0.00     0.033 C 
HETATM   23  C22 UNL     1       1.338   8.593  24.631  1.00  0.00     0.040 C 
HETATM   24  C23 UNL     1       2.315   7.479  24.437  1.00  0.00     0.198 C 
HETATM   25  F1  UNL     1       2.590   6.868  25.637  1.00  0.00    -0.248 F 
HETATM   26  C24 UNL     1       3.539   7.976  23.734  1.00  0.00     0.309 C 
ENDBRANCH  19  20
ENDBRANCH  18  19
ENDBRANCH  14  18
BRANCH  12  27
HETATM   27  C8  UNL     1       7.870   2.960  19.419  1.00  0.00     0.035 C 
HETATM   28  C9  UNL     1       7.866   1.479  19.655  1.00  0.00     0.035 C 
HETATM   29  C10 UNL     1       8.130   0.720  18.371  1.00  0.00    -0.012 C 
HETATM   30  C11 UNL     1       9.467   1.117  17.827  1.00  0.00     0.009 C 
HETATM   31  C15 UNL     1       7.001   1.012  17.415  1.00  0.00     0.009 C 
HETATM   32  C12 UNL     1       9.382   2.583  17.442  1.00  0.00    -0.012 C 
HETATM   33  C13 UNL     1       8.259   2.873  16.494  1.00  0.00     0.009 C 
HETATM   34  C17 UNL     1       9.159   3.364  18.693  1.00  0.00     0.035 C 
HETATM   35  C14 UNL     1       6.964   2.508  17.184  1.00  0.00    -0.012 C 
HETATM   36  C16 UNL     1       6.738   3.265  18.455  1.00  0.00     0.035 C 
ENDBRANCH  12  27
BRANCH   1  37
HETATM   37  C2  UNL     1       8.533  12.573  19.918  1.00  0.00     0.098 C 
HETATM   38  C1  UNL     1       8.224  14.003  20.199  1.00  0.00     0.014 C 
ENDBRANCH   1  37
TORSDOF 5
ENDMDL
MODEL 4
REMARK VINA RESULT: -9.759711857      0.770      1.636
REMARK  5 active torsions:
REMARK  status: ('A' for Active; 'I' for Inactive)
REMARK    1  A    between atoms: C2_2  and  C3_3 
REMARK       I    between atoms: C3_3  and  N1_5 
REMARK       I    between atoms: N2_8  and  C6_9 
REMARK       I    between atoms: C6_9  and  N5_26 
REMARK       I    between atoms: N3_10  and  C7_12 
REMARK       I    between atoms: C7_12  and  N4_14 
REMARK    2  A    between atoms: N4_14  and  C8_16 
REMARK    3  A    between atoms: N5_26  and  C18_28 
REMARK    4  A    between atoms: C18_28  and  C19_29 
REMARK    5  A    between atoms: C19_29  and  N6_30 
ROOT
HETATM    1  C3  UNL     1       7.221  11.808  19.795  1.00  0.00     0.219 C 
HETATM    2  O1  UNL     1       6.180  12.367  19.342  1.00  0.00    -0.273 OA
HETATM    3  N1  UNL     1       7.172  10.465  20.211  1.00  0.00    -0.349 N 
HETATM    4  C4  UNL     1       8.388   9.839  20.727  1.00  0.00     0.146 C 
HETATM    5  C5  UNL     1       8.227   8.362  20.407  1.00  0.00     0.161 C 
HETATM    6  N2  UNL     1       7.105   7.923  21.259  1.00  0.00    -0.215 N 
HETATM    7  C6  UNL     1       7.285   6.965  22.267  1.00  0.00     0.680 C 
HETATM    8  N3  UNL     1       7.402   5.740  21.995  1.00  0.00    -0.142 N 
ATOM      9  H3  UNL     1       7.529   5.142  22.811  1.00  0.00     0.189 HD
HETATM   10  C7  UNL     1       7.389   5.060  20.789  1.00  0.00     0.335 C 
HETATM   11  O2  UNL     1       6.905   5.619  19.774  1.00  0.00    -0.246 OA
HETATM   12  N4  UNL     1       7.903   3.742  20.639  1.00  0.00    -0.333 N 
ATOM     13  H4  UNL     1       8.296   3.301  21.470  1.00  0.00     0.165 HD
HETATM   14  N5  UNL     1       7.325   7.377  23.621  1.00  0.00    -0.224 N 
ATOM     15  H5  UNL     1       8.204   7.730  23.999  1.00  0.00     0.177 HD
HETATM   16  C25 UNL     1       5.841   8.535  20.991  1.00  0.00     0.161 C 
HETATM   17  C26 UNL     1       5.924   9.742  20.117  1.00  0.00     0.146 C 
ENDROOT
BRANCH  14  18
HETATM   18  C18 UNL     1       6.165   7.316  24.491  1.00  0.00     0.168 C 
BRANCH  18  19
HETATM   19  C19 UNL     1       5.469   8.647  24.593  1.00  0.00     0.292 C 
BRANCH  19  20
HETATM   20  N6  UNL     1       4.169   8.430  25.191  1.00  0.00     0.092 N 
HETATM   21  C20 UNL     1       3.536   7.283  24.632  1.00  0.00     0.272 C 
HETATM   22  C21 UNL     1       2.059   7.201  24.933  1.00  0.00     0.033 C 
HETATM   23  C22 UNL     1       1.298   8.453  24.662  1.00  0.00     0.040 C 
HETATM   24  C23 UNL     1       2.183   9.619  24.358  1.00  0.00     0.198 C 
HETATM   25  F1  UNL     1       2.510   9.637  23.022  1.00  0.00    -0.248 F 
HETATM   26  C24 UNL     1       3.377   9.616  25.259  1.00  0.00     0.309 C 
ENDBRANCH  19  20
ENDBRANCH  18  19
ENDBRANCH  14  18
BRANCH  12  27
HETATM   27  C8  UNL     1       7.921   2.981  19.433  1.00  0.00     0.035 C 
HETATM   28  C9  UNL     1       7.896   1.499  19.670  1.00  0.00     0.035 C 
HETATM   29  C10 UNL     1       8.091   0.735  18.376  1.00  0.00    -0.012 C 
HETATM   30  C11 UNL     1       9.412   1.105  17.777  1.00  0.00     0.009 C 
HETATM   31  C15 UNL     1       6.930   1.051  17.467  1.00  0.00     0.009 C 
HETATM   32  C12 UNL     1       9.341   2.572  17.395  1.00  0.00    -0.012 C 
HETATM   33  C13 UNL     1       8.187   2.886  16.494  1.00  0.00     0.009 C 
HETATM   34  C17 UNL     1       9.186   3.358  18.653  1.00  0.00     0.035 C 
HETATM   35  C14 UNL     1       6.914   2.547  17.237  1.00  0.00    -0.012 C 
HETATM   36  C16 UNL     1       6.756   3.309  18.516  1.00  0.00     0.035 C 
ENDBRANCH  12  27
BRANCH   1  37
HETATM   37  C2  UNL     1       8.493  12.601  19.876  1.00  0.00     0.098 C 
HETATM   38  C1  UNL     1       8.180  14.053  20.004  1.00  0.00     0.014 C 
ENDBRANCH   1  37
TORSDOF 5
ENDMDL
MODEL 5
REMARK VINA RESULT: -9.727548376      1.191      1.417
REMARK  5 active torsions:
REMARK  status: ('A' for Active; 'I' for Inactive)
REMARK    1  A    between atoms: C2_2  and  C3_3 
REMARK       I    between atoms: C3_3  and  N1_5 
REMARK       I    between atoms: N2_8  and  C6_9 
REMARK       I    between atoms: C6_9  and  N5_26 
REMARK       I    between atoms: N3_10  and  C7_12 
REMARK       I    between atoms: C7_12  and  N4_14 
REMARK    2  A    between atoms: N4_14  and  C8_16 
REMARK    3  A    between atoms: N5_26  and  C18_28 
REMARK    4  A    between atoms: C18_28  and  C19_29 
REMARK    5  A    between atoms: C19_29  and  N6_30 
ROOT
HETATM    1  C3  UNL     1       7.089  11.258  20.134  1.00  0.00     0.219 C 
HETATM    2  O1  UNL     1       6.317  11.902  19.366  1.00  0.00    -0.273 OA
HETATM    3  N1  UNL     1       6.884   9.883  20.344  1.00  0.00    -0.349 N 
HETATM    4  C4  UNL     1       7.789   9.158  21.233  1.00  0.00     0.146 C 
HETATM    5  C5  UNL     1       7.781   7.730  20.714  1.00  0.00     0.161 C 
HETATM    6  N2  UNL     1       6.412   7.250  20.986  1.00  0.00    -0.215 N 
HETATM    7  C6  UNL     1       6.173   6.186  21.868  1.00  0.00     0.680 C 
HETATM    8  N3  UNL     1       6.397   4.992  21.532  1.00  0.00    -0.142 N 
ATOM      9  H3  UNL     1       6.186   4.308  22.258  1.00  0.00     0.189 HD
HETATM   10  C7  UNL     1       6.878   4.442  20.356  1.00  0.00     0.335 C 
HETATM   11  O2  UNL     1       6.844   5.123  19.301  1.00  0.00    -0.246 OA
HETATM   12  N4  UNL     1       7.416   3.127  20.281  1.00  0.00    -0.333 N 
ATOM     13  H4  UNL     1       7.441   2.587  21.145  1.00  0.00     0.165 HD
HETATM   14  N5  UNL     1       5.659   6.453  23.159  1.00  0.00    -0.224 N 
ATOM     15  H5  UNL     1       6.307   6.730  23.897  1.00  0.00     0.177 HD
HETATM   16  C25 UNL     1       5.361   7.937  20.301  1.00  0.00     0.161 C 
HETATM   17  C26 UNL     1       5.785   9.224  19.675  1.00  0.00     0.146 C 
ENDROOT
BRANCH  14  18
HETATM   18  C18 UNL     1       4.245   6.349  23.476  1.00  0.00     0.168 C 
BRANCH  18  19
HETATM   19  C19 UNL     1       3.829   7.349  24.521  1.00  0.00     0.292 C 
BRANCH  19  20
HETATM   20  N6  UNL     1       2.486   7.790  24.211  1.00  0.00     0.092 N 
HETATM   21  C20 UNL     1       2.486   8.675  23.095  1.00  0.00     0.272 C 
HETATM   22  C21 UNL     1       1.199   9.449  22.939  1.00  0.00     0.033 C 
HETATM   23  C22 UNL     1       0.715  10.111  24.183  1.00  0.00     0.040 C 
HETATM   24  C23 UNL     1       1.477   9.693  25.399  1.00  0.00     0.198 C 
HETATM   25  F1  UNL     1       2.611  10.459  25.541  1.00  0.00    -0.248 F 
HETATM   26  C24 UNL     1       1.758   8.224  25.360  1.00  0.00     0.309 C 
ENDBRANCH  19  20
ENDBRANCH  18  19
ENDBRANCH  14  18
BRANCH  12  27
HETATM   27  C8  UNL     1       7.926   2.495  19.108  1.00  0.00     0.035 C 
HETATM   28  C9  UNL     1       6.983   2.566  17.943  1.00  0.00     0.035 C 
HETATM   29  C10 UNL     1       7.487   1.736  16.780  1.00  0.00    -0.012 C 
HETATM   30  C11 UNL     1       7.614   0.308  17.210  1.00  0.00     0.009 C 
HETATM   31  C15 UNL     1       8.796   2.326  16.318  1.00  0.00     0.009 C 
HETATM   32  C12 UNL     1       8.697   0.250  18.272  1.00  0.00    -0.012 C 
HETATM   33  C13 UNL     1       9.997   0.837  17.813  1.00  0.00     0.009 C 
HETATM   34  C17 UNL     1       8.216   1.029  19.449  1.00  0.00     0.035 C 
HETATM   35  C14 UNL     1       9.757   2.294  17.486  1.00  0.00    -0.012 C 
HETATM   36  C16 UNL     1       9.248   3.084  18.652  1.00  0.00     0.035 C 
ENDBRANCH  12  27
BRANCH   1  37
HETATM   37  C2  UNL     1       8.214  11.987  20.809  1.00  0.00     0.098 C 
HETATM   38  C1  UNL     1       8.588  13.193  20.016  1.00  0.00     0.014 C 
ENDBRANCH   1  37
TORSDOF 5
ENDMDL
