MODEL 1
REMARK VINA RESULT: -10.215642097      0.000      0.000
REMARK  7 active torsions:
REMARK  status: ('A' for Active; 'I' for Inactive)
REMARK    1  A    between atoms: C3_3  and  N1_4 
REMARK    2  A    between atoms: N1_4  and  C4_6 
REMARK    3  A    between atoms: C4_6  and  O1_7 
REMARK    4  A    between atoms: C4_6  and  C5_9 
REMARK    5  A    between atoms: C5_9  and  N2_10 
REMARK       I    between atoms: N2_10  and  C6_12 
REMARK    6  A    between atoms: C6_12  and  C7_14 
REMARK       I    between atoms: N3_19  and  C12_20 
REMARK    7  A    between atoms: C12_20  and  C13_22 
ROOT
HETATM    1  C1  UNL     1      11.225   8.451  25.357  1.00  0.00     0.014 C 
HETATM    2  C2  UNL     1      10.112   8.641  24.955  1.00  0.00    -0.098 C 
HETATM    3  C3  UNL     1       8.716   8.814  24.475  1.00  0.00     0.215 C 
ENDROOT
BRANCH   3   4
HETATM    4  N1  UNL     1       8.630   8.008  23.260  1.00  0.00    -0.362 N 
ATOM      5  H1  UNL     1       8.597   6.996  23.380  1.00  0.00     0.162 HD
BRANCH   4   6
HETATM    6  C4  UNL     1       8.591   8.483  21.964  1.00  0.00     0.141 C 
BRANCH   6   7
HETATM    7  O1  UNL     1       9.744   8.793  21.425  1.00  0.00    -0.348 OA
ATOM      8  H1  UNL     1       9.957   8.356  20.609  1.00  0.00     0.219 HD
ENDBRANCH   6   7
BRANCH   6   9
HETATM    9  C5  UNL     1       7.411   8.702  21.102  1.00  0.00     0.100 C 
HETATM   10  C24 UNL     1       8.031   9.364  19.847  1.00  0.00     0.070 C 
HETATM   11  C25 UNL     1       6.997  10.013  18.979  1.00  0.00     0.275 C 
HETATM   12  N4  UNL     1       6.137  10.907  19.729  1.00  0.00     0.084 N 
HETATM   13  C26 UNL     1       5.990  12.130  19.031  1.00  0.00     0.309 C 
HETATM   14  C27 UNL     1       6.491  11.022  21.104  1.00  0.00     0.275 C 
HETATM   15  C28 UNL     1       6.505   9.715  21.800  1.00  0.00     0.070 C 
BRANCH   9  16
HETATM   16  N2  UNL     1       6.739   7.516  20.810  1.00  0.00    -0.342 N 
HETATM   17  C6  UNL     1       6.066   6.501  21.515  1.00  0.00     0.241 C 
HETATM   18  O2  UNL     1       5.976   6.551  22.746  1.00  0.00    -0.271 OA
ATOM     19  H2  UNL     1       6.733   7.334  19.806  1.00  0.00     0.163 HD
BRANCH  17  20
HETATM   20  C7  UNL     1       5.511   5.432  20.662  1.00  0.00     0.182 C 
HETATM   21  C8  UNL     1       4.638   4.558  21.487  1.00  0.00     0.065 C 
HETATM   22  C9  UNL     1       5.251   3.451  20.595  1.00  0.00     0.031 C 
HETATM   23  C10 UNL     1       4.149   3.067  19.617  1.00  0.00     0.038 C 
HETATM   24  C11 UNL     1       5.653   2.358  21.567  1.00  0.00     0.038 C 
HETATM   25  N3  UNL     1       6.231   4.357  20.102  1.00  0.00    -0.329 N 
HETATM   26  C12 UNL     1       7.437   4.221  19.311  1.00  0.00     0.233 C 
HETATM   27  O3  UNL     1       8.029   5.367  19.186  1.00  0.00    -0.272 OA
BRANCH  26  28
HETATM   28  C13 UNL     1       8.057   3.092  18.661  1.00  0.00     0.078 C 
HETATM   29  C14 UNL     1       7.919   1.811  19.467  1.00  0.00     0.027 C 
HETATM   30  C15 UNL     1       8.376   0.614  18.696  1.00  0.00    -0.012 C 
HETATM   31  C16 UNL     1       9.860   0.789  18.461  1.00  0.00     0.009 C 
HETATM   32  C20 UNL     1       7.665   0.438  17.398  1.00  0.00     0.012 C 
HETATM   33  C17 UNL     1      10.078   2.019  17.647  1.00  0.00    -0.012 C 
HETATM   34  C18 UNL     1       9.368   1.831  16.322  1.00  0.00     0.012 C 
HETATM   35  C23 UNL     1       9.508   3.250  18.324  1.00  0.00     0.027 C 
HETATM   36  C19 UNL     1       7.906   1.668  16.592  1.00  0.00     0.027 C 
HETATM   37  C21 UNL     1       7.339   2.866  17.327  1.00  0.00     0.119 C 
HETATM   38  C22 UNL     1       7.403   4.050  16.409  1.00  0.00     0.053 C 
HETATM   39  F1  UNL     1       6.029   2.560  17.621  1.00  0.00    -0.242 F 
ENDBRANCH  26  28
ENDBRANCH  17  20
ENDBRANCH   9  16
ENDBRANCH   6   9
ENDBRANCH   4   6
ENDBRANCH   3   4
TORSDOF 7
ENDMDL
MODEL 2
REMARK VINA RESULT: -9.802575455      1.774      2.873
REMARK  7 active torsions:
REMARK  status: ('A' for Active; 'I' for Inactive)
REMARK    1  A    between atoms: C3_3  and  N1_4 
REMARK    2  A    between atoms: N1_4  and  C4_6 
REMARK    3  A    between atoms: C4_6  and  O1_7 
REMARK    4  A    between atoms: C4_6  and  C5_9 
REMARK    5  A    between atoms: C5_9  and  N2_10 
REMARK       I    between atoms: N2_10  and  C6_12 
REMARK    6  A    between atoms: C6_12  and  C7_14 
REMARK       I    between atoms: N3_19  and  C12_20 
REMARK    7  A    between atoms: C12_20  and  C13_22 
ROOT
HETATM    1  C1  UNL     1      10.112   7.717  26.254  1.00  0.00     0.014 C 
HETATM    2  C2  UNL     1      10.478   8.258  25.248  1.00  0.00    -0.098 C 
HETATM    3  C3  UNL     1      10.920   8.986  24.030  1.00  0.00     0.215 C 
ENDROOT
BRANCH   3   4
HETATM    4  N1  UNL     1       9.690   9.497  23.428  1.00  0.00    -0.362 N 
ATOM      5  H1  UNL     1       9.318  10.366  23.810  1.00  0.00     0.162 HD
BRANCH   4   6
HETATM    6  C4  UNL     1       8.985   8.917  22.393  1.00  0.00     0.141 C 
BRANCH   6   7
HETATM    7  O1  UNL     1       9.667   8.642  21.309  1.00  0.00    -0.348 OA
ATOM      8  H1  UNL     1      10.468   9.138  21.180  1.00  0.00     0.219 HD
ENDBRANCH   6   7
BRANCH   6   9
HETATM    9  C5  UNL     1       7.549   8.574  22.339  1.00  0.00     0.100 C 
HETATM   10  C24 UNL     1       6.868   9.944  22.573  1.00  0.00     0.070 C 
HETATM   11  C25 UNL     1       5.419   9.804  22.926  1.00  0.00     0.275 C 
HETATM   12  N4  UNL     1       5.209   8.870  24.015  1.00  0.00     0.084 N 
HETATM   13  C26 UNL     1       4.314   9.427  24.960  1.00  0.00     0.309 C 
HETATM   14  C27 UNL     1       6.415   8.335  24.550  1.00  0.00     0.275 C 
HETATM   15  C28 UNL     1       7.243   7.660  23.524  1.00  0.00     0.070 C 
BRANCH   9  16
HETATM   16  N2  UNL     1       7.186   7.992  21.125  1.00  0.00    -0.342 N 
HETATM   17  C6  UNL     1       6.090   7.286  20.596  1.00  0.00     0.241 C 
HETATM   18  O2  UNL     1       5.106   7.042  21.302  1.00  0.00    -0.271 OA
ATOM     19  H2  UNL     1       7.919   8.112  20.426  1.00  0.00     0.163 HD
BRANCH  17  20
HETATM   20  C7  UNL     1       6.243   6.894  19.181  1.00  0.00     0.182 C 
HETATM   21  C8  UNL     1       4.907   6.892  18.532  1.00  0.00     0.065 C 
HETATM   22  C9  UNL     1       5.491   5.657  17.803  1.00  0.00     0.031 C 
HETATM   23  C10 UNL     1       5.807   6.136  16.393  1.00  0.00     0.038 C 
HETATM   24  C11 UNL     1       4.398   4.610  17.892  1.00  0.00     0.038 C 
HETATM   25  N3  UNL     1       6.590   5.614  18.706  1.00  0.00    -0.329 N 
HETATM   26  C12 UNL     1       7.648   4.662  18.977  1.00  0.00     0.233 C 
HETATM   27  O3  UNL     1       8.379   5.067  19.967  1.00  0.00    -0.272 OA
BRANCH  26  28
HETATM   28  C13 UNL     1       8.017   3.411  18.361  1.00  0.00     0.078 C 
HETATM   29  C14 UNL     1       9.522   3.251  18.228  1.00  0.00     0.027 C 
HETATM   30  C15 UNL     1       9.901   1.873  17.784  1.00  0.00    -0.012 C 
HETATM   31  C16 UNL     1       9.349   1.701  16.387  1.00  0.00     0.009 C 
HETATM   32  C20 UNL     1       9.385   0.800  18.680  1.00  0.00     0.012 C 
HETATM   33  C17 UNL     1       7.863   1.817  16.436  1.00  0.00    -0.012 C 
HETATM   34  C18 UNL     1       7.340   0.714  17.334  1.00  0.00     0.012 C 
HETATM   35  C23 UNL     1       7.422   3.149  17.010  1.00  0.00     0.027 C 
HETATM   36  C19 UNL     1       7.900   0.921  18.706  1.00  0.00     0.027 C 
HETATM   37  C21 UNL     1       7.519   2.278  19.263  1.00  0.00     0.119 C 
HETATM   38  C22 UNL     1       6.035   2.295  19.477  1.00  0.00     0.053 C 
HETATM   39  F1  UNL     1       8.176   2.403  20.467  1.00  0.00    -0.242 F 
ENDBRANCH  26  28
ENDBRANCH  17  20
ENDBRANCH   9  16
ENDBRANCH   6   9
ENDBRANCH   4   6
ENDBRANCH   3   4
TORSDOF 7
ENDMDL
MODEL 3
REMARK VINA RESULT: -9.774006511      1.916      2.532
REMARK  7 active torsions:
REMARK  status: ('A' for Active; 'I' for Inactive)
REMARK    1  A    between atoms: C3_3  and  N1_4 
REMARK    2  A    between atoms: N1_4  and  C4_6 
REMARK    3  A    between atoms: C4_6  and  O1_7 
REMARK    4  A    between atoms: C4_6  and  C5_9 
REMARK    5  A    between atoms: C5_9  and  N2_10 
REMARK       I    between atoms: N2_10  and  C6_12 
REMARK    6  A    between atoms: C6_12  and  C7_14 
REMARK       I    between atoms: N3_19  and  C12_20 
REMARK    7  A    between atoms: C12_20  and  C13_22 
ROOT
HETATM    1  C1  UNL     1       9.167   8.304  25.802  1.00  0.00     0.014 C 
HETATM    2  C2  UNL     1       9.358   8.502  24.636  1.00  0.00    -0.098 C 
HETATM    3  C3  UNL     1       9.562   8.805  23.194  1.00  0.00     0.215 C 
ENDROOT
BRANCH   3   4
HETATM    4  N1  UNL     1       8.251   8.616  22.578  1.00  0.00    -0.362 N 
ATOM      5  H1  UNL     1       7.816   9.438  22.160  1.00  0.00     0.162 HD
BRANCH   4   6
HETATM    6  C4  UNL     1       7.544   7.432  22.507  1.00  0.00     0.141 C 
BRANCH   6   7
HETATM    7  O1  UNL     1       8.213   6.382  22.098  1.00  0.00    -0.348 OA
ATOM      8  H1  UNL     1       9.151   6.398  22.247  1.00  0.00     0.219 HD
ENDBRANCH   6   7
BRANCH   6   9
HETATM    9  C5  UNL     1       6.121   7.191  22.822  1.00  0.00     0.100 C 
HETATM   10  C24 UNL     1       5.476   8.568  22.529  1.00  0.00     0.070 C 
HETATM   11  C25 UNL     1       4.103   8.687  23.117  1.00  0.00     0.275 C 
HETATM   12  N4  UNL     1       4.078   8.332  24.523  1.00  0.00     0.084 N 
HETATM   13  C26 UNL     1       3.342   9.300  25.248  1.00  0.00     0.309 C 
HETATM   14  C27 UNL     1       5.358   8.007  25.053  1.00  0.00     0.275 C 
HETATM   15  C28 UNL     1       6.016   6.903  24.318  1.00  0.00     0.070 C 
BRANCH   9  16
HETATM   16  N2  UNL     1       5.573   6.166  22.054  1.00  0.00    -0.342 N 
HETATM   17  C6  UNL     1       4.724   5.060  22.247  1.00  0.00     0.241 C 
HETATM   18  O2  UNL     1       4.269   4.813  23.369  1.00  0.00    -0.271 OA
ATOM     19  H2  UNL     1       5.870   6.235  21.080  1.00  0.00     0.163 HD
BRANCH  17  20
HETATM   20  C7  UNL     1       4.456   4.275  21.026  1.00  0.00     0.182 C 
HETATM   21  C8  UNL     1       3.554   3.144  21.365  1.00  0.00     0.065 C 
HETATM   22  C9  UNL     1       4.439   2.400  20.335  1.00  0.00     0.031 C 
HETATM   23  C10 UNL     1       3.580   2.275  19.084  1.00  0.00     0.038 C 
HETATM   24  C11 UNL     1       4.782   1.085  21.009  1.00  0.00     0.038 C 
HETATM   25  N3  UNL     1       5.382   3.465  20.339  1.00  0.00    -0.329 N 
HETATM   26  C12 UNL     1       6.717   3.645  19.806  1.00  0.00     0.233 C 
HETATM   27  O3  UNL     1       7.187   4.804  20.143  1.00  0.00    -0.272 OA
BRANCH  26  28
HETATM   28  C13 UNL     1       7.567   2.805  18.997  1.00  0.00     0.078 C 
HETATM   29  C14 UNL     1       7.572   1.360  19.469  1.00  0.00     0.027 C 
HETATM   30  C15 UNL     1       8.284   0.462  18.507  1.00  0.00    -0.012 C 
HETATM   31  C16 UNL     1       9.734   0.894  18.502  1.00  0.00     0.009 C 
HETATM   32  C20 UNL     1       7.726   0.510  17.126  1.00  0.00     0.012 C 
HETATM   33  C17 UNL     1       9.817   2.303  18.021  1.00  0.00    -0.012 C 
HETATM   34  C18 UNL     1       9.263   2.346  16.611  1.00  0.00     0.012 C 
HETATM   35  C23 UNL     1       8.996   3.241  18.885  1.00  0.00     0.027 C 
HETATM   36  C19 UNL     1       7.830   1.921  16.657  1.00  0.00     0.027 C 
HETATM   37  C21 UNL     1       7.013   2.813  17.570  1.00  0.00     0.119 C 
HETATM   38  C22 UNL     1       6.961   4.182  16.959  1.00  0.00     0.053 C 
HETATM   39  F1  UNL     1       5.751   2.265  17.624  1.00  0.00    -0.242 F 
ENDBRANCH  26  28
ENDBRANCH  17  20
ENDBRANCH   9  16
ENDBRANCH   6   9
ENDBRANCH   4   6
ENDBRANCH   3   4
TORSDOF 7
ENDMDL
MODEL 4
REMARK VINA RESULT: -9.715218939      1.937      2.601
REMARK  7 active torsions:
REMARK  status: ('A' for Active; 'I' for Inactive)
REMARK    1  A    between atoms: C3_3  and  N1_4 
REMARK    2  A    between atoms: N1_4  and  C4_6 
REMARK    3  A    between atoms: C4_6  and  O1_7 
REMARK    4  A    between atoms: C4_6  and  C5_9 
REMARK    5  A    between atoms: C5_9  and  N2_10 
REMARK       I    between atoms: N2_10  and  C6_12 
REMARK    6  A    between atoms: C6_12  and  C7_14 
REMARK       I    between atoms: N3_19  and  C12_20 
REMARK    7  A    between atoms: C12_20  and  C13_22 
ROOT
HETATM    1  C1  UNL     1      10.831   9.280  25.499  1.00  0.00     0.014 C 
HETATM    2  C2  UNL     1      10.264   9.000  24.481  1.00  0.00    -0.098 C 
HETATM    3  C3  UNL     1       9.545   8.718  23.211  1.00  0.00     0.215 C 
ENDROOT
BRANCH   3   4
HETATM    4  N1  UNL     1       8.129   8.864  23.537  1.00  0.00    -0.362 N 
ATOM      5  H1  UNL     1       7.734   9.802  23.463  1.00  0.00     0.162 HD
BRANCH   4   6
HETATM    6  C4  UNL     1       7.273   7.857  23.933  1.00  0.00     0.141 C 
BRANCH   6   7
HETATM    7  O1  UNL     1       7.786   6.931  24.706  1.00  0.00    -0.348 OA
ATOM      8  H1  UNL     1       7.179   6.287  25.049  1.00  0.00     0.219 HD
ENDBRANCH   6   7
BRANCH   6   9
HETATM    9  C5  UNL     1       5.847   7.674  23.590  1.00  0.00     0.100 C 
HETATM   10  C24 UNL     1       5.367   9.129  23.370  1.00  0.00     0.070 C 
HETATM   11  C25 UNL     1       3.873   9.239  23.369  1.00  0.00     0.275 C 
HETATM   12  N4  UNL     1       3.278   8.611  24.533  1.00  0.00     0.084 N 
HETATM   13  C26 UNL     1       2.301   9.469  25.094  1.00  0.00     0.309 C 
HETATM   14  C27 UNL     1       4.232   8.083  25.448  1.00  0.00     0.275 C 
HETATM   15  C28 UNL     1       5.142   7.099  24.817  1.00  0.00     0.070 C 
BRANCH   9  16
HETATM   16  N2  UNL     1       5.670   6.872  22.464  1.00  0.00    -0.342 N 
HETATM   17  C6  UNL     1       6.219   6.754  21.174  1.00  0.00     0.241 C 
HETATM   18  O2  UNL     1       7.117   7.519  20.806  1.00  0.00    -0.271 OA
ATOM     19  H2  UNL     1       4.940   6.177  22.618  1.00  0.00     0.163 HD
BRANCH  17  20
HETATM   20  C7  UNL     1       5.633   5.673  20.358  1.00  0.00     0.182 C 
HETATM   21  C8  UNL     1       4.680   4.898  21.194  1.00  0.00     0.065 C 
HETATM   22  C9  UNL     1       5.257   3.710  20.386  1.00  0.00     0.031 C 
HETATM   23  C10 UNL     1       4.169   3.337  19.388  1.00  0.00     0.038 C 
HETATM   24  C11 UNL     1       5.558   2.651  21.429  1.00  0.00     0.038 C 
HETATM   25  N3  UNL     1       6.306   4.530  19.884  1.00  0.00    -0.329 N 
HETATM   26  C12 UNL     1       7.529   4.281  19.148  1.00  0.00     0.233 C 
HETATM   27  O3  UNL     1       8.192   5.382  18.985  1.00  0.00    -0.272 OA
BRANCH  26  28
HETATM   28  C13 UNL     1       8.102   3.084  18.583  1.00  0.00     0.078 C 
HETATM   29  C14 UNL     1       7.894   1.867  19.469  1.00  0.00     0.027 C 
HETATM   30  C15 UNL     1       8.303   0.601  18.784  1.00  0.00    -0.012 C 
HETATM   31  C16 UNL     1       9.797   0.692  18.562  1.00  0.00     0.009 C 
HETATM   32  C20 UNL     1       7.601   0.373  17.490  1.00  0.00     0.012 C 
HETATM   33  C17 UNL     1      10.083   1.854  17.672  1.00  0.00    -0.012 C 
HETATM   34  C18 UNL     1       9.382   1.612  16.351  1.00  0.00     0.012 C 
HETATM   35  C23 UNL     1       9.564   3.152  18.258  1.00  0.00     0.027 C 
HETATM   36  C19 UNL     1       7.910   1.535  16.609  1.00  0.00     0.027 C 
HETATM   37  C21 UNL     1       7.392   2.804  17.256  1.00  0.00     0.119 C 
HETATM   38  C22 UNL     1       7.523   3.921  16.263  1.00  0.00     0.053 C 
HETATM   39  F1  UNL     1       6.065   2.579  17.548  1.00  0.00    -0.242 F 
ENDBRANCH  26  28
ENDBRANCH  17  20
ENDBRANCH   9  16
ENDBRANCH   6   9
ENDBRANCH   4   6
ENDBRANCH   3   4
TORSDOF 7
ENDMDL
MODEL 5
REMARK VINA RESULT: -9.654101468      1.307      1.586
REMARK  7 active torsions:
REMARK  status: ('A' for Active; 'I' for Inactive)
REMARK    1  A    between atoms: C3_3  and  N1_4 
REMARK    2  A    between atoms: N1_4  and  C4_6 
REMARK    3  A    between atoms: C4_6  and  O1_7 
REMARK    4  A    between atoms: C4_6  and  C5_9 
REMARK    5  A    between atoms: C5_9  and  N2_10 
REMARK       I    between atoms: N2_10  and  C6_12 
REMARK    6  A    between atoms: C6_12  and  C7_14 
REMARK       I    between atoms: N3_19  and  C12_20 
REMARK    7  A    between atoms: C12_20  and  C13_22 
ROOT
HETATM    1  C1  UNL     1      11.023   8.443  24.841  1.00  0.00     0.014 C 
HETATM    2  C2  UNL     1       9.930   8.190  25.262  1.00  0.00    -0.098 C 
HETATM    3  C3  UNL     1       8.592   7.813  25.789  1.00  0.00     0.215 C 
ENDROOT
BRANCH   3   4
HETATM    4  N1  UNL     1       7.925   7.138  24.678  1.00  0.00    -0.362 N 
ATOM      5  H1  UNL     1       8.325   6.252  24.370  1.00  0.00     0.162 HD
BRANCH   4   6
HETATM    6  C4  UNL     1       6.805   7.584  24.005  1.00  0.00     0.141 C 
BRANCH   6   7
HETATM    7  O1  UNL     1       5.756   7.855  24.742  1.00  0.00    -0.348 OA
ATOM      8  H1  UNL     1       5.144   8.487  24.385  1.00  0.00     0.219 HD
ENDBRANCH   6   7
BRANCH   6   9
HETATM    9  C5  UNL     1       6.626   7.786  22.552  1.00  0.00     0.100 C 
HETATM   10  C24 UNL     1       8.081   7.978  22.059  1.00  0.00     0.070 C 
HETATM   11  C25 UNL     1       8.139   8.560  20.680  1.00  0.00     0.275 C 
HETATM   12  N4  UNL     1       7.332   9.759  20.558  1.00  0.00     0.084 N 
HETATM   13  C26 UNL     1       8.069  10.767  19.890  1.00  0.00     0.309 C 
HETATM   14  C27 UNL     1       6.711  10.156  21.776  1.00  0.00     0.275 C 
HETATM   15  C28 UNL     1       5.858   9.092  22.354  1.00  0.00     0.070 C 
BRANCH   9  16
HETATM   16  N2  UNL     1       5.987   6.709  21.941  1.00  0.00    -0.342 N 
HETATM   17  C6  UNL     1       5.131   5.656  22.316  1.00  0.00     0.241 C 
HETATM   18  O2  UNL     1       4.771   5.535  23.492  1.00  0.00    -0.271 OA
ATOM     19  H2  UNL     1       6.198   6.673  20.943  1.00  0.00     0.163 HD
BRANCH  17  20
HETATM   20  C7  UNL     1       4.738   4.765  21.208  1.00  0.00     0.182 C 
HETATM   21  C8  UNL     1       3.854   3.694  21.737  1.00  0.00     0.065 C 
HETATM   22  C9  UNL     1       4.627   2.833  20.708  1.00  0.00     0.031 C 
HETATM   23  C10 UNL     1       3.651   2.610  19.559  1.00  0.00     0.038 C 
HETATM   24  C11 UNL     1       5.011   1.581  21.472  1.00  0.00     0.038 C 
HETATM   25  N3  UNL     1       5.581   3.871  20.520  1.00  0.00    -0.329 N 
HETATM   26  C12 UNL     1       6.864   3.965  19.851  1.00  0.00     0.233 C 
HETATM   27  O3  UNL     1       7.381   5.140  20.029  1.00  0.00    -0.272 OA
BRANCH  26  28
HETATM   28  C13 UNL     1       7.620   3.031  19.054  1.00  0.00     0.078 C 
HETATM   29  C14 UNL     1       7.549   1.614  19.597  1.00  0.00     0.027 C 
HETATM   30  C15 UNL     1       8.158   0.624  18.654  1.00  0.00    -0.012 C 
HETATM   31  C16 UNL     1       9.632   0.954  18.571  1.00  0.00     0.009 C 
HETATM   32  C20 UNL     1       7.546   0.645  17.296  1.00  0.00     0.012 C 
HETATM   33  C17 UNL     1       9.788   2.330  18.017  1.00  0.00    -0.012 C 
HETATM   34  C18 UNL     1       9.180   2.344  16.629  1.00  0.00     0.012 C 
HETATM   35  C23 UNL     1       9.069   3.362  18.864  1.00  0.00     0.027 C 
HETATM   36  C19 UNL     1       7.724   2.021  16.752  1.00  0.00     0.027 C 
HETATM   37  C21 UNL     1       7.009   3.010  17.650  1.00  0.00     0.119 C 
HETATM   38  C22 UNL     1       7.022   4.349  16.974  1.00  0.00     0.053 C 
HETATM   39  F1  UNL     1       5.716   2.553  17.780  1.00  0.00    -0.242 F 
ENDBRANCH  26  28
ENDBRANCH  17  20
ENDBRANCH   9  16
ENDBRANCH   6   9
ENDBRANCH   4   6
ENDBRANCH   3   4
TORSDOF 7
ENDMDL
