MODEL 1
REMARK VINA RESULT: -8.423693142      0.000      0.000
REMARK  6 active torsions:
REMARK  status: ('A' for Active; 'I' for Inactive)
REMARK    1  A    between atoms: C3_4  and  C4_5 
REMARK    2  A    between atoms: C5_7  and  C6_8 
REMARK    3  A    between atoms: C6_8  and  N2_9 
REMARK    4  A    between atoms: C6_8  and  C18_23 
REMARK       I    between atoms: N2_9  and  C7_11 
REMARK    5  A    between atoms: C7_11  and  C8_13 
REMARK       I    between atoms: C18_23  and  N3_25 
REMARK    6  A    between atoms: N3_25  and  C19_27 
ROOT
HETATM    1  C6  UNL     1       6.945   6.550  19.276  1.00  0.00     0.183 C 
ENDROOT
BRANCH   1   2
HETATM    2  C5  UNL     1       6.293   6.276  20.577  1.00  0.00     0.052 C 
HETATM    3  C3  UNL     1       5.445   5.075  20.662  1.00  0.00     0.032 C 
HETATM    4  C2  UNL     1       4.678   5.308  21.971  1.00  0.00     0.277 C 
HETATM    5  N1  UNL     1       4.464   6.742  22.021  1.00  0.00     0.085 N 
HETATM    6  C1  UNL     1       4.448   7.253  23.355  1.00  0.00     0.309 C 
HETATM    7  C24 UNL     1       5.479   7.359  21.173  1.00  0.00     0.279 C 
BRANCH   3   8
HETATM    8  C4  UNL     1       4.488   4.807  19.556  1.00  0.00     0.092 C 
HETATM    9 BR1  UNL     1       4.017   2.962  19.318  1.00  0.00    -0.096 Br
ENDBRANCH   3   8
ENDBRANCH   1   2
BRANCH   1  10
HETATM   10  N2  UNL     1       7.754   5.436  18.843  1.00  0.00    -0.347 N 
HETATM   11  C7  UNL     1       7.665   4.735  17.641  1.00  0.00     0.223 C 
HETATM   12  O1  UNL     1       6.788   5.083  16.808  1.00  0.00    -0.273 OA
ATOM     13  H2  UNL     1       8.477   5.125  19.492  1.00  0.00     0.163 HD
BRANCH  11  14
HETATM   14  C8  UNL     1       8.542   3.613  17.302  1.00  0.00     0.086 C 
HETATM   15  C9  UNL     1       7.885   2.540  16.503  1.00  0.00    -0.001 C 
HETATM   16  C10 UNL     1       8.962   1.588  15.990  1.00  0.00     0.010 C 
HETATM   17  C14 UNL     1       6.916   1.711  17.303  1.00  0.00     0.010 C 
HETATM   18  C11 UNL     1       9.708   0.998  17.182  1.00  0.00    -0.013 C 
HETATM   19  C12 UNL     1       8.723   0.173  17.963  1.00  0.00     0.009 C 
HETATM   20  C17 UNL     1      10.329   2.105  17.977  1.00  0.00     0.010 C 
HETATM   21  C13 UNL     1       7.629   1.083  18.473  1.00  0.00    -0.013 C 
HETATM   22  C15 UNL     1       8.303   2.145  19.324  1.00  0.00     0.010 C 
HETATM   23  C16 UNL     1       9.217   3.000  18.501  1.00  0.00    -0.001 C 
ENDBRANCH  11  14
ENDBRANCH   1  10
BRANCH   1  24
HETATM   24  C18 UNL     1       7.788   7.753  19.270  1.00  0.00     0.246 C 
HETATM   25  O2  UNL     1       7.528   8.655  18.443  1.00  0.00    -0.271 OA
HETATM   26  N3  UNL     1       8.891   7.989  20.132  1.00  0.00    -0.311 N 
ATOM     27  H3  UNL     1       9.784   7.534  19.941  1.00  0.00     0.170 HD
BRANCH  26  28
HETATM   28  C19 UNL     1       8.782   8.780  21.170  1.00  0.00     0.107 A 
HETATM   29  C20 UNL     1       9.191   8.384  22.421  1.00  0.00     0.048 A 
HETATM   30  C21 UNL     1       9.081   9.208  23.518  1.00  0.00     0.005 A 
HETATM   31  C22 UNL     1       8.542  10.464  23.339  1.00  0.00     0.017 A 
HETATM   32  C23 UNL     1       8.148  10.818  22.077  1.00  0.00     0.089 A 
HETATM   33  N4  UNL     1       8.258  10.006  21.000  1.00  0.00    -0.352 N 
ATOM     34  H4  UNL     1       7.949  10.317  20.079  1.00  0.00     0.166 HD
ENDBRANCH  26  28
ENDBRANCH   1  24
TORSDOF 6
ENDMDL
MODEL 2
REMARK VINA RESULT: -8.368364306      0.770      1.269
REMARK  6 active torsions:
REMARK  status: ('A' for Active; 'I' for Inactive)
REMARK    1  A    between atoms: C3_4  and  C4_5 
REMARK    2  A    between atoms: C5_7  and  C6_8 
REMARK    3  A    between atoms: C6_8  and  N2_9 
REMARK    4  A    between atoms: C6_8  and  C18_23 
REMARK       I    between atoms: N2_9  and  C7_11 
REMARK    5  A    between atoms: C7_11  and  C8_13 
REMARK       I    between atoms: C18_23  and  N3_25 
REMARK    6  A    between atoms: N3_25  and  C19_27 
ROOT
HETATM    1  C6  UNL     1       6.949   6.306  19.743  1.00  0.00     0.183 C 
ENDROOT
BRANCH   1   2
HETATM    2  C5  UNL     1       6.059   6.432  20.921  1.00  0.00     0.052 C 
HETATM    3  C3  UNL     1       4.981   5.437  21.055  1.00  0.00     0.032 C 
HETATM    4  C2  UNL     1       4.082   6.072  22.125  1.00  0.00     0.277 C 
HETATM    5  N1  UNL     1       4.160   7.498  21.872  1.00  0.00     0.085 N 
HETATM    6  C1  UNL     1       4.040   8.280  23.062  1.00  0.00     0.309 C 
HETATM    7  C24 UNL     1       5.400   7.739  21.140  1.00  0.00     0.279 C 
BRANCH   3   8
HETATM    8  C4  UNL     1       4.175   5.103  19.852  1.00  0.00     0.092 C 
HETATM    9 BR1  UNL     1       4.200   3.252  19.344  1.00  0.00    -0.096 Br
ENDBRANCH   3   8
ENDBRANCH   1   2
BRANCH   1  10
HETATM   10  N2  UNL     1       7.642   5.040  19.735  1.00  0.00    -0.347 N 
HETATM   11  C7  UNL     1       7.959   4.250  18.631  1.00  0.00     0.223 C 
HETATM   12  O1  UNL     1       7.618   4.652  17.488  1.00  0.00    -0.273 OA
ATOM     13  H2  UNL     1       7.935   4.682  20.644  1.00  0.00     0.163 HD
BRANCH  11  14
HETATM   14  C8  UNL     1       8.671   2.975  18.738  1.00  0.00     0.086 C 
HETATM   15  C9  UNL     1       9.594   2.690  17.603  1.00  0.00    -0.001 C 
HETATM   16  C10 UNL     1      10.461   1.490  17.972  1.00  0.00     0.010 C 
HETATM   17  C14 UNL     1       8.876   2.333  16.328  1.00  0.00     0.010 C 
HETATM   18  C11 UNL     1       9.557   0.294  18.250  1.00  0.00    -0.013 C 
HETATM   19  C12 UNL     1       8.856  -0.046  16.965  1.00  0.00     0.009 C 
HETATM   20  C17 UNL     1       8.625   0.626  19.375  1.00  0.00     0.010 C 
HETATM   21  C13 UNL     1       7.998   1.131  16.559  1.00  0.00    -0.013 C 
HETATM   22  C15 UNL     1       7.030   1.383  17.701  1.00  0.00     0.010 C 
HETATM   23  C16 UNL     1       7.755   1.797  18.944  1.00  0.00    -0.001 C 
ENDBRANCH  11  14
ENDBRANCH   1  10
BRANCH   1  24
HETATM   24  C18 UNL     1       7.952   7.374  19.634  1.00  0.00     0.246 C 
HETATM   25  O2  UNL     1       7.919   8.116  18.627  1.00  0.00    -0.271 OA
HETATM   26  N3  UNL     1       8.972   7.645  20.583  1.00  0.00    -0.311 N 
ATOM     27  H3  UNL     1       9.806   7.058  20.604  1.00  0.00     0.170 HD
BRANCH  26  28
HETATM   28  C19 UNL     1       8.861   8.635  21.432  1.00  0.00     0.107 A 
HETATM   29  C20 UNL     1       9.228   8.496  22.749  1.00  0.00     0.048 A 
HETATM   30  C21 UNL     1       9.115   9.531  23.649  1.00  0.00     0.005 A 
HETATM   31  C22 UNL     1       8.618  10.736  23.200  1.00  0.00     0.017 A 
HETATM   32  C23 UNL     1       8.265  10.831  21.881  1.00  0.00     0.089 A 
HETATM   33  N4  UNL     1       8.377   9.812  20.998  1.00  0.00    -0.352 N 
ATOM     34  H4  UNL     1       8.101   9.934  20.024  1.00  0.00     0.166 HD
ENDBRANCH  26  28
ENDBRANCH   1  24
TORSDOF 6
ENDMDL
MODEL 3
REMARK VINA RESULT: -8.324374886      0.973      1.150
REMARK  6 active torsions:
REMARK  status: ('A' for Active; 'I' for Inactive)
REMARK    1  A    between atoms: C3_4  and  C4_5 
REMARK    2  A    between atoms: C5_7  and  C6_8 
REMARK    3  A    between atoms: C6_8  and  N2_9 
REMARK    4  A    between atoms: C6_8  and  C18_23 
REMARK       I    between atoms: N2_9  and  C7_11 
REMARK    5  A    between atoms: C7_11  and  C8_13 
REMARK       I    between atoms: C18_23  and  N3_25 
REMARK    6  A    between atoms: N3_25  and  C19_27 
ROOT
HETATM    1  C6  UNL     1       6.443   6.721  18.816  1.00  0.00     0.183 C 
ENDROOT
BRANCH   1   2
HETATM    2  C5  UNL     1       6.055   6.714  20.245  1.00  0.00     0.052 C 
HETATM    3  C3  UNL     1       5.577   5.437  20.803  1.00  0.00     0.032 C 
HETATM    4  C2  UNL     1       4.942   5.877  22.130  1.00  0.00     0.277 C 
HETATM    5  N1  UNL     1       4.360   7.174  21.846  1.00  0.00     0.085 N 
HETATM    6  C1  UNL     1       4.371   8.046  22.978  1.00  0.00     0.309 C 
HETATM    7  C24 UNL     1       5.059   7.717  20.686  1.00  0.00     0.279 C 
BRANCH   3   8
HETATM    8  C4  UNL     1       4.598   4.644  20.013  1.00  0.00     0.092 C 
HETATM    9 BR1  UNL     1       4.532   2.774  20.442  1.00  0.00    -0.096 Br
ENDBRANCH   3   8
ENDBRANCH   1   2
BRANCH   1  10
HETATM   10  N2  UNL     1       7.360   5.649  18.510  1.00  0.00    -0.347 N 
HETATM   11  C7  UNL     1       7.268   4.720  17.475  1.00  0.00     0.223 C 
HETATM   12  O1  UNL     1       6.285   4.789  16.693  1.00  0.00    -0.273 OA
ATOM     13  H2  UNL     1       8.170   5.562  19.123  1.00  0.00     0.163 HD
BRANCH  11  14
HETATM   14  C8  UNL     1       8.262   3.667  17.255  1.00  0.00     0.086 C 
HETATM   15  C9  UNL     1       7.705   2.410  16.680  1.00  0.00    -0.001 C 
HETATM   16  C10 UNL     1       8.866   1.518  16.248  1.00  0.00     0.010 C 
HETATM   17  C14 UNL     1       6.889   1.615  17.665  1.00  0.00     0.010 C 
HETATM   18  C11 UNL     1       9.739   1.221  17.463  1.00  0.00    -0.013 C 
HETATM   19  C12 UNL     1       8.905   0.425  18.429  1.00  0.00     0.009 C 
HETATM   20  C17 UNL     1      10.255   2.507  18.031  1.00  0.00     0.010 C 
HETATM   21  C13 UNL     1       7.732   1.274  18.866  1.00  0.00    -0.013 C 
HETATM   22  C15 UNL     1       8.310   2.530  19.492  1.00  0.00     0.010 C 
HETATM   23  C16 UNL     1       9.067   3.340  18.485  1.00  0.00    -0.001 C 
ENDBRANCH  11  14
ENDBRANCH   1  10
BRANCH   1  24
HETATM   24  C18 UNL     1       7.052   7.982  18.368  1.00  0.00     0.246 C 
HETATM   25  O2  UNL     1       6.543   8.569  17.388  1.00  0.00    -0.271 OA
HETATM   26  N3  UNL     1       8.185   8.603  18.956  1.00  0.00    -0.311 N 
ATOM     27  H3  UNL     1       9.117   8.244  18.750  1.00  0.00     0.170 HD
BRANCH  26  28
HETATM   28  C19 UNL     1       8.054   9.629  19.758  1.00  0.00     0.107 A 
HETATM   29  C20 UNL     1       8.173   9.495  21.121  1.00  0.00     0.048 A 
HETATM   30  C21 UNL     1       8.036  10.568  21.973  1.00  0.00     0.005 A 
HETATM   31  C22 UNL     1       7.773  11.806  21.426  1.00  0.00     0.017 A 
HETATM   32  C23 UNL     1       7.662  11.894  20.065  1.00  0.00     0.089 A 
HETATM   33  N4  UNL     1       7.797  10.838  19.230  1.00  0.00    -0.352 N 
ATOM     34  H4  UNL     1       7.706  10.957  18.221  1.00  0.00     0.166 HD
ENDBRANCH  26  28
ENDBRANCH   1  24
TORSDOF 6
ENDMDL
MODEL 4
REMARK VINA RESULT: -8.296168589      2.493      5.342
REMARK  6 active torsions:
REMARK  status: ('A' for Active; 'I' for Inactive)
REMARK    1  A    between atoms: C3_4  and  C4_5 
REMARK    2  A    between atoms: C5_7  and  C6_8 
REMARK    3  A    between atoms: C6_8  and  N2_9 
REMARK    4  A    between atoms: C6_8  and  C18_23 
REMARK       I    between atoms: N2_9  and  C7_11 
REMARK    5  A    between atoms: C7_11  and  C8_13 
REMARK       I    between atoms: C18_23  and  N3_25 
REMARK    6  A    between atoms: N3_25  and  C19_27 
ROOT
HETATM    1  C6  UNL     1       6.871   6.420  18.814  1.00  0.00     0.183 C 
ENDROOT
BRANCH   1   2
HETATM    2  C5  UNL     1       7.665   7.622  19.158  1.00  0.00     0.052 C 
HETATM    3  C3  UNL     1       8.522   7.540  20.352  1.00  0.00     0.032 C 
HETATM    4  C2  UNL     1       8.880   9.013  20.600  1.00  0.00     0.277 C 
HETATM    5  N1  UNL     1       7.691   9.749  20.217  1.00  0.00     0.085 N 
HETATM    6  C1  UNL     1       7.986  11.042  19.686  1.00  0.00     0.309 C 
HETATM    7  C24 UNL     1       6.934   8.902  19.301  1.00  0.00     0.279 C 
BRANCH   3   8
HETATM    8  C4  UNL     1       7.953   6.945  21.589  1.00  0.00     0.092 C 
HETATM    9 BR1  UNL     1       8.370   7.885  23.211  1.00  0.00    -0.096 Br
ENDBRANCH   3   8
ENDBRANCH   1   2
BRANCH   1  10
HETATM   10  N2  UNL     1       7.712   5.257  18.658  1.00  0.00    -0.347 N 
HETATM   11  C7  UNL     1       7.605   4.034  19.319  1.00  0.00     0.223 C 
HETATM   12  O1  UNL     1       6.679   3.886  20.159  1.00  0.00    -0.273 OA
ATOM     13  H2  UNL     1       8.474   5.339  17.985  1.00  0.00     0.163 HD
BRANCH  11  14
HETATM   14  C8  UNL     1       8.518   2.914  19.083  1.00  0.00     0.086 C 
HETATM   15  C9  UNL     1       9.315   3.026  17.828  1.00  0.00    -0.001 C 
HETATM   16  C10 UNL     1      10.404   1.957  17.847  1.00  0.00     0.010 C 
HETATM   17  C14 UNL     1       8.499   2.794  16.583  1.00  0.00     0.010 C 
HETATM   18  C11 UNL     1       9.748   0.585  17.955  1.00  0.00    -0.013 C 
HETATM   19  C12 UNL     1       8.944   0.374  16.702  1.00  0.00     0.009 C 
HETATM   20  C17 UNL     1       8.934   0.520  19.210  1.00  0.00     0.010 C 
HETATM   21  C13 UNL     1       7.863   1.429  16.640  1.00  0.00    -0.013 C 
HETATM   22  C15 UNL     1       7.029   1.277  17.900  1.00  0.00     0.010 C 
HETATM   23  C16 UNL     1       7.838   1.571  19.125  1.00  0.00    -0.001 C 
ENDBRANCH  11  14
ENDBRANCH   1  10
BRANCH   1  24
HETATM   24  C18 UNL     1       6.065   6.563  17.594  1.00  0.00     0.246 C 
HETATM   25  O2  UNL     1       6.375   7.462  16.781  1.00  0.00    -0.271 OA
HETATM   26  N3  UNL     1       4.945   5.762  17.248  1.00  0.00    -0.311 N 
ATOM     27  H3  UNL     1       4.045   5.938  17.695  1.00  0.00     0.170 HD
BRANCH  26  28
HETATM   28  C19 UNL     1       5.048   4.800  16.366  1.00  0.00     0.107 A 
HETATM   29  C20 UNL     1       4.360   3.619  16.509  1.00  0.00     0.048 A 
HETATM   30  C21 UNL     1       4.462   2.601  15.587  1.00  0.00     0.005 A 
HETATM   31  C22 UNL     1       5.282   2.789  14.495  1.00  0.00     0.017 A 
HETATM   32  C23 UNL     1       5.948   3.980  14.393  1.00  0.00     0.089 A 
HETATM   33  N4  UNL     1       5.847   4.979  15.300  1.00  0.00    -0.352 N 
ATOM     34  H4  UNL     1       6.364   5.849  15.177  1.00  0.00     0.166 HD
ENDBRANCH  26  28
ENDBRANCH   1  24
TORSDOF 6
ENDMDL
MODEL 5
REMARK VINA RESULT: -8.212736234      1.121      1.347
REMARK  6 active torsions:
REMARK  status: ('A' for Active; 'I' for Inactive)
REMARK    1  A    between atoms: C3_4  and  C4_5 
REMARK    2  A    between atoms: C5_7  and  C6_8 
REMARK    3  A    between atoms: C6_8  and  N2_9 
REMARK    4  A    between atoms: C6_8  and  C18_23 
REMARK       I    between atoms: N2_9  and  C7_11 
REMARK    5  A    between atoms: C7_11  and  C8_13 
REMARK       I    between atoms: C18_23  and  N3_25 
REMARK    6  A    between atoms: N3_25  and  C19_27 
ROOT
HETATM    1  C6  UNL     1       6.501   6.177  19.924  1.00  0.00     0.183 C 
ENDROOT
BRANCH   1   2
HETATM    2  C5  UNL     1       5.759   5.649  21.092  1.00  0.00     0.052 C 
HETATM    3  C3  UNL     1       5.085   4.350  20.926  1.00  0.00     0.032 C 
HETATM    4  C2  UNL     1       4.156   4.306  22.148  1.00  0.00     0.277 C 
HETATM    5  N1  UNL     1       3.738   5.681  22.342  1.00  0.00     0.085 N 
HETATM    6  C1  UNL     1       3.506   6.002  23.715  1.00  0.00     0.309 C 
HETATM    7  C24 UNL     1       4.740   6.531  21.707  1.00  0.00     0.279 C 
BRANCH   3   8
HETATM    8  C4  UNL     1       4.299   4.117  19.686  1.00  0.00     0.092 C 
HETATM    9 BR1  UNL     1       3.898   2.277  19.313  1.00  0.00    -0.096 Br
ENDBRANCH   3   8
ENDBRANCH   1   2
BRANCH   1  10
HETATM   10  N2  UNL     1       7.377   5.179  19.358  1.00  0.00    -0.347 N 
HETATM   11  C7  UNL     1       7.567   4.880  18.010  1.00  0.00     0.223 C 
HETATM   12  O1  UNL     1       6.918   5.534  17.153  1.00  0.00    -0.273 OA
ATOM     13  H2  UNL     1       7.921   4.629  20.022  1.00  0.00     0.163 HD
BRANCH  11  14
HETATM   14  C8  UNL     1       8.488   3.841  17.543  1.00  0.00     0.086 C 
HETATM   15  C9  UNL     1       7.930   2.963  16.475  1.00  0.00    -0.001 C 
HETATM   16  C10 UNL     1       9.065   2.123  15.895  1.00  0.00     0.010 C 
HETATM   17  C14 UNL     1       6.890   1.999  16.981  1.00  0.00     0.010 C 
HETATM   18  C11 UNL     1       9.686   1.293  17.013  1.00  0.00    -0.013 C 
HETATM   19  C12 UNL     1       8.632   0.337  17.499  1.00  0.00     0.009 C 
HETATM   20  C17 UNL     1      10.208   2.206  18.080  1.00  0.00     0.010 C 
HETATM   21  C13 UNL     1       7.481   1.136  18.066  1.00  0.00    -0.013 C 
HETATM   22  C15 UNL     1       8.050   1.992  19.183  1.00  0.00     0.010 C 
HETATM   23  C16 UNL     1       9.037   2.987  18.655  1.00  0.00    -0.001 C 
ENDBRANCH  11  14
ENDBRANCH   1  10
BRANCH   1  24
HETATM   24  C18 UNL     1       7.303   7.374  20.215  1.00  0.00     0.246 C 
HETATM   25  O2  UNL     1       6.973   8.453  19.677  1.00  0.00    -0.271 OA
HETATM   26  N3  UNL     1       8.439   7.416  21.065  1.00  0.00    -0.311 N 
ATOM     27  H3  UNL     1       9.336   7.071  20.722  1.00  0.00     0.170 HD
BRANCH  26  28
HETATM   28  C19 UNL     1       8.356   7.890  22.283  1.00  0.00     0.107 A 
HETATM   29  C20 UNL     1       8.770   9.164  22.587  1.00  0.00     0.048 A 
HETATM   30  C21 UNL     1       8.687   9.671  23.864  1.00  0.00     0.005 A 
HETATM   31  C22 UNL     1       8.170   8.864  24.855  1.00  0.00     0.017 A 
HETATM   32  C23 UNL     1       7.770   7.602  24.508  1.00  0.00     0.089 A 
HETATM   33  N4  UNL     1       7.853   7.105  23.252  1.00  0.00    -0.352 N 
ATOM     34  H4  UNL     1       7.540   6.157  23.045  1.00  0.00     0.166 HD
ENDBRANCH  26  28
ENDBRANCH   1  24
TORSDOF 6
ENDMDL
