MODEL 1
REMARK VINA RESULT: -9.403895288      0.000      0.000
REMARK  5 active torsions:
REMARK  status: ('A' for Active; 'I' for Inactive)
REMARK    1  A    between atoms: C2_2  and  C3_3 
REMARK    2  A    between atoms: C5_5  and  C6_6 
REMARK    3  A    between atoms: C7_10  and  C8_11 
REMARK       I    between atoms: C8_11  and  N2_13 
REMARK       I    between atoms: C9_15  and  N4_17 
REMARK    4  A    between atoms: C10_19  and  C11_21 
REMARK    5  A    between atoms: C11_21  and  C12_22 
ROOT
HETATM    1  C8  UNL     1       7.199   6.894  21.088  1.00  0.00     0.256 C 
HETATM    2  O1  UNL     1       6.899   7.422  19.990  1.00  0.00    -0.271 OA
HETATM    3  N2  UNL     1       7.311   5.443  21.100  1.00  0.00    -0.299 N 
ATOM      4  H2  UNL     1       7.973   4.949  21.699  1.00  0.00     0.171 HD
HETATM    5  C9  UNL     1       6.516   4.834  20.301  1.00  0.00     0.195 C 
HETATM    6  N3  UNL     1       5.593   5.617  19.454  1.00  0.00    -0.063 NA
HETATM    7  N4  UNL     1       6.238   3.469  20.103  1.00  0.00    -0.328 N 
ATOM      8  H4  UNL     1       5.741   2.942  20.821  1.00  0.00     0.169 HD
HETATM    9  C10 UNL     1       6.605   2.889  19.029  1.00  0.00     0.063 C 
HETATM   10 BR1  UNL     1       7.565   3.866  17.705  1.00  0.00    -0.036 Br
ENDROOT
BRANCH   1  11
HETATM   11  C7  UNL     1       7.374   7.747  22.287  1.00  0.00     0.301 C 
HETATM   12  N1  UNL     1       7.769   6.911  23.374  1.00  0.00    -0.043 N 
HETATM   13  C6  UNL     1       7.512   7.511  24.617  1.00  0.00     0.313 C 
ATOM     14  H12 UNL     1       8.747   6.633  23.292  1.00  0.00     0.279 HD
ATOM     15  H11 UNL     1       7.336   5.990  23.310  1.00  0.00     0.279 HD
HETATM   16  S1  UNL     1       5.962   8.304  24.416  1.00  0.00     0.184 S 
HETATM   17  C18 UNL     1       6.015   8.326  22.614  1.00  0.00     0.096 C 
HETATM   18  O2  UNL     1       5.947   9.650  24.998  1.00  0.00    -0.225 OA
HETATM   19  O3  UNL     1       4.839   7.438  24.915  1.00  0.00    -0.225 OA
HETATM   20  C19 UNL     1       5.842   9.754  22.190  1.00  0.00     0.034 C 
HETATM   21  C20 UNL     1       4.813   7.558  22.210  1.00  0.00     0.034 C 
BRANCH  13  22
HETATM   22  C5  UNL     1       8.517   8.388  25.258  1.00  0.00     0.036 A 
HETATM   23  C3  UNL     1       9.957   8.072  25.350  1.00  0.00    -0.007 A 
HETATM   24  C4  UNL     1       9.114   7.785  26.565  1.00  0.00     0.013 A 
BRANCH  23  25
HETATM   25  C2  UNL     1      10.989   9.156  25.599  1.00  0.00     0.000 C 
HETATM   26  C1  UNL     1      10.910  10.158  24.445  1.00  0.00     0.005 C 
ENDBRANCH  23  25
ENDBRANCH  13  22
ENDBRANCH   1  11
BRANCH   9  27
HETATM   27  C11 UNL     1       6.184   1.484  18.639  1.00  0.00     0.103 C 
BRANCH  27  28
HETATM   28  C12 UNL     1       7.476   0.789  18.243  1.00  0.00    -0.052 A 
HETATM   29  C13 UNL     1       8.545   0.822  19.081  1.00  0.00     0.007 A 
HETATM   30  C14 UNL     1       9.743   0.247  18.650  1.00  0.00     0.001 A 
HETATM   31  C15 UNL     1       9.864  -0.337  17.413  1.00  0.00     0.000 A 
HETATM   32  C16 UNL     1       8.771  -0.363  16.572  1.00  0.00     0.001 A 
HETATM   33  C17 UNL     1       7.602   0.201  17.014  1.00  0.00     0.007 A 
ENDBRANCH  27  28
ENDBRANCH   9  27
TORSDOF 5
ENDMDL
MODEL 2
REMARK VINA RESULT: -9.012238138      3.001      8.546
REMARK  5 active torsions:
REMARK  status: ('A' for Active; 'I' for Inactive)
REMARK    1  A    between atoms: C2_2  and  C3_3 
REMARK    2  A    between atoms: C5_5  and  C6_6 
REMARK    3  A    between atoms: C7_10  and  C8_11 
REMARK       I    between atoms: C8_11  and  N2_13 
REMARK       I    between atoms: C9_15  and  N4_17 
REMARK    4  A    between atoms: C10_19  and  C11_21 
REMARK    5  A    between atoms: C11_21  and  C12_22 
ROOT
HETATM    1  C8  UNL     1       6.558   5.366  20.651  1.00  0.00     0.256 C 
HETATM    2  O1  UNL     1       5.435   5.906  20.797  1.00  0.00    -0.271 OA
HETATM    3  N2  UNL     1       7.606   5.791  21.567  1.00  0.00    -0.299 N 
ATOM      4  H2  UNL     1       8.340   5.161  21.891  1.00  0.00     0.171 HD
HETATM    5  C9  UNL     1       7.536   7.016  21.935  1.00  0.00     0.195 C 
HETATM    6  N3  UNL     1       6.437   7.867  21.432  1.00  0.00    -0.063 NA
HETATM    7  N4  UNL     1       8.398   7.824  22.699  1.00  0.00    -0.328 N 
ATOM      8  H4  UNL     1       9.301   8.106  22.318  1.00  0.00     0.169 HD
HETATM    9  C10 UNL     1       8.054   8.205  23.865  1.00  0.00     0.063 C 
HETATM   10 BR1  UNL     1       6.382   7.647  24.589  1.00  0.00    -0.036 Br
ENDROOT
BRANCH   1  11
HETATM   11  C7  UNL     1       6.762   4.386  19.558  1.00  0.00     0.301 C 
HETATM   12  N1  UNL     1       8.074   4.578  19.028  1.00  0.00    -0.043 N 
HETATM   13  C6  UNL     1       8.197   4.051  17.733  1.00  0.00     0.313 C 
ATOM     14  H12 UNL     1       8.785   4.197  19.652  1.00  0.00     0.279 HD
ATOM     15  H11 UNL     1       8.344   5.560  19.056  1.00  0.00     0.279 HD
HETATM   16  S1  UNL     1       6.682   4.446  16.945  1.00  0.00     0.184 S 
HETATM   17  C18 UNL     1       5.766   4.728  18.472  1.00  0.00     0.096 C 
HETATM   18  O2  UNL     1       6.151   3.322  16.166  1.00  0.00    -0.225 OA
HETATM   19  O3  UNL     1       6.800   5.711  16.141  1.00  0.00    -0.225 OA
HETATM   20  C19 UNL     1       4.569   3.825  18.436  1.00  0.00     0.034 C 
HETATM   21  C20 UNL     1       5.308   6.134  18.362  1.00  0.00     0.034 C 
BRANCH  13  22
HETATM   22  C5  UNL     1       8.593   2.641  17.522  1.00  0.00     0.036 A 
HETATM   23  C3  UNL     1       9.123   1.760  18.582  1.00  0.00    -0.007 A 
HETATM   24  C4  UNL     1      10.127   2.405  17.664  1.00  0.00     0.013 A 
BRANCH  23  25
HETATM   25  C2  UNL     1       9.091   0.249  18.443  1.00  0.00     0.000 C 
HETATM   26  C1  UNL     1      10.484  -0.216  18.014  1.00  0.00     0.005 C 
ENDBRANCH  23  25
ENDBRANCH  13  22
ENDBRANCH   1  11
BRANCH   9  27
HETATM   27  C11 UNL     1       8.820   9.230  24.682  1.00  0.00     0.103 C 
BRANCH  27  28
HETATM   28  C12 UNL     1       9.895   8.428  25.396  1.00  0.00    -0.052 A 
HETATM   29  C13 UNL     1       9.562   7.640  26.452  1.00  0.00     0.007 A 
HETATM   30  C14 UNL     1      10.586   6.984  27.139  1.00  0.00     0.001 A 
HETATM   31  C15 UNL     1      11.904   7.121  26.780  1.00  0.00     0.000 A 
HETATM   32  C16 UNL     1      12.229   7.924  25.706  1.00  0.00     0.001 A 
HETATM   33  C17 UNL     1      11.210   8.555  25.041  1.00  0.00     0.007 A 
ENDBRANCH  27  28
ENDBRANCH   9  27
TORSDOF 5
ENDMDL
MODEL 3
REMARK VINA RESULT: -8.947838858      3.179      8.707
REMARK  5 active torsions:
REMARK  status: ('A' for Active; 'I' for Inactive)
REMARK    1  A    between atoms: C2_2  and  C3_3 
REMARK    2  A    between atoms: C5_5  and  C6_6 
REMARK    3  A    between atoms: C7_10  and  C8_11 
REMARK       I    between atoms: C8_11  and  N2_13 
REMARK       I    between atoms: C9_15  and  N4_17 
REMARK    4  A    between atoms: C10_19  and  C11_21 
REMARK    5  A    between atoms: C11_21  and  C12_22 
ROOT
HETATM    1  C8  UNL     1       7.461   6.074  19.939  1.00  0.00     0.256 C 
HETATM    2  O1  UNL     1       7.940   7.106  19.410  1.00  0.00    -0.271 OA
HETATM    3  N2  UNL     1       7.095   6.175  21.343  1.00  0.00    -0.299 N 
ATOM      4  H2  UNL     1       6.309   5.663  21.744  1.00  0.00     0.171 HD
HETATM    5  C9  UNL     1       7.836   6.957  22.039  1.00  0.00     0.195 C 
HETATM    6  N3  UNL     1       8.951   7.675  21.387  1.00  0.00    -0.063 NA
HETATM    7  N4  UNL     1       7.886   7.232  23.418  1.00  0.00    -0.328 N 
ATOM      8  H4  UNL     1       8.220   6.520  24.067  1.00  0.00     0.169 HD
HETATM    9  C10 UNL     1       7.515   8.369  23.858  1.00  0.00     0.063 C 
HETATM   10 BR1  UNL     1       6.856   9.685  22.648  1.00  0.00    -0.036 Br
ENDROOT
BRANCH   1  11
HETATM   11  C7  UNL     1       7.338   4.832  19.139  1.00  0.00     0.301 C 
HETATM   12  N1  UNL     1       8.508   4.706  18.331  1.00  0.00    -0.043 N 
HETATM   13  C6  UNL     1       8.297   3.859  17.232  1.00  0.00     0.313 C 
ATOM     14  H12 UNL     1       9.310   4.403  18.884  1.00  0.00     0.279 HD
ATOM     15  H11 UNL     1       8.854   5.618  18.035  1.00  0.00     0.279 HD
HETATM   16  S1  UNL     1       6.678   4.243  16.679  1.00  0.00     0.184 S 
HETATM   17  C18 UNL     1       6.153   5.021  18.218  1.00  0.00     0.096 C 
HETATM   18  O2  UNL     1       5.901   3.041  16.358  1.00  0.00    -0.225 OA
HETATM   19  O3  UNL     1       6.710   5.237  15.552  1.00  0.00    -0.225 OA
HETATM   20  C19 UNL     1       4.913   4.308  18.666  1.00  0.00     0.034 C 
HETATM   21  C20 UNL     1       5.793   6.402  17.817  1.00  0.00     0.034 C 
BRANCH  13  22
HETATM   22  C5  UNL     1       8.525   2.401  17.344  1.00  0.00     0.036 A 
HETATM   23  C3  UNL     1       9.719   1.792  17.964  1.00  0.00    -0.007 A 
HETATM   24  C4  UNL     1       9.705   1.894  16.462  1.00  0.00     0.013 A 
BRANCH  23  25
HETATM   25  C2  UNL     1       9.711   0.355  18.451  1.00  0.00     0.000 C 
HETATM   26  C1  UNL     1      10.085  -0.546  17.274  1.00  0.00     0.005 C 
ENDBRANCH  23  25
ENDBRANCH  13  22
ENDBRANCH   1  11
BRANCH   9  27
HETATM   27  C11 UNL     1       7.714   8.828  25.291  1.00  0.00     0.103 C 
BRANCH  27  28
HETATM   28  C12 UNL     1       9.161   8.486  25.608  1.00  0.00    -0.052 A 
HETATM   29  C13 UNL     1      10.162   9.021  24.861  1.00  0.00     0.007 A 
HETATM   30  C14 UNL     1      11.473   8.620  25.124  1.00  0.00     0.001 A 
HETATM   31  C15 UNL     1      11.768   7.704  26.104  1.00  0.00     0.000 A 
HETATM   32  C16 UNL     1      10.743   7.168  26.855  1.00  0.00     0.001 A 
HETATM   33  C17 UNL     1       9.463   7.579  26.587  1.00  0.00     0.007 A 
ENDBRANCH  27  28
ENDBRANCH   9  27
TORSDOF 5
ENDMDL
MODEL 4
REMARK VINA RESULT: -8.889913719      3.223      8.600
REMARK  5 active torsions:
REMARK  status: ('A' for Active; 'I' for Inactive)
REMARK    1  A    between atoms: C2_2  and  C3_3 
REMARK    2  A    between atoms: C5_5  and  C6_6 
REMARK    3  A    between atoms: C7_10  and  C8_11 
REMARK       I    between atoms: C8_11  and  N2_13 
REMARK       I    between atoms: C9_15  and  N4_17 
REMARK    4  A    between atoms: C10_19  and  C11_21 
REMARK    5  A    between atoms: C11_21  and  C12_22 
ROOT
HETATM    1  C8  UNL     1       7.535   6.113  20.005  1.00  0.00     0.256 C 
HETATM    2  O1  UNL     1       7.346   7.100  19.253  1.00  0.00    -0.271 OA
HETATM    3  N2  UNL     1       7.868   6.408  21.390  1.00  0.00    -0.299 N 
ATOM      4  H2  UNL     1       7.578   5.811  22.164  1.00  0.00     0.171 HD
HETATM    5  C9  UNL     1       8.554   7.477  21.564  1.00  0.00     0.195 C 
HETATM    6  N3  UNL     1       8.929   8.300  20.396  1.00  0.00    -0.063 NA
HETATM    7  N4  UNL     1       9.161   8.036  22.705  1.00  0.00    -0.328 N 
ATOM      8  H4  UNL     1       9.971   7.581  23.124  1.00  0.00     0.169 HD
HETATM    9  C10 UNL     1       8.700   9.110  23.214  1.00  0.00     0.063 C 
HETATM   10 BR1  UNL     1       7.164   9.938  22.450  1.00  0.00    -0.036 Br
ENDROOT
BRANCH   1  11
HETATM   11  C7  UNL     1       7.454   4.742  19.448  1.00  0.00     0.301 C 
HETATM   12  N1  UNL     1       7.873   4.791  18.084  1.00  0.00    -0.043 N 
HETATM   13  C6  UNL     1       7.404   3.689  17.352  1.00  0.00     0.313 C 
ATOM     14  H12 UNL     1       8.886   4.881  18.011  1.00  0.00     0.279 HD
ATOM     15  H11 UNL     1       7.602   5.671  17.645  1.00  0.00     0.279 HD
HETATM   16  S1  UNL     1       5.772   3.428  17.938  1.00  0.00     0.184 S 
HETATM   17  C18 UNL     1       5.995   4.346  19.474  1.00  0.00     0.096 C 
HETATM   18  O2  UNL     1       5.484   2.007  18.164  1.00  0.00    -0.225 OA
HETATM   19  O3  UNL     1       4.761   4.095  17.048  1.00  0.00    -0.225 OA
HETATM   20  C19 UNL     1       5.634   3.416  20.593  1.00  0.00     0.034 C 
HETATM   21  C20 UNL     1       4.977   5.421  19.399  1.00  0.00     0.034 C 
BRANCH  13  22
HETATM   22  C5  UNL     1       8.187   2.436  17.284  1.00  0.00     0.036 A 
HETATM   23  C3  UNL     1       9.649   2.357  17.484  1.00  0.00    -0.007 A 
HETATM   24  C4  UNL     1       9.153   2.381  16.062  1.00  0.00     0.013 A 
BRANCH  23  25
HETATM   25  C2  UNL     1      10.327   1.049  17.844  1.00  0.00     0.000 C 
HETATM   26  C1  UNL     1       9.371   0.247  18.727  1.00  0.00     0.005 C 
ENDBRANCH  23  25
ENDBRANCH  13  22
ENDBRANCH   1  11
BRANCH   9  27
HETATM   27  C11 UNL     1       9.396   9.891  24.314  1.00  0.00     0.103 C 
BRANCH  27  28
HETATM   28  C12 UNL     1      10.031   8.831  25.198  1.00  0.00    -0.052 A 
HETATM   29  C13 UNL     1       9.258   8.113  26.055  1.00  0.00     0.007 A 
HETATM   30  C14 UNL     1       9.884   7.207  26.913  1.00  0.00     0.001 A 
HETATM   31  C15 UNL     1      11.246   7.033  26.916  1.00  0.00     0.000 A 
HETATM   32  C16 UNL     1      12.020   7.768  26.042  1.00  0.00     0.001 A 
HETATM   33  C17 UNL     1      11.387   8.648  25.202  1.00  0.00     0.007 A 
ENDBRANCH  27  28
ENDBRANCH   9  27
TORSDOF 5
ENDMDL
MODEL 5
REMARK VINA RESULT: -8.446557100      1.028      1.206
REMARK  5 active torsions:
REMARK  status: ('A' for Active; 'I' for Inactive)
REMARK    1  A    between atoms: C2_2  and  C3_3 
REMARK    2  A    between atoms: C5_5  and  C6_6 
REMARK    3  A    between atoms: C7_10  and  C8_11 
REMARK       I    between atoms: C8_11  and  N2_13 
REMARK       I    between atoms: C9_15  and  N4_17 
REMARK    4  A    between atoms: C10_19  and  C11_21 
REMARK    5  A    between atoms: C11_21  and  C12_22 
ROOT
HETATM    1  C8  UNL     1       6.588   7.455  20.824  1.00  0.00     0.256 C 
HETATM    2  O1  UNL     1       5.779   7.988  20.026  1.00  0.00    -0.271 OA
HETATM    3  N2  UNL     1       7.105   6.148  20.446  1.00  0.00    -0.299 N 
ATOM      4  H2  UNL     1       8.048   5.842  20.685  1.00  0.00     0.171 HD
HETATM    5  C9  UNL     1       6.286   5.413  19.790  1.00  0.00     0.195 C 
HETATM    6  N3  UNL     1       4.939   5.930  19.470  1.00  0.00    -0.063 NA
HETATM    7  N4  UNL     1       6.356   4.077  19.354  1.00  0.00    -0.328 N 
ATOM      8  H4  UNL     1       6.320   3.318  20.033  1.00  0.00     0.169 HD
HETATM    9  C10 UNL     1       6.464   3.813  18.112  1.00  0.00     0.063 C 
HETATM   10 BR1  UNL     1       6.568   5.235  16.847  1.00  0.00    -0.036 Br
ENDROOT
BRANCH   1  11
HETATM   11  C7  UNL     1       6.929   8.145  22.090  1.00  0.00     0.301 C 
HETATM   12  N1  UNL     1       7.486   7.183  22.985  1.00  0.00    -0.043 N 
HETATM   13  C6  UNL     1       7.408   7.604  24.322  1.00  0.00     0.313 C 
ATOM     14  H12 UNL     1       8.444   6.947  22.726  1.00  0.00     0.279 HD
ATOM     15  H11 UNL     1       7.056   6.267  22.859  1.00  0.00     0.279 HD
HETATM   16  S1  UNL     1       5.838   8.372  24.455  1.00  0.00     0.184 S 
HETATM   17  C18 UNL     1       5.627   8.636  22.684  1.00  0.00     0.096 C 
HETATM   18  O2  UNL     1       5.896   9.628  25.212  1.00  0.00    -0.225 OA
HETATM   19  O3  UNL     1       4.808   7.416  24.988  1.00  0.00    -0.225 OA
HETATM   20  C19 UNL     1       5.382  10.102  22.489  1.00  0.00     0.034 C 
HETATM   21  C20 UNL     1       4.386   7.895  22.357  1.00  0.00     0.034 C 
BRANCH  13  22
HETATM   22  C5  UNL     1       8.488   8.416  24.925  1.00  0.00     0.036 A 
HETATM   23  C3  UNL     1       9.854   7.918  25.188  1.00  0.00    -0.007 A 
HETATM   24  C4  UNL     1       8.896   7.934  26.349  1.00  0.00     0.013 A 
BRANCH  23  25
HETATM   25  C2  UNL     1      11.018   8.872  25.378  1.00  0.00     0.000 C 
HETATM   26  C1  UNL     1      12.256   8.043  25.725  1.00  0.00     0.005 C 
ENDBRANCH  23  25
ENDBRANCH  13  22
ENDBRANCH   1  11
BRANCH   9  27
HETATM   27  C11 UNL     1       6.350   2.416  17.530  1.00  0.00     0.103 C 
BRANCH  27  28
HETATM   28  C12 UNL     1       7.724   1.799  17.734  1.00  0.00    -0.052 A 
HETATM   29  C13 UNL     1       7.855   0.673  18.483  1.00  0.00     0.007 A 
HETATM   30  C14 UNL     1       9.139   0.181  18.721  1.00  0.00     0.001 A 
HETATM   31  C15 UNL     1      10.258   0.805  18.227  1.00  0.00     0.000 A 
HETATM   32  C16 UNL     1      10.112   1.947  17.468  1.00  0.00     0.001 A 
HETATM   33  C17 UNL     1       8.843   2.412  17.240  1.00  0.00     0.007 A 
ENDBRANCH  27  28
ENDBRANCH   9  27
TORSDOF 5
ENDMDL
