MODEL 1
REMARK VINA RESULT: -8.139243868      0.000      0.000
REMARK  6 active torsions:
REMARK  status: ('A' for Active; 'I' for Inactive)
REMARK    1  A    between atoms: C2_2  and  C3_3 
REMARK    2  A    between atoms: C2_2  and  C5_6 
REMARK    3  A    between atoms: C5_6  and  N1_7 
REMARK    4  A    between atoms: C8_10  and  N2_11 
REMARK       I    between atoms: N2_11  and  C9_13 
REMARK    5  A    between atoms: C9_13  and  C10_15 
REMARK       I    between atoms: N3_18  and  C13_19 
REMARK       I    between atoms: C13_19  and  N4_21 
REMARK    6  A    between atoms: N4_21  and  C14_23 
ROOT
HETATM    1  C3  UNL     1      12.382   7.432  26.419  1.00  0.00    -0.035 C 
HETATM    2  C4  UNL     1      13.581   7.384  26.194  1.00  0.00     0.111 C 
HETATM    3  F1  UNL     1      14.891   7.354  25.956  1.00  0.00    -0.143 F 
ENDROOT
BRANCH   1   4
HETATM    4  C2  UNL     1      10.947   7.491  26.650  1.00  0.00     0.017 C 
HETATM    5  C1  UNL     1      10.455   6.542  27.448  1.00  0.00     0.030 C 
BRANCH   4   6
HETATM    6  C5  UNL     1      10.083   8.535  26.066  1.00  0.00     0.319 C 
BRANCH   6   7
HETATM    7  N1  UNL     1       9.358   8.169  24.902  1.00  0.00     0.096 N 
HETATM    8  C6  UNL     1       7.919   8.448  25.056  1.00  0.00     0.275 C 
HETATM    9  C7  UNL     1       7.104   7.566  24.141  1.00  0.00     0.058 C 
HETATM   10  C8  UNL     1       7.913   7.370  22.882  1.00  0.00     0.121 C 
HETATM   11  C26 UNL     1       8.671   8.652  22.647  1.00  0.00     0.221 C 
HETATM   12  F2  UNL     1       9.182   8.712  21.365  1.00  0.00    -0.245 F 
HETATM   13  C27 UNL     1       9.804   8.727  23.664  1.00  0.00     0.311 C 
BRANCH  10  14
HETATM   14  N2  UNL     1       7.164   6.923  21.759  1.00  0.00    -0.353 N 
HETATM   15  C9  UNL     1       7.220   5.610  21.220  1.00  0.00     0.222 C 
HETATM   16  O1  UNL     1       7.974   4.772  21.756  1.00  0.00    -0.273 OA
ATOM     17  H2  UNL     1       6.541   7.592  21.308  1.00  0.00     0.163 HD
BRANCH  15  18
HETATM   18  C10 UNL     1       6.414   5.204  20.047  1.00  0.00     0.081 C 
HETATM   19  C11 UNL     1       7.385   4.731  19.003  1.00  0.00     0.034 C 
HETATM   20  C12 UNL     1       6.814   4.616  17.635  1.00  0.00     0.128 C 
HETATM   21  N3  UNL     1       6.013   5.745  17.291  1.00  0.00    -0.334 N 
HETATM   22  C13 UNL     1       5.331   5.790  16.052  1.00  0.00     0.318 C 
HETATM   23  C24 UNL     1       5.902   6.836  18.210  1.00  0.00     0.128 C 
HETATM   24  O2  UNL     1       4.624   6.807  15.770  1.00  0.00    -0.247 OA
HETATM   25  N4  UNL     1       5.446   4.716  15.155  1.00  0.00    -0.334 N 
ATOM     26  H4  UNL     1       6.026   3.919  15.420  1.00  0.00     0.165 HD
HETATM   27  C25 UNL     1       5.597   6.385  19.617  1.00  0.00     0.034 C 
BRANCH  25  28
HETATM   28  C14 UNL     1       4.788   4.692  13.888  1.00  0.00     0.035 C 
HETATM   29  C15 UNL     1       3.307   4.601  14.046  1.00  0.00     0.035 C 
HETATM   30  C16 UNL     1       2.635   4.398  12.683  1.00  0.00    -0.012 C 
HETATM   31  C17 UNL     1       3.151   3.141  12.041  1.00  0.00     0.009 C 
HETATM   32  C21 UNL     1       2.902   5.637  11.870  1.00  0.00     0.009 C 
HETATM   33  C18 UNL     1       4.641   3.329  11.844  1.00  0.00    -0.012 C 
HETATM   34  C19 UNL     1       4.917   4.539  11.007  1.00  0.00     0.009 C 
HETATM   35  C23 UNL     1       5.273   3.418  13.186  1.00  0.00     0.035 C 
HETATM   36  C20 UNL     1       4.388   5.784  11.706  1.00  0.00    -0.012 C 
HETATM   37  C22 UNL     1       5.112   5.893  13.022  1.00  0.00     0.035 C 
ENDBRANCH  25  28
ENDBRANCH  15  18
ENDBRANCH  10  14
ENDBRANCH   6   7
ENDBRANCH   4   6
ENDBRANCH   1   4
TORSDOF 6
ENDMDL
MODEL 2
REMARK VINA RESULT: -8.091553146      0.168      1.215
REMARK  6 active torsions:
REMARK  status: ('A' for Active; 'I' for Inactive)
REMARK    1  A    between atoms: C2_2  and  C3_3 
REMARK    2  A    between atoms: C2_2  and  C5_6 
REMARK    3  A    between atoms: C5_6  and  N1_7 
REMARK    4  A    between atoms: C8_10  and  N2_11 
REMARK       I    between atoms: N2_11  and  C9_13 
REMARK    5  A    between atoms: C9_13  and  C10_15 
REMARK       I    between atoms: N3_18  and  C13_19 
REMARK       I    between atoms: C13_19  and  N4_21 
REMARK    6  A    between atoms: N4_21  and  C14_23 
ROOT
HETATM    1  C3  UNL     1      12.301   7.482  26.407  1.00  0.00    -0.035 C 
HETATM    2  C4  UNL     1      13.501   7.424  26.193  1.00  0.00     0.111 C 
HETATM    3  F1  UNL     1      14.814   7.379  25.974  1.00  0.00    -0.143 F 
ENDROOT
BRANCH   1   4
HETATM    4  C2  UNL     1      10.866   7.568  26.629  1.00  0.00     0.017 C 
HETATM    5  C1  UNL     1      10.359   6.656  27.460  1.00  0.00     0.030 C 
BRANCH   4   6
HETATM    6  C5  UNL     1      10.018   8.600  26.002  1.00  0.00     0.319 C 
BRANCH   6   7
HETATM    7  N1  UNL     1       9.288   8.199  24.853  1.00  0.00     0.096 N 
HETATM    8  C6  UNL     1       7.868   8.575  24.960  1.00  0.00     0.275 C 
HETATM    9  C7  UNL     1       7.013   7.682  24.092  1.00  0.00     0.058 C 
HETATM   10  C8  UNL     1       7.826   7.349  22.866  1.00  0.00     0.121 C 
HETATM   11  C26 UNL     1       8.666   8.563  22.558  1.00  0.00     0.221 C 
HETATM   12  F2  UNL     1       9.198   8.502  21.285  1.00  0.00    -0.245 F 
HETATM   13  C27 UNL     1       9.786   8.641  23.588  1.00  0.00     0.311 C 
BRANCH  10  14
HETATM   14  N2  UNL     1       7.067   6.871  21.763  1.00  0.00    -0.353 N 
HETATM   15  C9  UNL     1       7.242   5.602  21.150  1.00  0.00     0.222 C 
HETATM   16  O1  UNL     1       8.119   4.835  21.597  1.00  0.00    -0.273 OA
ATOM     17  H2  UNL     1       6.345   7.483  21.384  1.00  0.00     0.163 HD
BRANCH  15  18
HETATM   18  C10 UNL     1       6.420   5.160  20.001  1.00  0.00     0.081 C 
HETATM   19  C11 UNL     1       7.375   4.658  18.957  1.00  0.00     0.034 C 
HETATM   20  C12 UNL     1       6.784   4.503  17.602  1.00  0.00     0.128 C 
HETATM   21  N3  UNL     1       5.974   5.620  17.238  1.00  0.00    -0.334 N 
HETATM   22  C13 UNL     1       5.274   5.627  16.009  1.00  0.00     0.318 C 
HETATM   23  C24 UNL     1       5.876   6.737  18.126  1.00  0.00     0.128 C 
HETATM   24  O2  UNL     1       4.560   6.634  15.708  1.00  0.00    -0.247 OA
HETATM   25  N4  UNL     1       5.378   4.527  15.142  1.00  0.00    -0.334 N 
ATOM     26  H4  UNL     1       5.963   3.740  15.421  1.00  0.00     0.165 HD
HETATM   27  C25 UNL     1       5.593   6.327  19.550  1.00  0.00     0.034 C 
BRANCH  25  28
HETATM   28  C14 UNL     1       4.700   4.465  13.886  1.00  0.00     0.035 C 
HETATM   29  C15 UNL     1       5.028   3.207  13.153  1.00  0.00     0.035 C 
HETATM   30  C16 UNL     1       4.435   3.241  11.740  1.00  0.00    -0.012 C 
HETATM   31  C17 UNL     1       4.980   4.420  10.985  1.00  0.00     0.009 C 
HETATM   32  C21 UNL     1       2.937   3.269  11.890  1.00  0.00     0.009 C 
HETATM   33  C18 UNL     1       4.551   5.661  11.740  1.00  0.00    -0.012 C 
HETATM   34  C19 UNL     1       3.061   5.717  11.865  1.00  0.00     0.009 C 
HETATM   35  C23 UNL     1       5.226   5.647  13.064  1.00  0.00     0.035 C 
HETATM   36  C20 UNL     1       2.560   4.511  12.648  1.00  0.00    -0.012 C 
HETATM   37  C22 UNL     1       3.193   4.576  14.012  1.00  0.00     0.035 C 
ENDBRANCH  25  28
ENDBRANCH  15  18
ENDBRANCH  10  14
ENDBRANCH   6   7
ENDBRANCH   4   6
ENDBRANCH   1   4
TORSDOF 6
ENDMDL
MODEL 3
REMARK VINA RESULT: -8.068185309      3.312      4.124
REMARK  6 active torsions:
REMARK  status: ('A' for Active; 'I' for Inactive)
REMARK    1  A    between atoms: C2_2  and  C3_3 
REMARK    2  A    between atoms: C2_2  and  C5_6 
REMARK    3  A    between atoms: C5_6  and  N1_7 
REMARK    4  A    between atoms: C8_10  and  N2_11 
REMARK       I    between atoms: N2_11  and  C9_13 
REMARK    5  A    between atoms: C9_13  and  C10_15 
REMARK       I    between atoms: N3_18  and  C13_19 
REMARK       I    between atoms: C13_19  and  N4_21 
REMARK    6  A    between atoms: N4_21  and  C14_23 
ROOT
HETATM    1  C3  UNL     1      11.680   7.688  26.301  1.00  0.00    -0.035 C 
HETATM    2  C4  UNL     1      12.876   7.445  26.333  1.00  0.00     0.111 C 
HETATM    3  F1  UNL     1      14.181   7.182  26.345  1.00  0.00    -0.143 F 
ENDROOT
BRANCH   1   4
HETATM    4  C2  UNL     1      10.248   7.940  26.271  1.00  0.00     0.017 C 
HETATM    5  C1  UNL     1       9.535   7.311  27.207  1.00  0.00     0.030 C 
BRANCH   4   6
HETATM    6  C5  UNL     1       9.614   8.844  25.292  1.00  0.00     0.319 C 
BRANCH   6   7
HETATM    7  N1  UNL     1       9.026   8.225  24.158  1.00  0.00     0.096 N 
HETATM    8  C6  UNL     1       7.563   8.404  24.147  1.00  0.00     0.275 C 
HETATM    9  C7  UNL     1       6.899   7.313  23.340  1.00  0.00     0.058 C 
HETATM   10  C8  UNL     1       7.832   6.976  22.204  1.00  0.00     0.121 C 
HETATM   11  C26 UNL     1       8.518   8.259  21.807  1.00  0.00     0.221 C 
HETATM   12  F2  UNL     1       9.139   8.142  20.579  1.00  0.00    -0.245 F 
HETATM   13  C27 UNL     1       9.544   8.601  22.880  1.00  0.00     0.311 C 
BRANCH  10  14
HETATM   14  N2  UNL     1       7.222   6.282  21.122  1.00  0.00    -0.353 N 
HETATM   15  C9  UNL     1       7.421   4.907  20.829  1.00  0.00     0.222 C 
HETATM   16  O1  UNL     1       8.180   4.240  21.561  1.00  0.00    -0.273 OA
ATOM     17  H2  UNL     1       6.598   6.810  20.513  1.00  0.00     0.163 HD
BRANCH  15  18
HETATM   18  C10 UNL     1       6.757   4.240  19.686  1.00  0.00     0.081 C 
HETATM   19  C11 UNL     1       6.388   2.860  20.149  1.00  0.00     0.034 C 
HETATM   20  C12 UNL     1       6.038   1.915  19.056  1.00  0.00     0.128 C 
HETATM   21  N3  UNL     1       6.951   1.995  17.963  1.00  0.00    -0.334 N 
HETATM   22  C13 UNL     1       6.746   1.217  16.799  1.00  0.00     0.318 C 
HETATM   23  C24 UNL     1       8.080   2.869  18.051  1.00  0.00     0.128 C 
HETATM   24  O2  UNL     1       7.574   1.307  15.840  1.00  0.00    -0.247 OA
HETATM   25  N4  UNL     1       5.637   0.360  16.721  1.00  0.00    -0.334 N 
ATOM     26  H4  UNL     1       4.997   0.317  17.515  1.00  0.00     0.165 HD
HETATM   27  C25 UNL     1       7.711   4.253  18.528  1.00  0.00     0.034 C 
BRANCH  25  28
HETATM   28  C14 UNL     1       5.367  -0.455  15.580  1.00  0.00     0.035 C 
HETATM   29  C15 UNL     1       5.373   0.350  14.323  1.00  0.00     0.035 C 
HETATM   30  C16 UNL     1       4.909  -0.504  13.138  1.00  0.00    -0.012 C 
HETATM   31  C17 UNL     1       3.523  -1.025  13.395  1.00  0.00     0.009 C 
HETATM   32  C21 UNL     1       5.930  -1.594  12.951  1.00  0.00     0.009 C 
HETATM   33  C18 UNL     1       3.602  -1.888  14.637  1.00  0.00    -0.012 C 
HETATM   34  C19 UNL     1       4.591  -2.997  14.450  1.00  0.00     0.009 C 
HETATM   35  C23 UNL     1       3.952  -1.010  15.784  1.00  0.00     0.035 C 
HETATM   36  C20 UNL     1       5.978  -2.419  14.207  1.00  0.00    -0.012 C 
HETATM   37  C22 UNL     1       6.339  -1.608  15.423  1.00  0.00     0.035 C 
ENDBRANCH  25  28
ENDBRANCH  15  18
ENDBRANCH  10  14
ENDBRANCH   6   7
ENDBRANCH   4   6
ENDBRANCH   1   4
TORSDOF 6
ENDMDL
MODEL 4
REMARK VINA RESULT: -7.989030891      3.297      3.948
REMARK  6 active torsions:
REMARK  status: ('A' for Active; 'I' for Inactive)
REMARK    1  A    between atoms: C2_2  and  C3_3 
REMARK    2  A    between atoms: C2_2  and  C5_6 
REMARK    3  A    between atoms: C5_6  and  N1_7 
REMARK    4  A    between atoms: C8_10  and  N2_11 
REMARK       I    between atoms: N2_11  and  C9_13 
REMARK    5  A    between atoms: C9_13  and  C10_15 
REMARK       I    between atoms: N3_18  and  C13_19 
REMARK       I    between atoms: C13_19  and  N4_21 
REMARK    6  A    between atoms: N4_21  and  C14_23 
ROOT
HETATM    1  C3  UNL     1      11.759   7.682  26.228  1.00  0.00    -0.035 C 
HETATM    2  C4  UNL     1      12.955   7.440  26.289  1.00  0.00     0.111 C 
HETATM    3  F1  UNL     1      14.257   7.167  26.334  1.00  0.00    -0.143 F 
ENDROOT
BRANCH   1   4
HETATM    4  C2  UNL     1      10.329   7.941  26.178  1.00  0.00     0.017 C 
HETATM    5  C1  UNL     1       9.600   7.313  27.102  1.00  0.00     0.030 C 
BRANCH   4   6
HETATM    6  C5  UNL     1       9.713   8.851  25.194  1.00  0.00     0.319 C 
BRANCH   6   7
HETATM    7  N1  UNL     1       9.080   8.236  24.083  1.00  0.00     0.096 N 
HETATM    8  C6  UNL     1       7.617   8.403  24.138  1.00  0.00     0.275 C 
HETATM    9  C7  UNL     1       6.925   7.312  23.355  1.00  0.00     0.058 C 
HETATM   10  C8  UNL     1       7.810   6.989  22.175  1.00  0.00     0.121 C 
HETATM   11  C26 UNL     1       8.467   8.280  21.757  1.00  0.00     0.221 C 
HETATM   12  F2  UNL     1       9.034   8.177  20.501  1.00  0.00    -0.245 F 
HETATM   13  C27 UNL     1       9.537   8.624  22.786  1.00  0.00     0.311 C 
BRANCH  10  14
HETATM   14  N2  UNL     1       7.157   6.298  21.117  1.00  0.00    -0.353 N 
HETATM   15  C9  UNL     1       7.368   4.932  20.792  1.00  0.00     0.222 C 
HETATM   16  O1  UNL     1       8.180   4.271  21.472  1.00  0.00    -0.273 OA
ATOM     17  H2  UNL     1       6.490   6.821  20.550  1.00  0.00     0.163 HD
BRANCH  15  18
HETATM   18  C10 UNL     1       6.659   4.267  19.676  1.00  0.00     0.081 C 
HETATM   19  C11 UNL     1       6.357   2.868  20.131  1.00  0.00     0.034 C 
HETATM   20  C12 UNL     1       5.971   1.934  19.042  1.00  0.00     0.128 C 
HETATM   21  N3  UNL     1       6.816   2.062  17.899  1.00  0.00    -0.334 N 
HETATM   22  C13 UNL     1       6.566   1.300  16.733  1.00  0.00     0.318 C 
HETATM   23  C24 UNL     1       7.923   2.968  17.940  1.00  0.00     0.128 C 
HETATM   24  O2  UNL     1       7.334   1.432  15.730  1.00  0.00    -0.247 OA
HETATM   25  N4  UNL     1       5.480   0.411  16.703  1.00  0.00    -0.334 N 
ATOM     26  H4  UNL     1       4.889   0.334  17.530  1.00  0.00     0.165 HD
HETATM   27  C25 UNL     1       7.542   4.330  18.466  1.00  0.00     0.034 C 
BRANCH  25  28
HETATM   28  C14 UNL     1       5.167  -0.389  15.562  1.00  0.00     0.035 C 
HETATM   29  C15 UNL     1       3.873  -1.111  15.742  1.00  0.00     0.035 C 
HETATM   30  C16 UNL     1       3.644  -2.095  14.590  1.00  0.00    -0.012 C 
HETATM   31  C17 UNL     1       4.771  -3.089  14.535  1.00  0.00     0.009 C 
HETATM   32  C21 UNL     1       3.506  -1.280  13.332  1.00  0.00     0.009 C 
HETATM   33  C18 UNL     1       6.038  -2.301  14.279  1.00  0.00    -0.012 C 
HETATM   34  C19 UNL     1       5.926  -1.512  13.011  1.00  0.00     0.009 C 
HETATM   35  C23 UNL     1       6.285  -1.433  15.460  1.00  0.00     0.035 C 
HETATM   36  C20 UNL     1       4.782  -0.514  13.122  1.00  0.00    -0.012 C 
HETATM   37  C22 UNL     1       5.106   0.404  14.272  1.00  0.00     0.035 C 
ENDBRANCH  25  28
ENDBRANCH  15  18
ENDBRANCH  10  14
ENDBRANCH   6   7
ENDBRANCH   4   6
ENDBRANCH   1   4
TORSDOF 6
ENDMDL
MODEL 5
REMARK VINA RESULT: -7.962336151      6.265      7.738
REMARK  6 active torsions:
REMARK  status: ('A' for Active; 'I' for Inactive)
REMARK    1  A    between atoms: C2_2  and  C3_3 
REMARK    2  A    between atoms: C2_2  and  C5_6 
REMARK    3  A    between atoms: C5_6  and  N1_7 
REMARK    4  A    between atoms: C8_10  and  N2_11 
REMARK       I    between atoms: N2_11  and  C9_13 
REMARK    5  A    between atoms: C9_13  and  C10_15 
REMARK       I    between atoms: N3_18  and  C13_19 
REMARK       I    between atoms: C13_19  and  N4_21 
REMARK    6  A    between atoms: N4_21  and  C14_23 
ROOT
HETATM    1  C3  UNL     1       8.235   8.735  23.224  1.00  0.00    -0.035 C 
HETATM    2  C4  UNL     1       9.339   8.667  23.742  1.00  0.00     0.111 C 
HETATM    3  F1  UNL     1      10.539   8.571  24.311  1.00  0.00    -0.143 F 
ENDROOT
BRANCH   1   4
HETATM    4  C2  UNL     1       6.908   8.832  22.637  1.00  0.00     0.017 C 
HETATM    5  C1  UNL     1       5.936   9.196  23.476  1.00  0.00     0.030 C 
BRANCH   4   6
HETATM    6  C5  UNL     1       6.640   8.570  21.211  1.00  0.00     0.319 C 
BRANCH   6   7
HETATM    7  N1  UNL     1       6.780   7.223  20.784  1.00  0.00     0.096 N 
HETATM    8  C6  UNL     1       5.798   6.346  21.445  1.00  0.00     0.275 C 
HETATM    9  C7  UNL     1       6.291   4.919  21.471  1.00  0.00     0.058 C 
HETATM   10  C8  UNL     1       7.069   4.698  20.198  1.00  0.00     0.121 C 
HETATM   11  C26 UNL     1       6.397   5.521  19.128  1.00  0.00     0.221 C 
HETATM   12  F2  UNL     1       6.812   5.148  17.864  1.00  0.00    -0.245 F 
HETATM   13  C27 UNL     1       6.731   6.987  19.375  1.00  0.00     0.311 C 
BRANCH  10  14
HETATM   14  N2  UNL     1       7.260   3.333  19.848  1.00  0.00    -0.353 N 
HETATM   15  C9  UNL     1       8.416   2.816  19.205  1.00  0.00     0.222 C 
HETATM   16  O1  UNL     1       9.344   3.599  18.918  1.00  0.00    -0.273 OA
ATOM     17  H2  UNL     1       6.513   2.677  20.076  1.00  0.00     0.163 HD
BRANCH  15  18
HETATM   18  C10 UNL     1       8.556   1.382  18.866  1.00  0.00     0.081 C 
HETATM   19  C11 UNL     1       9.698   1.279  17.897  1.00  0.00     0.034 C 
HETATM   20  C12 UNL     1       9.774  -0.013  17.166  1.00  0.00     0.128 C 
HETATM   21  N3  UNL     1       8.497  -0.436  16.689  1.00  0.00    -0.334 N 
HETATM   22  C13 UNL     1       8.355  -1.676  16.023  1.00  0.00     0.318 C 
HETATM   23  C24 UNL     1       7.357   0.405  16.889  1.00  0.00     0.128 C 
HETATM   24  O2  UNL     1       7.208  -2.030  15.609  1.00  0.00    -0.247 OA
HETATM   25  N4  UNL     1       9.480  -2.494  15.830  1.00  0.00    -0.334 N 
ATOM     26  H4  UNL     1      10.384  -2.173  16.177  1.00  0.00     0.165 HD
HETATM   27  C25 UNL     1       7.246   0.911  18.306  1.00  0.00     0.034 C 
BRANCH  25  28
HETATM   28  C14 UNL     1       9.413  -3.758  15.167  1.00  0.00     0.035 C 
HETATM   29  C15 UNL     1       8.676  -4.764  15.986  1.00  0.00     0.035 C 
HETATM   30  C16 UNL     1       8.768  -6.151  15.341  1.00  0.00    -0.012 C 
HETATM   31  C17 UNL     1      10.209  -6.562  15.216  1.00  0.00     0.009 C 
HETATM   32  C21 UNL     1       8.054  -6.073  14.019  1.00  0.00     0.009 C 
HETATM   33  C18 UNL     1      10.878  -5.544  14.317  1.00  0.00    -0.012 C 
HETATM   34  C19 UNL     1      10.197  -5.481  12.986  1.00  0.00     0.009 C 
HETATM   35  C23 UNL     1      10.863  -4.233  15.018  1.00  0.00     0.035 C 
HETATM   36  C20 UNL     1       8.748  -5.049  13.165  1.00  0.00    -0.012 C 
HETATM   37  C22 UNL     1       8.769  -3.682  13.796  1.00  0.00     0.035 C 
ENDBRANCH  25  28
ENDBRANCH  15  18
ENDBRANCH  10  14
ENDBRANCH   6   7
ENDBRANCH   4   6
ENDBRANCH   1   4
TORSDOF 6
ENDMDL
