MODEL 1
REMARK VINA RESULT: -7.210412010      0.000      0.000
REMARK  5 active torsions:
REMARK  status: ('A' for Active; 'I' for Inactive)
REMARK    1  A    between atoms: C2_2  and  C17_22 
REMARK       I    between atoms: N1_3  and  C3_5 
REMARK    2  A    between atoms: C3_5  and  C4_7 
REMARK       I    between atoms: C17_22  and  N2_24 
REMARK    3  A    between atoms: N2_24  and  C18_26 
REMARK    4  A    between atoms: C18_26  and  C19_27 
REMARK    5  A    between atoms: C19_27  and  N3_28 
ROOT
HETATM    1  C1  UNL     1       3.972   5.586  22.496  1.00  0.00     0.074 C 
HETATM    2  C2  UNL     1       5.358   5.689  21.929  1.00  0.00     0.076 C 
HETATM    3  N1  UNL     1       5.861   4.634  21.451  1.00  0.00    -0.326 N 
ATOM      4  H1  UNL     1       5.250   3.820  21.509  1.00  0.00     0.168 HD
HETATM    5  C3  UNL     1       7.087   4.379  20.864  1.00  0.00     0.231 C 
HETATM    6  O1  UNL     1       8.141   4.521  21.568  1.00  0.00    -0.272 OA
ENDROOT
BRANCH   5   7
HETATM    7  C4  UNL     1       7.246   3.939  19.426  1.00  0.00     0.049 C 
HETATM    8  C5  UNL     1       6.745   4.909  18.458  1.00  0.00     0.020 C 
HETATM    9  C6  UNL     1       5.507   4.719  17.710  1.00  0.00     0.002 C 
HETATM   10  C7  UNL     1       4.576   3.610  18.063  1.00  0.00     0.005 C 
HETATM   11  C8  UNL     1       5.046   2.247  17.515  1.00  0.00    -0.013 C 
HETATM   12  C9  UNL     1       4.268   1.155  18.168  1.00  0.00     0.010 C 
HETATM   13  C10 UNL     1       6.506   2.265  17.868  1.00  0.00     0.010 C 
HETATM   14  C11 UNL     1       7.293   1.066  17.508  1.00  0.00     0.077 C 
HETATM   15  C16 UNL     1       6.576   2.563  19.329  1.00  0.00     0.010 C 
HETATM   16 BR1  UNL     1       6.587   0.411  15.801  1.00  0.00    -0.089 Br
HETATM   17  C12 UNL     1       8.733   1.519  17.355  1.00  0.00     0.073 C 
HETATM   18 BR2  UNL     1      10.002   0.163  17.850  1.00  0.00    -0.090 Br
HETATM   19  C13 UNL     1       9.025   2.869  17.945  1.00  0.00     0.022 C 
HETATM   20  C14 UNL     1       8.523   3.204  19.266  1.00  0.00     0.005 C 
HETATM   21  C15 UNL     1       7.826   2.043  19.989  1.00  0.00     0.012 C 
ENDBRANCH   5   7
BRANCH   2  22
HETATM   22  C17 UNL     1       5.969   7.007  21.995  1.00  0.00     0.263 C 
HETATM   23  O2  UNL     1       5.530   7.924  21.264  1.00  0.00    -0.266 OA
HETATM   24  N2  UNL     1       7.053   7.299  22.862  1.00  0.00    -0.354 N 
ATOM     25  H2  UNL     1       7.409   6.552  23.458  1.00  0.00     0.162 HD
BRANCH  24  26
HETATM   26  C18 UNL     1       7.680   8.595  22.948  1.00  0.00     0.150 C 
BRANCH  26  27
HETATM   27  C19 UNL     1       9.184   8.548  22.894  1.00  0.00     0.249 C 
BRANCH  27  28
HETATM   28  N3  UNL     1       9.588   8.928  21.546  1.00  0.00    -0.078 N 
ATOM     29  H33 UNL     1       9.175   8.336  20.826  1.00  0.00     0.274 HD
ATOM     30  H32 UNL     1       9.181   9.812  21.244  1.00  0.00     0.274 HD
ATOM     31  H31 UNL     1      10.608   8.931  21.520  1.00  0.00     0.274 HD
ENDBRANCH  27  28
ENDBRANCH  26  27
ENDBRANCH  24  26
ENDBRANCH   2  22
TORSDOF 5
ENDMDL
MODEL 2
REMARK VINA RESULT: -7.112030719      0.747      1.012
REMARK  5 active torsions:
REMARK  status: ('A' for Active; 'I' for Inactive)
REMARK    1  A    between atoms: C2_2  and  C17_22 
REMARK       I    between atoms: N1_3  and  C3_5 
REMARK    2  A    between atoms: C3_5  and  C4_7 
REMARK       I    between atoms: C17_22  and  N2_24 
REMARK    3  A    between atoms: N2_24  and  C18_26 
REMARK    4  A    between atoms: C18_26  and  C19_27 
REMARK    5  A    between atoms: C19_27  and  N3_28 
ROOT
HETATM    1  C1  UNL     1       4.176   5.974  22.256  1.00  0.00     0.074 C 
HETATM    2  C2  UNL     1       5.596   5.812  21.795  1.00  0.00     0.076 C 
HETATM    3  N1  UNL     1       5.904   4.705  21.272  1.00  0.00    -0.326 N 
ATOM      4  H1  UNL     1       5.134   4.039  21.224  1.00  0.00     0.168 HD
HETATM    5  C3  UNL     1       7.094   4.229  20.751  1.00  0.00     0.231 C 
HETATM    6  O1  UNL     1       8.092   4.098  21.535  1.00  0.00    -0.272 OA
ENDROOT
BRANCH   5   7
HETATM    7  C4  UNL     1       7.277   3.855  19.298  1.00  0.00     0.049 C 
HETATM    8  C5  UNL     1       6.849   4.895  18.367  1.00  0.00     0.020 C 
HETATM    9  C6  UNL     1       5.628   4.800  17.576  1.00  0.00     0.002 C 
HETATM   10  C7  UNL     1       4.637   3.720  17.846  1.00  0.00     0.005 C 
HETATM   11  C8  UNL     1       5.061   2.366  17.241  1.00  0.00    -0.013 C 
HETATM   12  C9  UNL     1       4.215   1.280  17.816  1.00  0.00     0.010 C 
HETATM   13  C10 UNL     1       6.509   2.298  17.635  1.00  0.00     0.010 C 
HETATM   14  C11 UNL     1       7.251   1.083  17.236  1.00  0.00     0.077 C 
HETATM   15  C16 UNL     1       6.549   2.518  19.112  1.00  0.00     0.010 C 
HETATM   16 BR1  UNL     1       6.568   0.548  15.479  1.00  0.00    -0.089 Br
HETATM   17  C12 UNL     1       8.714   1.475  17.148  1.00  0.00     0.073 C 
HETATM   18 BR2  UNL     1       9.905   0.038  17.607  1.00  0.00    -0.090 Br
HETATM   19  C13 UNL     1       9.049   2.778  17.814  1.00  0.00     0.022 C 
HETATM   20  C14 UNL     1       8.523   3.070  19.136  1.00  0.00     0.005 C 
HETATM   21  C15 UNL     1       7.753   1.908  19.779  1.00  0.00     0.012 C 
ENDBRANCH   5   7
BRANCH   2  22
HETATM   22  C17 UNL     1       6.462   6.961  22.005  1.00  0.00     0.263 C 
HETATM   23  O2  UNL     1       6.258   8.010  21.353  1.00  0.00    -0.266 OA
HETATM   24  N2  UNL     1       7.538   6.943  22.928  1.00  0.00    -0.354 N 
ATOM     25  H2  UNL     1       7.703   6.088  23.460  1.00  0.00     0.162 HD
BRANCH  24  26
HETATM   26  C18 UNL     1       8.414   8.065  23.156  1.00  0.00     0.150 C 
BRANCH  26  27
HETATM   27  C19 UNL     1       8.785   8.264  24.602  1.00  0.00     0.249 C 
BRANCH  27  28
HETATM   28  N3  UNL     1       7.978   7.344  25.394  1.00  0.00    -0.078 N 
ATOM     29  H33 UNL     1       6.976   7.486  25.269  1.00  0.00     0.274 HD
ATOM     30  H32 UNL     1       8.021   6.384  25.054  1.00  0.00     0.274 HD
ATOM     31  H31 UNL     1       8.274   7.434  26.366  1.00  0.00     0.274 HD
ENDBRANCH  27  28
ENDBRANCH  26  27
ENDBRANCH  24  26
ENDBRANCH   2  22
TORSDOF 5
ENDMDL
MODEL 3
REMARK VINA RESULT: -6.897925225      5.830      7.868
REMARK  5 active torsions:
REMARK  status: ('A' for Active; 'I' for Inactive)
REMARK    1  A    between atoms: C2_2  and  C17_22 
REMARK       I    between atoms: N1_3  and  C3_5 
REMARK    2  A    between atoms: C3_5  and  C4_7 
REMARK       I    between atoms: C17_22  and  N2_24 
REMARK    3  A    between atoms: N2_24  and  C18_26 
REMARK    4  A    between atoms: C18_26  and  C19_27 
REMARK    5  A    between atoms: C19_27  and  N3_28 
ROOT
HETATM    1  C1  UNL     1       7.737  10.925  21.681  1.00  0.00     0.074 C 
HETATM    2  C2  UNL     1       7.566  10.063  22.897  1.00  0.00     0.076 C 
HETATM    3  N1  UNL     1       6.412  10.015  23.407  1.00  0.00    -0.326 N 
ATOM      4  H1  UNL     1       5.719  10.581  22.920  1.00  0.00     0.168 HD
HETATM    5  C3  UNL     1       5.915   9.336  24.505  1.00  0.00     0.231 C 
HETATM    6  O1  UNL     1       6.376   9.624  25.659  1.00  0.00    -0.272 OA
ENDROOT
BRANCH   5   7
HETATM    7  C4  UNL     1       4.851   8.266  24.411  1.00  0.00     0.049 C 
HETATM    8  C5  UNL     1       5.363   6.966  23.989  1.00  0.00     0.020 C 
HETATM    9  C6  UNL     1       5.131   6.414  22.659  1.00  0.00     0.002 C 
HETATM   10  C7  UNL     1       4.535   7.259  21.585  1.00  0.00     0.005 C 
HETATM   11  C8  UNL     1       3.006   7.401  21.726  1.00  0.00    -0.013 C 
HETATM   12  C9  UNL     1       2.527   8.501  20.841  1.00  0.00     0.010 C 
HETATM   13  C10 UNL     1       2.861   7.680  23.196  1.00  0.00     0.010 C 
HETATM   14  C11 UNL     1       1.489   7.907  23.698  1.00  0.00     0.077 C 
HETATM   15  C16 UNL     1       3.763   8.833  23.490  1.00  0.00     0.010 C 
HETATM   16 BR1  UNL     1       0.307   6.714  22.688  1.00  0.00    -0.089 Br
HETATM   17  C12 UNL     1       1.497   7.537  25.169  1.00  0.00     0.073 C 
HETATM   18 BR2  UNL     1       0.270   8.584  26.213  1.00  0.00    -0.090 Br
HETATM   19  C13 UNL     1       2.867   7.424  25.774  1.00  0.00     0.022 C 
HETATM   20  C14 UNL     1       3.863   8.445  25.501  1.00  0.00     0.005 C 
HETATM   21  C15 UNL     1       3.337   9.638  24.690  1.00  0.00     0.012 C 
ENDBRANCH   5   7
BRANCH   2  22
HETATM   22  C17 UNL     1       8.763   9.372  23.353  1.00  0.00     0.263 C 
HETATM   23  O2  UNL     1       9.318   8.543  22.596  1.00  0.00    -0.266 OA
HETATM   24  N2  UNL     1       9.332   9.602  24.631  1.00  0.00    -0.354 N 
ATOM     25  H2  UNL     1       8.879  10.278  25.246  1.00  0.00     0.162 HD
BRANCH  24  26
HETATM   26  C18 UNL     1      10.514   8.931  25.110  1.00  0.00     0.150 C 
BRANCH  26  27
HETATM   27  C19 UNL     1      10.293   8.125  26.363  1.00  0.00     0.249 C 
BRANCH  27  28
HETATM   28  N3  UNL     1       8.881   7.766  26.411  1.00  0.00    -0.078 N 
ATOM     29  H33 UNL     1       8.332   8.390  27.001  1.00  0.00     0.274 HD
ATOM     30  H32 UNL     1       8.394   7.949  25.534  1.00  0.00     0.274 HD
ATOM     31  H31 UNL     1       8.822   6.790  26.701  1.00  0.00     0.274 HD
ENDBRANCH  27  28
ENDBRANCH  26  27
ENDBRANCH  24  26
ENDBRANCH   2  22
TORSDOF 5
ENDMDL
MODEL 4
REMARK VINA RESULT: -6.815918716      2.093      2.492
REMARK  5 active torsions:
REMARK  status: ('A' for Active; 'I' for Inactive)
REMARK    1  A    between atoms: C2_2  and  C17_22 
REMARK       I    between atoms: N1_3  and  C3_5 
REMARK    2  A    between atoms: C3_5  and  C4_7 
REMARK       I    between atoms: C17_22  and  N2_24 
REMARK    3  A    between atoms: N2_24  and  C18_26 
REMARK    4  A    between atoms: C18_26  and  C19_27 
REMARK    5  A    between atoms: C19_27  and  N3_28 
ROOT
HETATM    1  C1  UNL     1       5.600   7.251  24.211  1.00  0.00     0.074 C 
HETATM    2  C2  UNL     1       6.261   7.532  22.893  1.00  0.00     0.076 C 
HETATM    3  N1  UNL     1       6.825   6.561  22.317  1.00  0.00    -0.326 N 
ATOM      4  H1  UNL     1       6.763   5.681  22.829  1.00  0.00     0.168 HD
HETATM    5  C3  UNL     1       7.512   6.469  21.120  1.00  0.00     0.231 C 
HETATM    6  O1  UNL     1       8.594   7.132  20.987  1.00  0.00    -0.272 OA
ENDROOT
BRANCH   5   7
HETATM    7  C4  UNL     1       7.049   5.622  19.957  1.00  0.00     0.049 C 
HETATM    8  C5  UNL     1       6.263   6.358  18.972  1.00  0.00     0.020 C 
HETATM    9  C6  UNL     1       4.820   6.205  18.832  1.00  0.00     0.002 C 
HETATM   10  C7  UNL     1       4.041   5.438  19.846  1.00  0.00     0.005 C 
HETATM   11  C8  UNL     1       4.161   3.912  19.652  1.00  0.00    -0.013 C 
HETATM   12  C9  UNL     1       3.644   3.216  20.865  1.00  0.00     0.010 C 
HETATM   13  C10 UNL     1       5.637   3.750  19.425  1.00  0.00     0.010 C 
HETATM   14  C11 UNL     1       6.133   2.371  19.226  1.00  0.00     0.077 C 
HETATM   15  C16 UNL     1       6.310   4.427  20.573  1.00  0.00     0.010 C 
HETATM   16 BR1  UNL     1       4.757   1.411  18.213  1.00  0.00    -0.089 Br
HETATM   17  C12 UNL     1       7.414   2.481  18.422  1.00  0.00     0.073 C 
HETATM   18 BR2  UNL     1       8.685   1.103  18.845  1.00  0.00    -0.090 Br
HETATM   19  C13 UNL     1       8.006   3.861  18.380  1.00  0.00     0.022 C 
HETATM   20  C14 UNL     1       8.102   4.642  19.601  1.00  0.00     0.005 C 
HETATM   21  C15 UNL     1       7.684   3.885  20.869  1.00  0.00     0.012 C 
ENDBRANCH   5   7
BRANCH   2  22
HETATM   22  C17 UNL     1       6.172   8.906  22.424  1.00  0.00     0.263 C 
HETATM   23  O2  UNL     1       5.067   9.354  22.042  1.00  0.00    -0.266 OA
HETATM   24  N2  UNL     1       7.297   9.768  22.381  1.00  0.00    -0.354 N 
ATOM     25  H2  UNL     1       8.197   9.403  22.694  1.00  0.00     0.162 HD
BRANCH  24  26
HETATM   26  C18 UNL     1       7.240  11.133  21.920  1.00  0.00     0.150 C 
BRANCH  26  27
HETATM   27  C19 UNL     1       7.805  11.333  20.538  1.00  0.00     0.249 C 
BRANCH  27  28
HETATM   28  N3  UNL     1       8.578  12.568  20.554  1.00  0.00    -0.078 N 
ATOM     29  H33 UNL     1       9.007  12.758  21.460  1.00  0.00     0.274 HD
ATOM     30  H32 UNL     1       9.438  12.506  20.010  1.00  0.00     0.274 HD
ATOM     31  H31 UNL     1       7.964  13.320  20.241  1.00  0.00     0.274 HD
ENDBRANCH  27  28
ENDBRANCH  26  27
ENDBRANCH  24  26
ENDBRANCH   2  22
TORSDOF 5
ENDMDL
MODEL 5
REMARK VINA RESULT: -6.758171479      1.963      3.248
REMARK  5 active torsions:
REMARK  status: ('A' for Active; 'I' for Inactive)
REMARK    1  A    between atoms: C2_2  and  C17_22 
REMARK       I    between atoms: N1_3  and  C3_5 
REMARK    2  A    between atoms: C3_5  and  C4_7 
REMARK       I    between atoms: C17_22  and  N2_24 
REMARK    3  A    between atoms: N2_24  and  C18_26 
REMARK    4  A    between atoms: C18_26  and  C19_27 
REMARK    5  A    between atoms: C19_27  and  N3_28 
ROOT
HETATM    1  C1  UNL     1       5.120   7.547  22.800  1.00  0.00     0.074 C 
HETATM    2  C2  UNL     1       6.203   6.911  21.978  1.00  0.00     0.076 C 
HETATM    3  N1  UNL     1       6.148   5.658  21.831  1.00  0.00    -0.326 N 
ATOM      4  H1  UNL     1       5.356   5.219  22.299  1.00  0.00     0.168 HD
HETATM    5  C3  UNL     1       6.963   4.771  21.151  1.00  0.00     0.231 C 
HETATM    6  O1  UNL     1       8.172   4.639  21.536  1.00  0.00    -0.272 OA
ENDROOT
BRANCH   5   7
HETATM    7  C4  UNL     1       6.497   3.948  19.972  1.00  0.00     0.049 C 
HETATM    8  C5  UNL     1       5.978   2.635  20.344  1.00  0.00     0.020 C 
HETATM    9  C6  UNL     1       6.708   1.395  20.105  1.00  0.00     0.002 C 
HETATM   10  C7  UNL     1       8.130   1.432  19.659  1.00  0.00     0.005 C 
HETATM   11  C8  UNL     1       8.270   1.733  18.153  1.00  0.00    -0.013 C 
HETATM   12  C9  UNL     1       9.688   2.077  17.846  1.00  0.00     0.010 C 
HETATM   13  C10 UNL     1       7.304   2.871  17.981  1.00  0.00     0.010 C 
HETATM   14  C11 UNL     1       7.195   3.452  16.625  1.00  0.00     0.077 C 
HETATM   15  C16 UNL     1       7.682   3.894  19.000  1.00  0.00     0.010 C 
HETATM   16 BR1  UNL     1       7.384   1.973  15.354  1.00  0.00    -0.089 Br
HETATM   17  C12 UNL     1       5.814   4.072  16.527  1.00  0.00     0.073 C 
HETATM   18 BR2  UNL     1       5.768   5.621  15.389  1.00  0.00    -0.090 Br
HETATM   19  C13 UNL     1       5.125   4.267  17.846  1.00  0.00     0.022 C 
HETATM   20  C14 UNL     1       5.858   4.829  18.967  1.00  0.00     0.005 C 
HETATM   21  C15 UNL     1       7.279   5.296  18.622  1.00  0.00     0.012 C 
ENDBRANCH   5   7
BRANCH   2  22
HETATM   22  C17 UNL     1       7.201   7.821  21.438  1.00  0.00     0.263 C 
HETATM   23  O2  UNL     1       8.263   8.013  22.073  1.00  0.00    -0.266 OA
HETATM   24  N2  UNL     1       7.018   8.507  20.210  1.00  0.00    -0.354 N 
ATOM     25  H2  UNL     1       6.153   8.349  19.693  1.00  0.00     0.162 HD
BRANCH  24  26
HETATM   26  C18 UNL     1       7.988   9.415  19.652  1.00  0.00     0.150 C 
BRANCH  26  27
HETATM   27  C19 UNL     1       7.755  10.857  20.020  1.00  0.00     0.249 C 
BRANCH  27  28
HETATM   28  N3  UNL     1       8.507  11.127  21.239  1.00  0.00    -0.078 N 
ATOM     29  H33 UNL     1       9.472  10.802  21.191  1.00  0.00     0.274 HD
ATOM     30  H32 UNL     1       8.706  12.118  21.372  1.00  0.00     0.274 HD
ATOM     31  H31 UNL     1       7.989  10.718  22.017  1.00  0.00     0.274 HD
ENDBRANCH  27  28
ENDBRANCH  26  27
ENDBRANCH  24  26
ENDBRANCH   2  22
TORSDOF 5
ENDMDL
