MODEL 1
REMARK VINA RESULT: -7.233537468      0.000      0.000
REMARK  6 active torsions:
REMARK  status: ('A' for Active; 'I' for Inactive)
REMARK    1  A    between atoms: C2_2  and  C3_3 
REMARK    2  A    between atoms: C3_3  and  C4_4 
REMARK       I    between atoms: C4_4  and  N1_6 
REMARK    3  A    between atoms: N1_6  and  C5_8 
REMARK       I    between atoms: N2_11  and  C8_12 
REMARK    4  A    between atoms: C8_12  and  C9_14 
REMARK       I    between atoms: N3_19  and  C14_20 
REMARK       I    between atoms: C14_20  and  N4_22 
REMARK    5  A    between atoms: N4_22  and  C15_24 
REMARK    6  A    between atoms: C15_24  and  C16_25 
ROOT
HETATM    1  C5  UNL     1       5.687   3.095  21.242  1.00  0.00     0.087 C 
HETATM    2  C6  UNL     1       4.546   3.993  20.759  1.00  0.00     0.045 C 
HETATM    3  C7  UNL     1       4.126   4.821  21.963  1.00  0.00     0.127 C 
HETATM    4  N2  UNL     1       3.581   3.946  22.979  1.00  0.00    -0.352 N 
HETATM    5  C8  UNL     1       2.883   4.403  24.131  1.00  0.00     0.224 C 
HETATM    6  O2  UNL     1       2.509   3.565  24.975  1.00  0.00    -0.273 OA
HETATM    7  C21 UNL     1       3.759   2.505  22.743  1.00  0.00     0.127 C 
HETATM    8  C22 UNL     1       5.199   2.260  22.381  1.00  0.00     0.045 C 
ENDROOT
BRANCH   5   9
HETATM    9  C9  UNL     1       2.610   5.812  24.316  1.00  0.00     0.079 C 
HETATM   10  C10 UNL     1       2.200   6.294  25.685  1.00  0.00     0.023 C 
HETATM   11  C11 UNL     1       1.441   7.407  24.924  1.00  0.00    -0.036 C 
HETATM   12  C12 UNL     1       0.159   7.801  25.531  1.00  0.00     0.029 C 
HETATM   13  C19 UNL     1       2.340   8.441  24.393  1.00  0.00     0.029 C 
HETATM   14  C20 UNL     1       1.242   6.303  23.852  1.00  0.00     0.023 C 
HETATM   15  C13 UNL     1       0.072   9.226  26.022  1.00  0.00     0.128 C 
HETATM   16  N3  UNL     1       0.690  10.060  24.969  1.00  0.00    -0.334 N 
HETATM   17  C14 UNL     1      -0.085  10.959  24.206  1.00  0.00     0.318 C 
HETATM   18  C18 UNL     1       2.089   9.863  24.830  1.00  0.00     0.128 C 
HETATM   19  O3  UNL     1      -1.300  11.006  24.494  1.00  0.00    -0.247 OA
HETATM   20  N4  UNL     1       0.460  11.741  23.200  1.00  0.00    -0.337 N 
ATOM     21  H4  UNL     1       1.458  11.602  23.037  1.00  0.00     0.164 HD
BRANCH  20  22
HETATM   22  C15 UNL     1      -0.153  12.701  22.362  1.00  0.00     0.202 C 
BRANCH  22  23
HETATM   23  C16 UNL     1       0.416  12.895  21.017  1.00  0.00     0.255 C 
HETATM   24  C17 UNL     1       1.644  12.223  20.589  1.00  0.00     0.091 C 
HETATM   25  F1  UNL     1       0.635  14.286  20.817  1.00  0.00    -0.205 F 
HETATM   26  F2  UNL     1      -0.612  12.567  20.094  1.00  0.00    -0.205 F 
ENDBRANCH  22  23
ENDBRANCH  20  22
ENDBRANCH   5   9
BRANCH   1  27
HETATM   27  N1  UNL     1       6.246   2.366  20.136  1.00  0.00    -0.356 N 
HETATM   28  C4  UNL     1       7.495   2.707  19.542  1.00  0.00     0.227 C 
HETATM   29  O1  UNL     1       8.088   3.706  20.078  1.00  0.00    -0.273 OA
ATOM     30  H1  UNL     1       5.728   1.571  19.761  1.00  0.00     0.162 HD
BRANCH  28  31
HETATM   31  C3  UNL     1       8.118   2.011  18.406  1.00  0.00     0.048 A 
HETATM   32  C23 UNL     1       7.232   1.127  17.628  1.00  0.00     0.030 A 
HETATM   33  C24 UNL     1       7.640   2.393  16.995  1.00  0.00    -0.030 A 
HETATM   34  C25 UNL     1       6.819   3.629  16.965  1.00  0.00     0.016 C 
HETATM   35  C26 UNL     1       8.614   2.214  15.835  1.00  0.00     0.016 C 
BRANCH  31  36
HETATM   36  C2  UNL     1       9.623   1.850  18.435  1.00  0.00     0.015 C 
HETATM   37  C1  UNL     1      10.052   0.396  18.431  1.00  0.00     0.006 C 
ENDBRANCH  31  36
ENDBRANCH  28  31
ENDBRANCH   1  27
TORSDOF 6
ENDMDL
MODEL 2
REMARK VINA RESULT: -7.127682026      0.871      1.644
REMARK  6 active torsions:
REMARK  status: ('A' for Active; 'I' for Inactive)
REMARK    1  A    between atoms: C2_2  and  C3_3 
REMARK    2  A    between atoms: C3_3  and  C4_4 
REMARK       I    between atoms: C4_4  and  N1_6 
REMARK    3  A    between atoms: N1_6  and  C5_8 
REMARK       I    between atoms: N2_11  and  C8_12 
REMARK    4  A    between atoms: C8_12  and  C9_14 
REMARK       I    between atoms: N3_19  and  C14_20 
REMARK       I    between atoms: C14_20  and  N4_22 
REMARK    5  A    between atoms: N4_22  and  C15_24 
REMARK    6  A    between atoms: C15_24  and  C16_25 
ROOT
HETATM    1  C5  UNL     1       6.037   3.622  20.803  1.00  0.00     0.087 C 
HETATM    2  C6  UNL     1       4.840   4.476  20.384  1.00  0.00     0.045 C 
HETATM    3  C7  UNL     1       4.381   5.200  21.640  1.00  0.00     0.127 C 
HETATM    4  N2  UNL     1       3.899   4.231  22.601  1.00  0.00    -0.352 N 
HETATM    5  C8  UNL     1       3.184   4.571  23.784  1.00  0.00     0.224 C 
HETATM    6  O2  UNL     1       2.870   3.660  24.574  1.00  0.00    -0.273 OA
HETATM    7  C21 UNL     1       4.162   2.821  22.273  1.00  0.00     0.127 C 
HETATM    8  C22 UNL     1       5.611   2.688  21.890  1.00  0.00     0.045 C 
ENDROOT
BRANCH   5   9
HETATM    9  C9  UNL     1       2.828   5.946  24.059  1.00  0.00     0.079 C 
HETATM   10  C10 UNL     1       2.453   6.326  25.470  1.00  0.00     0.023 C 
HETATM   11  C11 UNL     1       1.586   7.422  24.806  1.00  0.00    -0.036 C 
HETATM   12  C12 UNL     1       0.312   7.694  25.492  1.00  0.00     0.029 C 
HETATM   13  C19 UNL     1       2.388   8.542  24.294  1.00  0.00     0.029 C 
HETATM   14  C20 UNL     1       1.410   6.365  23.684  1.00  0.00     0.023 C 
HETATM   15  C13 UNL     1       0.154   9.082  26.065  1.00  0.00     0.128 C 
HETATM   16  N3  UNL     1       0.664  10.011  25.034  1.00  0.00    -0.334 N 
HETATM   17  C14 UNL     1      -0.206  10.893  24.358  1.00  0.00     0.318 C 
HETATM   18  C18 UNL     1       2.065   9.918  24.822  1.00  0.00     0.128 C 
HETATM   19  O3  UNL     1      -1.406  10.841  24.702  1.00  0.00    -0.247 OA
HETATM   20  N4  UNL     1       0.237  11.763  23.373  1.00  0.00    -0.337 N 
ATOM     21  H4  UNL     1       1.232  11.702  23.159  1.00  0.00     0.164 HD
BRANCH  20  22
HETATM   22  C15 UNL     1      -0.479  12.721  22.619  1.00  0.00     0.202 C 
BRANCH  22  23
HETATM   23  C16 UNL     1       0.103  13.150  21.334  1.00  0.00     0.255 C 
HETATM   24  C17 UNL     1      -0.564  12.895  20.057  1.00  0.00     0.091 C 
HETATM   25  F1  UNL     1       1.405  12.590  21.220  1.00  0.00    -0.205 F 
HETATM   26  F2  UNL     1       0.332  14.547  21.443  1.00  0.00    -0.205 F 
ENDBRANCH  22  23
ENDBRANCH  20  22
ENDBRANCH   5   9
BRANCH   1  27
HETATM   27  N1  UNL     1       6.630   3.000  19.650  1.00  0.00    -0.356 N 
HETATM   28  C4  UNL     1       7.885   3.408  19.116  1.00  0.00     0.227 C 
HETATM   29  O1  UNL     1       8.452   4.364  19.749  1.00  0.00    -0.273 OA
ATOM     30  H1  UNL     1       6.131   2.234  19.196  1.00  0.00     0.162 HD
BRANCH  28  31
HETATM   31  C3  UNL     1       8.542   2.822  17.937  1.00  0.00     0.048 A 
HETATM   32  C23 UNL     1       9.986   2.563  18.067  1.00  0.00     0.030 A 
HETATM   33  C24 UNL     1       9.093   1.392  18.073  1.00  0.00    -0.030 A 
HETATM   34  C25 UNL     1       8.622   0.691  19.294  1.00  0.00     0.016 C 
HETATM   35  C26 UNL     1       9.190   0.538  16.813  1.00  0.00     0.016 C 
BRANCH  31  36
HETATM   36  C2  UNL     1       7.853   3.004  16.601  1.00  0.00     0.015 C 
HETATM   37  C1  UNL     1       6.880   4.167  16.603  1.00  0.00     0.006 C 
ENDBRANCH  31  36
ENDBRANCH  28  31
ENDBRANCH   1  27
TORSDOF 6
ENDMDL
MODEL 3
REMARK VINA RESULT: -7.069236462      6.425      8.296
REMARK  6 active torsions:
REMARK  status: ('A' for Active; 'I' for Inactive)
REMARK    1  A    between atoms: C2_2  and  C3_3 
REMARK    2  A    between atoms: C3_3  and  C4_4 
REMARK       I    between atoms: C4_4  and  N1_6 
REMARK    3  A    between atoms: N1_6  and  C5_8 
REMARK       I    between atoms: N2_11  and  C8_12 
REMARK    4  A    between atoms: C8_12  and  C9_14 
REMARK       I    between atoms: N3_19  and  C14_20 
REMARK       I    between atoms: C14_20  and  N4_22 
REMARK    5  A    between atoms: N4_22  and  C15_24 
REMARK    6  A    between atoms: C15_24  and  C16_25 
ROOT
HETATM    1  C5  UNL     1       5.528   3.806  17.371  1.00  0.00     0.087 C 
HETATM    2  C6  UNL     1       6.915   4.271  17.818  1.00  0.00     0.045 C 
HETATM    3  C7  UNL     1       6.680   5.325  18.888  1.00  0.00     0.127 C 
HETATM    4  N2  UNL     1       6.017   6.467  18.295  1.00  0.00    -0.352 N 
HETATM    5  C8  UNL     1       5.856   7.721  18.949  1.00  0.00     0.224 C 
HETATM    6  O2  UNL     1       5.213   8.618  18.369  1.00  0.00    -0.273 OA
HETATM    7  C21 UNL     1       5.527   6.279  16.921  1.00  0.00     0.127 C 
HETATM    8  C22 UNL     1       4.760   4.985  16.866  1.00  0.00     0.045 C 
ENDROOT
BRANCH   5   9
HETATM    9  C9  UNL     1       6.429   7.948  20.258  1.00  0.00     0.079 C 
HETATM   10  C10 UNL     1       5.991   9.163  21.037  1.00  0.00     0.023 C 
HETATM   11  C11 UNL     1       7.397   9.097  21.681  1.00  0.00    -0.036 C 
HETATM   12  C12 UNL     1       8.004  10.407  21.964  1.00  0.00     0.029 C 
HETATM   13  C19 UNL     1       7.514   8.014  22.668  1.00  0.00     0.029 C 
HETATM   14  C20 UNL     1       7.824   8.566  20.287  1.00  0.00     0.023 C 
HETATM   15  C13 UNL     1       8.261  10.715  23.420  1.00  0.00     0.128 C 
HETATM   16  N3  UNL     1       8.832   9.482  24.004  1.00  0.00    -0.334 N 
HETATM   17  C14 UNL     1      10.172   9.441  24.445  1.00  0.00     0.318 C 
HETATM   18  C18 UNL     1       7.914   8.401  24.070  1.00  0.00     0.128 C 
HETATM   19  O3  UNL     1      10.815  10.505  24.322  1.00  0.00    -0.247 OA
HETATM   20  N4  UNL     1      10.743   8.297  24.979  1.00  0.00    -0.337 N 
ATOM     21  H4  UNL     1      10.130   7.482  25.009  1.00  0.00     0.164 HD
BRANCH  20  22
HETATM   22  C15 UNL     1      12.045   8.084  25.489  1.00  0.00     0.202 C 
BRANCH  22  23
HETATM   23  C16 UNL     1      12.162   7.477  26.827  1.00  0.00     0.255 C 
HETATM   24  C17 UNL     1      13.426   7.461  27.564  1.00  0.00     0.091 C 
HETATM   25  F1  UNL     1      11.731   6.124  26.747  1.00  0.00    -0.205 F 
HETATM   26  F2  UNL     1      11.183   8.107  27.641  1.00  0.00    -0.205 F 
ENDBRANCH  22  23
ENDBRANCH  20  22
ENDBRANCH   5   9
BRANCH   1  27
HETATM   27  N1  UNL     1       5.645   2.706  16.453  1.00  0.00    -0.356 N 
HETATM   28  C4  UNL     1       5.179   1.396  16.758  1.00  0.00     0.227 C 
HETATM   29  O1  UNL     1       4.634   1.275  17.910  1.00  0.00    -0.273 OA
ATOM     30  H1  UNL     1       6.081   2.870  15.545  1.00  0.00     0.162 HD
BRANCH  28  31
HETATM   31  C3  UNL     1       5.276   0.227  15.871  1.00  0.00     0.048 A 
HETATM   32  C23 UNL     1       6.022   0.430  14.617  1.00  0.00     0.030 A 
HETATM   33  C24 UNL     1       6.671  -0.385  15.658  1.00  0.00    -0.030 A 
HETATM   34  C25 UNL     1       7.687   0.116  16.617  1.00  0.00     0.016 C 
HETATM   35  C26 UNL     1       6.759  -1.868  15.312  1.00  0.00     0.016 C 
BRANCH  31  36
HETATM   36  C2  UNL     1       4.237  -0.861  16.044  1.00  0.00     0.015 C 
HETATM   37  C1  UNL     1       3.040  -0.671  15.131  1.00  0.00     0.006 C 
ENDBRANCH  31  36
ENDBRANCH  28  31
ENDBRANCH   1  27
TORSDOF 6
ENDMDL
MODEL 4
REMARK VINA RESULT: -7.068294576      5.821      7.911
REMARK  6 active torsions:
REMARK  status: ('A' for Active; 'I' for Inactive)
REMARK    1  A    between atoms: C2_2  and  C3_3 
REMARK    2  A    between atoms: C3_3  and  C4_4 
REMARK       I    between atoms: C4_4  and  N1_6 
REMARK    3  A    between atoms: N1_6  and  C5_8 
REMARK       I    between atoms: N2_11  and  C8_12 
REMARK    4  A    between atoms: C8_12  and  C9_14 
REMARK       I    between atoms: N3_19  and  C14_20 
REMARK       I    between atoms: C14_20  and  N4_22 
REMARK    5  A    between atoms: N4_22  and  C15_24 
REMARK    6  A    between atoms: C15_24  and  C16_25 
ROOT
HETATM    1  C5  UNL     1       6.701   1.054  16.326  1.00  0.00     0.087 C 
HETATM    2  C6  UNL     1       7.888   1.694  17.047  1.00  0.00     0.045 C 
HETATM    3  C7  UNL     1       7.317   2.851  17.851  1.00  0.00     0.127 C 
HETATM    4  N2  UNL     1       6.782   3.844  16.944  1.00  0.00    -0.352 N 
HETATM    5  C8  UNL     1       6.384   5.151  17.341  1.00  0.00     0.224 C 
HETATM    6  O2  UNL     1       5.877   5.906  16.488  1.00  0.00    -0.273 OA
HETATM    7  C21 UNL     1       6.693   3.439  15.533  1.00  0.00     0.127 C 
HETATM    8  C22 UNL     1       6.039   2.085  15.471  1.00  0.00     0.045 C 
ENDROOT
BRANCH   5   9
HETATM    9  C9  UNL     1       6.567   5.594  18.707  1.00  0.00     0.079 C 
HETATM   10  C10 UNL     1       5.348   5.956  19.518  1.00  0.00     0.023 C 
HETATM   11  C11 UNL     1       6.298   6.915  20.276  1.00  0.00    -0.036 C 
HETATM   12  C12 UNL     1       5.682   8.186  20.691  1.00  0.00     0.029 C 
HETATM   13  C19 UNL     1       7.193   6.206  21.201  1.00  0.00     0.029 C 
HETATM   14  C20 UNL     1       6.992   7.048  18.895  1.00  0.00     0.023 C 
HETATM   15  C13 UNL     1       5.600   8.424  22.180  1.00  0.00     0.128 C 
HETATM   16  N3  UNL     1       6.906   8.007  22.735  1.00  0.00    -0.334 N 
HETATM   17  C14 UNL     1       7.795   8.953  23.287  1.00  0.00     0.318 C 
HETATM   18  C18 UNL     1       7.142   6.609  22.654  1.00  0.00     0.128 C 
HETATM   19  O3  UNL     1       7.395  10.137  23.286  1.00  0.00    -0.247 OA
HETATM   20  N4  UNL     1       9.034   8.598  23.797  1.00  0.00    -0.337 N 
ATOM     21  H4  UNL     1       9.263   7.607  23.724  1.00  0.00     0.164 HD
BRANCH  20  22
HETATM   22  C15 UNL     1      10.030   9.398  24.404  1.00  0.00     0.202 C 
BRANCH  22  23
HETATM   23  C16 UNL     1      10.792   8.808  25.519  1.00  0.00     0.255 C 
HETATM   24  C17 UNL     1      10.203   7.825  26.428  1.00  0.00     0.091 C 
HETATM   25  F1  UNL     1      11.282   9.863  26.337  1.00  0.00    -0.205 F 
HETATM   26  F2  UNL     1      11.962   8.238  24.948  1.00  0.00    -0.205 F 
ENDBRANCH  22  23
ENDBRANCH  20  22
ENDBRANCH   5   9
BRANCH   1  27
HETATM   27  N1  UNL     1       7.121  -0.140  15.643  1.00  0.00    -0.356 N 
HETATM   28  C4  UNL     1       6.239  -1.226  15.380  1.00  0.00     0.227 C 
HETATM   29  O1  UNL     1       5.038  -1.054  15.788  1.00  0.00    -0.273 OA
ATOM     30  H1  UNL     1       8.090  -0.212  15.334  1.00  0.00     0.162 HD
BRANCH  28  31
HETATM   31  C3  UNL     1       6.605  -2.476  14.696  1.00  0.00     0.048 A 
HETATM   32  C23 UNL     1       5.489  -3.246  14.121  1.00  0.00     0.030 A 
HETATM   33  C24 UNL     1       6.376  -2.544  13.177  1.00  0.00    -0.030 A 
HETATM   34  C25 UNL     1       6.086  -1.223  12.564  1.00  0.00     0.016 C 
HETATM   35  C26 UNL     1       7.263  -3.476  12.358  1.00  0.00     0.016 C 
BRANCH  31  36
HETATM   36  C2  UNL     1       7.935  -3.101  15.064  1.00  0.00     0.015 C 
HETATM   37  C1  UNL     1       7.774  -4.422  15.791  1.00  0.00     0.006 C 
ENDBRANCH  31  36
ENDBRANCH  28  31
ENDBRANCH   1  27
TORSDOF 6
ENDMDL
MODEL 5
REMARK VINA RESULT: -7.067158001      6.425      8.514
REMARK  6 active torsions:
REMARK  status: ('A' for Active; 'I' for Inactive)
REMARK    1  A    between atoms: C2_2  and  C3_3 
REMARK    2  A    between atoms: C3_3  and  C4_4 
REMARK       I    between atoms: C4_4  and  N1_6 
REMARK    3  A    between atoms: N1_6  and  C5_8 
REMARK       I    between atoms: N2_11  and  C8_12 
REMARK    4  A    between atoms: C8_12  and  C9_14 
REMARK       I    between atoms: N3_19  and  C14_20 
REMARK       I    between atoms: C14_20  and  N4_22 
REMARK    5  A    between atoms: N4_22  and  C15_24 
REMARK    6  A    between atoms: C15_24  and  C16_25 
ROOT
HETATM    1  C5  UNL     1       3.885   1.787  21.557  1.00  0.00     0.087 C 
HETATM    2  C6  UNL     1       5.311   2.028  22.056  1.00  0.00     0.045 C 
HETATM    3  C7  UNL     1       5.454   3.534  22.206  1.00  0.00     0.127 C 
HETATM    4  N2  UNL     1       5.345   4.157  20.904  1.00  0.00    -0.352 N 
HETATM    5  C8  UNL     1       5.662   5.520  20.645  1.00  0.00     0.224 C 
HETATM    6  O2  UNL     1       5.473   5.969  19.498  1.00  0.00    -0.273 OA
HETATM    7  C21 UNL     1       4.908   3.277  19.810  1.00  0.00     0.127 C 
HETATM    8  C22 UNL     1       3.690   2.521  20.270  1.00  0.00     0.045 C 
ENDROOT
BRANCH   5   9
HETATM    9  C9  UNL     1       6.196   6.364  21.693  1.00  0.00     0.079 C 
HETATM   10  C10 UNL     1       5.919   7.845  21.637  1.00  0.00     0.023 C 
HETATM   11  C11 UNL     1       7.260   7.992  22.395  1.00  0.00    -0.036 C 
HETATM   12  C12 UNL     1       8.054   9.171  22.012  1.00  0.00     0.029 C 
HETATM   13  C19 UNL     1       7.149   7.622  23.813  1.00  0.00     0.029 C 
HETATM   14  C20 UNL     1       7.668   6.743  21.571  1.00  0.00     0.023 C 
HETATM   15  C13 UNL     1       8.281  10.195  23.098  1.00  0.00     0.128 C 
HETATM   16  N3  UNL     1       8.615   9.431  24.319  1.00  0.00    -0.334 N 
HETATM   17  C14 UNL     1       9.906   9.495  24.885  1.00  0.00     0.318 C 
HETATM   18  C18 UNL     1       7.532   8.668  24.831  1.00  0.00     0.128 C 
HETATM   19  O3  UNL     1      10.718  10.243  24.300  1.00  0.00    -0.247 OA
HETATM   20  N4  UNL     1      10.257   8.777  26.018  1.00  0.00    -0.337 N 
ATOM     21  H4  UNL     1       9.520   8.182  26.397  1.00  0.00     0.164 HD
BRANCH  20  22
HETATM   22  C15 UNL     1      11.478   8.740  26.728  1.00  0.00     0.202 C 
BRANCH  22  23
HETATM   23  C16 UNL     1      12.409   7.638  26.427  1.00  0.00     0.255 C 
HETATM   24  C17 UNL     1      13.707   7.515  27.091  1.00  0.00     0.091 C 
HETATM   25  F1  UNL     1      12.677   7.643  25.030  1.00  0.00    -0.205 F 
HETATM   26  F2  UNL     1      11.688   6.433  26.640  1.00  0.00    -0.205 F 
ENDBRANCH  22  23
ENDBRANCH  20  22
ENDBRANCH   5   9
BRANCH   1  27
HETATM   27  N1  UNL     1       3.606   0.377  21.513  1.00  0.00    -0.356 N 
HETATM   28  C4  UNL     1       2.336  -0.167  21.855  1.00  0.00     0.227 C 
HETATM   29  O1  UNL     1       1.455   0.697  22.193  1.00  0.00    -0.273 OA
ATOM     30  H1  UNL     1       4.349  -0.260  21.225  1.00  0.00     0.162 HD
BRANCH  28  31
HETATM   31  C3  UNL     1       1.989  -1.597  21.840  1.00  0.00     0.048 A 
HETATM   32  C23 UNL     1       0.573  -1.913  21.585  1.00  0.00     0.030 A 
HETATM   33  C24 UNL     1       1.529  -2.199  20.502  1.00  0.00    -0.030 A 
HETATM   34  C25 UNL     1       1.783  -1.313  19.338  1.00  0.00     0.016 C 
HETATM   35  C26 UNL     1       1.764  -3.688  20.267  1.00  0.00     0.016 C 
BRANCH  31  36
HETATM   36  C2  UNL     1       2.928  -2.544  22.557  1.00  0.00     0.015 C 
HETATM   37  C1  UNL     1       2.968  -2.300  24.053  1.00  0.00     0.006 C 
ENDBRANCH  31  36
ENDBRANCH  28  31
ENDBRANCH   1  27
TORSDOF 6
ENDMDL
