MODEL 1
REMARK VINA RESULT: -7.016998371      0.000      0.000
REMARK  9 active torsions:
REMARK  status: ('A' for Active; 'I' for Inactive)
REMARK    1  A    between atoms: C3_3  and  C4_4 
REMARK    2  A    between atoms: C5_5  and  C6_6 
REMARK    3  A    between atoms: C11_12  and  C12_13 
REMARK    4  A    between atoms: C12_13  and  C13_14 
REMARK       I    between atoms: C13_14  and  N1_16 
REMARK    5  A    between atoms: N1_16  and  C14_18 
REMARK    6  A    between atoms: C14_18  and  C15_19 
REMARK    7  A    between atoms: N2_23  and  C17_24 
REMARK    8  A    between atoms: C17_24  and  O4_25 
REMARK    9  A    between atoms: C17_24  and  C18_27 
ROOT
HETATM    1  C1  UNL     1       3.010  -1.109  23.908  1.00  0.00     0.113 C 
HETATM    2  C2  UNL     1       3.774  -0.026  23.249  1.00  0.00    -0.097 C 
HETATM    3  C3  UNL     1       4.411   0.855  22.708  1.00  0.00    -0.015 C 
ENDROOT
BRANCH   3   4
HETATM    4  C4  UNL     1       5.165   1.875  22.087  1.00  0.00    -0.009 C 
HETATM    5  C5  UNL     1       5.807   2.771  21.564  1.00  0.00    -0.049 C 
BRANCH   5   6
HETATM    6  C6  UNL     1       6.451   3.851  20.922  1.00  0.00     0.064 A 
HETATM    7  C7  UNL     1       7.413   3.475  19.965  1.00  0.00     0.032 A 
HETATM    8 BR1  UNL     1       7.735   1.597  19.655  1.00  0.00    -0.049 Br
HETATM    9  C8  UNL     1       8.109   4.403  19.266  1.00  0.00     0.021 A 
HETATM   10  C9  UNL     1       7.907   5.730  19.459  1.00  0.00     0.016 A 
HETATM   11  C10 UNL     1       6.967   6.105  20.396  1.00  0.00     0.001 A 
HETATM   12  C11 UNL     1       6.556   7.343  20.792  1.00  0.00    -0.021 A 
HETATM   13  C19 UNL     1       6.224   5.188  21.140  1.00  0.00     0.071 A 
HETATM   14  C16 UNL     1       5.617   7.178  21.727  1.00  0.00     0.107 A 
HETATM   15  N2  UNL     1       5.383   5.818  21.972  1.00  0.00    -0.303 N 
BRANCH  12  16
HETATM   16  C12 UNL     1       7.126   8.618  20.236  1.00  0.00     0.143 C 
BRANCH  16  17
HETATM   17  C13 UNL     1       8.112   9.129  21.216  1.00  0.00     0.222 C 
HETATM   18  O1  UNL     1       9.290   9.280  20.818  1.00  0.00    -0.273 OA
HETATM   19  N1  UNL     1       7.746   9.433  22.540  1.00  0.00    -0.351 N 
ATOM     20  H1  UNL     1       6.771   9.289  22.803  1.00  0.00     0.163 HD
BRANCH  19  21
HETATM   21  C14 UNL     1       8.637   9.931  23.550  1.00  0.00     0.235 C 
BRANCH  21  22
HETATM   22  C15 UNL     1       9.581   8.885  23.979  1.00  0.00     0.191 C 
HETATM   23  O2  UNL     1       9.162   7.808  24.462  1.00  0.00    -0.647 OA
HETATM   24  O3  UNL     1      10.972   9.087  23.852  1.00  0.00    -0.647 OA
ENDBRANCH  21  22
ENDBRANCH  19  21
ENDBRANCH  16  17
ENDBRANCH  12  16
BRANCH  15  25
HETATM   25  C17 UNL     1       4.429   5.463  22.935  1.00  0.00     0.132 C 
BRANCH  25  26
HETATM   26  O4  UNL     1       4.901   5.694  24.185  1.00  0.00    -0.348 OA
ATOM     27  H4  UNL     1       4.661   4.986  24.770  1.00  0.00     0.219 HD
ENDBRANCH  25  26
BRANCH  25  28
HETATM   28  C18 UNL     1       3.117   4.934  23.064  1.00  0.00     0.169 C 
HETATM   29 BR2  UNL     1       2.420   4.517  21.235  1.00  0.00    -0.088 Br
ENDBRANCH  25  28
ENDBRANCH  15  25
ENDBRANCH   5   6
ENDBRANCH   3   4
TORSDOF 9
ENDMDL
MODEL 2
REMARK VINA RESULT: -6.947197544      0.966      1.052
REMARK  9 active torsions:
REMARK  status: ('A' for Active; 'I' for Inactive)
REMARK    1  A    between atoms: C3_3  and  C4_4 
REMARK    2  A    between atoms: C5_5  and  C6_6 
REMARK    3  A    between atoms: C11_12  and  C12_13 
REMARK    4  A    between atoms: C12_13  and  C13_14 
REMARK       I    between atoms: C13_14  and  N1_16 
REMARK    5  A    between atoms: N1_16  and  C14_18 
REMARK    6  A    between atoms: C14_18  and  C15_19 
REMARK    7  A    between atoms: N2_23  and  C17_24 
REMARK    8  A    between atoms: C17_24  and  O4_25 
REMARK    9  A    between atoms: C17_24  and  C18_27 
ROOT
HETATM    1  C1  UNL     1       2.967  -1.124  24.003  1.00  0.00     0.113 C 
HETATM    2  C2  UNL     1       3.705  -0.076  23.264  1.00  0.00    -0.097 C 
HETATM    3  C3  UNL     1       4.320   0.777  22.656  1.00  0.00    -0.015 C 
ENDROOT
BRANCH   3   4
HETATM    4  C4  UNL     1       5.049   1.764  21.956  1.00  0.00    -0.009 C 
HETATM    5  C5  UNL     1       5.695   2.615  21.367  1.00  0.00    -0.049 C 
BRANCH   5   6
HETATM    6  C6  UNL     1       6.430   3.666  20.776  1.00  0.00     0.064 A 
HETATM    7  C7  UNL     1       7.443   3.249  19.893  1.00  0.00     0.032 A 
HETATM    8 BR1  UNL     1       7.710   1.358  19.606  1.00  0.00    -0.049 Br
HETATM    9  C8  UNL     1       8.227   4.145  19.248  1.00  0.00     0.021 A 
HETATM   10  C9  UNL     1       8.066   5.480  19.427  1.00  0.00     0.016 A 
HETATM   11  C10 UNL     1       7.075   5.896  20.291  1.00  0.00     0.001 A 
HETATM   12  C11 UNL     1       6.687   7.150  20.657  1.00  0.00    -0.021 A 
HETATM   13  C19 UNL     1       6.242   5.011  20.978  1.00  0.00     0.071 A 
HETATM   14  C16 UNL     1       5.675   7.026  21.519  1.00  0.00     0.107 A 
HETATM   15  N2  UNL     1       5.368   5.677  21.746  1.00  0.00    -0.303 N 
BRANCH  12  16
HETATM   16  C12 UNL     1       7.349   8.399  20.146  1.00  0.00     0.143 C 
BRANCH  16  17
HETATM   17  C13 UNL     1       8.384   8.789  21.130  1.00  0.00     0.222 C 
HETATM   18  O1  UNL     1       9.254   9.607  20.752  1.00  0.00    -0.273 OA
HETATM   19  N1  UNL     1       8.394   8.266  22.436  1.00  0.00    -0.351 N 
ATOM     20  H1  UNL     1       7.658   7.604  22.683  1.00  0.00     0.163 HD
BRANCH  19  21
HETATM   21  C14 UNL     1       9.359   8.590  23.448  1.00  0.00     0.235 C 
BRANCH  21  22
HETATM   22  C15 UNL     1       8.781   8.435  24.795  1.00  0.00     0.191 C 
HETATM   23  O2  UNL     1       9.172   7.520  25.554  1.00  0.00    -0.647 OA
HETATM   24  O3  UNL     1       7.776   9.320  25.242  1.00  0.00    -0.647 OA
ENDBRANCH  21  22
ENDBRANCH  19  21
ENDBRANCH  16  17
ENDBRANCH  12  16
BRANCH  15  25
HETATM   25  C17 UNL     1       4.332   5.364  22.634  1.00  0.00     0.132 C 
BRANCH  25  26
HETATM   26  O4  UNL     1       4.811   5.205  23.892  1.00  0.00    -0.348 OA
ATOM     27  H4  UNL     1       4.116   4.948  24.486  1.00  0.00     0.219 HD
ENDBRANCH  25  26
BRANCH  25  28
HETATM   28  C18 UNL     1       2.928   5.148  22.682  1.00  0.00     0.169 C 
HETATM   29 BR2  UNL     1       2.543   3.816  24.126  1.00  0.00    -0.088 Br
ENDBRANCH  25  28
ENDBRANCH  15  25
ENDBRANCH   5   6
ENDBRANCH   3   4
TORSDOF 9
ENDMDL
MODEL 3
REMARK VINA RESULT: -6.614243685      2.571      4.610
REMARK  9 active torsions:
REMARK  status: ('A' for Active; 'I' for Inactive)
REMARK    1  A    between atoms: C3_3  and  C4_4 
REMARK    2  A    between atoms: C5_5  and  C6_6 
REMARK    3  A    between atoms: C11_12  and  C12_13 
REMARK    4  A    between atoms: C12_13  and  C13_14 
REMARK       I    between atoms: C13_14  and  N1_16 
REMARK    5  A    between atoms: N1_16  and  C14_18 
REMARK    6  A    between atoms: C14_18  and  C15_19 
REMARK    7  A    between atoms: N2_23  and  C17_24 
REMARK    8  A    between atoms: C17_24  and  O4_25 
REMARK    9  A    between atoms: C17_24  and  C18_27 
ROOT
HETATM    1  C1  UNL     1       2.765   1.364  20.321  1.00  0.00     0.113 C 
HETATM    2  C2  UNL     1       3.269   2.558  21.035  1.00  0.00    -0.097 C 
HETATM    3  C3  UNL     1       3.681   3.544  21.612  1.00  0.00    -0.015 C 
ENDROOT
BRANCH   3   4
HETATM    4  C4  UNL     1       4.166   4.696  22.268  1.00  0.00    -0.009 C 
HETATM    5  C5  UNL     1       4.593   5.701  22.815  1.00  0.00    -0.049 C 
BRANCH   5   6
HETATM    6  C6  UNL     1       5.189   6.830  23.416  1.00  0.00     0.064 A 
HETATM    7  C7  UNL     1       4.433   7.412  24.451  1.00  0.00     0.032 A 
HETATM    8 BR1  UNL     1       2.727   6.634  24.909  1.00  0.00    -0.049 Br
HETATM    9  C8  UNL     1       4.880   8.500  25.122  1.00  0.00     0.021 A 
HETATM   10  C9  UNL     1       6.074   9.071  24.826  1.00  0.00     0.016 A 
HETATM   11  C10 UNL     1       6.820   8.506  23.813  1.00  0.00     0.001 A 
HETATM   12  C11 UNL     1       8.037   8.855  23.308  1.00  0.00    -0.021 A 
HETATM   13  C19 UNL     1       6.403   7.386  23.092  1.00  0.00     0.071 A 
HETATM   14  C16 UNL     1       8.335   7.991  22.334  1.00  0.00     0.107 A 
HETATM   15  N2  UNL     1       7.315   7.044  22.171  1.00  0.00    -0.303 N 
BRANCH  12  16
HETATM   16  C12 UNL     1       8.829  10.032  23.805  1.00  0.00     0.143 C 
BRANCH  16  17
HETATM   17  C13 UNL     1      10.051   9.504  24.453  1.00  0.00     0.222 C 
HETATM   18  O1  UNL     1      11.125   9.601  23.814  1.00  0.00    -0.273 OA
HETATM   19  N1  UNL     1      10.014   8.918  25.731  1.00  0.00    -0.351 N 
ATOM     20  H1  UNL     1       9.110   8.869  26.200  1.00  0.00     0.163 HD
BRANCH  19  21
HETATM   21  C14 UNL     1      11.150   8.383  26.427  1.00  0.00     0.235 C 
BRANCH  21  22
HETATM   22  C15 UNL     1      10.773   7.192  27.210  1.00  0.00     0.191 C 
HETATM   23  O2  UNL     1       9.586   7.012  27.563  1.00  0.00    -0.647 OA
HETATM   24  O3  UNL     1      11.751   6.240  27.570  1.00  0.00    -0.647 OA
ENDBRANCH  21  22
ENDBRANCH  19  21
ENDBRANCH  16  17
ENDBRANCH  12  16
BRANCH  15  25
HETATM   25  C17 UNL     1       7.461   6.062  21.183  1.00  0.00     0.132 C 
BRANCH  25  26
HETATM   26  O4  UNL     1       7.787   4.869  21.738  1.00  0.00    -0.348 OA
ATOM     27  H4  UNL     1       7.641   4.162  21.121  1.00  0.00     0.219 HD
ENDBRANCH  25  26
BRANCH  25  28
HETATM   28  C18 UNL     1       7.387   5.874  19.776  1.00  0.00     0.169 C 
HETATM   29 BR2  UNL     1       8.137   4.069  19.342  1.00  0.00    -0.088 Br
ENDBRANCH  25  28
ENDBRANCH  15  25
ENDBRANCH   5   6
ENDBRANCH   3   4
TORSDOF 9
ENDMDL
MODEL 4
REMARK VINA RESULT: -6.459417738      1.806      2.295
REMARK  9 active torsions:
REMARK  status: ('A' for Active; 'I' for Inactive)
REMARK    1  A    between atoms: C3_3  and  C4_4 
REMARK    2  A    between atoms: C5_5  and  C6_6 
REMARK    3  A    between atoms: C11_12  and  C12_13 
REMARK    4  A    between atoms: C12_13  and  C13_14 
REMARK       I    between atoms: C13_14  and  N1_16 
REMARK    5  A    between atoms: N1_16  and  C14_18 
REMARK    6  A    between atoms: C14_18  and  C15_19 
REMARK    7  A    between atoms: N2_23  and  C17_24 
REMARK    8  A    between atoms: C17_24  and  O4_25 
REMARK    9  A    between atoms: C17_24  and  C18_27 
ROOT
HETATM    1  C1  UNL     1       2.666  -0.593  24.030  1.00  0.00     0.113 C 
HETATM    2  C2  UNL     1       3.520   0.427  23.380  1.00  0.00    -0.097 C 
HETATM    3  C3  UNL     1       4.211   1.268  22.841  1.00  0.00    -0.015 C 
ENDROOT
BRANCH   3   4
HETATM    4  C4  UNL     1       5.005   2.244  22.201  1.00  0.00    -0.009 C 
HETATM    5  C5  UNL     1       5.678   3.087  21.629  1.00  0.00    -0.049 C 
BRANCH   5   6
HETATM    6  C6  UNL     1       6.482   3.983  20.893  1.00  0.00     0.064 A 
HETATM    7  C7  UNL     1       7.380   3.367  20.001  1.00  0.00     0.032 A 
HETATM    8 BR1  UNL     1       7.415   1.440  19.895  1.00  0.00    -0.049 Br
HETATM    9  C8  UNL     1       8.213   4.100  19.224  1.00  0.00     0.021 A 
HETATM   10  C9  UNL     1       8.214   5.455  19.273  1.00  0.00     0.016 A 
HETATM   11  C10 UNL     1       7.337   6.065  20.145  1.00  0.00     0.001 A 
HETATM   12  C11 UNL     1       7.117   7.385  20.402  1.00  0.00    -0.021 A 
HETATM   13  C19 UNL     1       6.460   5.354  20.966  1.00  0.00     0.071 A 
HETATM   14  C16 UNL     1       6.159   7.464  21.329  1.00  0.00     0.107 A 
HETATM   15  N2  UNL     1       5.720   6.188  21.710  1.00  0.00    -0.303 N 
BRANCH  12  16
HETATM   16  C12 UNL     1       7.877   8.494  19.728  1.00  0.00     0.143 C 
BRANCH  16  17
HETATM   17  C13 UNL     1       8.208   9.498  20.764  1.00  0.00     0.222 C 
HETATM   18  O1  UNL     1       9.147   9.224  21.548  1.00  0.00    -0.273 OA
HETATM   19  N1  UNL     1       7.505  10.712  20.867  1.00  0.00    -0.351 N 
ATOM     20  H1  UNL     1       6.752  10.876  20.199  1.00  0.00     0.163 HD
BRANCH  19  21
HETATM   21  C14 UNL     1       7.761  11.736  21.839  1.00  0.00     0.235 C 
BRANCH  21  22
HETATM   22  C15 UNL     1       7.771  13.068  21.209  1.00  0.00     0.191 C 
HETATM   23  O2  UNL     1       6.852  13.411  20.432  1.00  0.00    -0.647 OA
HETATM   24  O3  UNL     1       8.821  13.973  21.476  1.00  0.00    -0.647 OA
ENDBRANCH  21  22
ENDBRANCH  19  21
ENDBRANCH  16  17
ENDBRANCH  12  16
BRANCH  15  25
HETATM   25  C17 UNL     1       4.718   6.085  22.683  1.00  0.00     0.132 C 
BRANCH  25  26
HETATM   26  O4  UNL     1       5.254   5.773  23.889  1.00  0.00    -0.348 OA
ATOM     27  H4  UNL     1       5.417   4.840  23.952  1.00  0.00     0.219 HD
ENDBRANCH  25  26
BRANCH  25  28
HETATM   28  C18 UNL     1       3.312   6.192  22.855  1.00  0.00     0.169 C 
HETATM   29 BR2  UNL     1       2.697   4.667  23.997  1.00  0.00    -0.088 Br
ENDBRANCH  25  28
ENDBRANCH  15  25
ENDBRANCH   5   6
ENDBRANCH   3   4
TORSDOF 9
ENDMDL
MODEL 5
REMARK VINA RESULT: -6.444161554      1.840      3.668
REMARK  9 active torsions:
REMARK  status: ('A' for Active; 'I' for Inactive)
REMARK    1  A    between atoms: C3_3  and  C4_4 
REMARK    2  A    between atoms: C5_5  and  C6_6 
REMARK    3  A    between atoms: C11_12  and  C12_13 
REMARK    4  A    between atoms: C12_13  and  C13_14 
REMARK       I    between atoms: C13_14  and  N1_16 
REMARK    5  A    between atoms: N1_16  and  C14_18 
REMARK    6  A    between atoms: C14_18  and  C15_19 
REMARK    7  A    between atoms: N2_23  and  C17_24 
REMARK    8  A    between atoms: C17_24  and  O4_25 
REMARK    9  A    between atoms: C17_24  and  C18_27 
ROOT
HETATM    1  C1  UNL     1       3.347  -0.569  22.943  1.00  0.00     0.113 C 
HETATM    2  C2  UNL     1       3.629   0.884  22.988  1.00  0.00    -0.097 C 
HETATM    3  C3  UNL     1       3.850   2.077  23.020  1.00  0.00    -0.015 C 
ENDROOT
BRANCH   3   4
HETATM    4  C4  UNL     1       4.099   3.467  23.043  1.00  0.00    -0.009 C 
HETATM    5  C5  UNL     1       4.321   4.667  23.041  1.00  0.00    -0.049 C 
BRANCH   5   6
HETATM    6  C6  UNL     1       4.686   6.031  23.022  1.00  0.00     0.064 A 
HETATM    7  C7  UNL     1       3.873   6.867  23.810  1.00  0.00     0.032 A 
HETATM    8 BR1  UNL     1       2.401   6.086  24.785  1.00  0.00    -0.049 Br
HETATM    9  C8  UNL     1       4.105   8.198  23.892  1.00  0.00     0.021 A 
HETATM   10  C9  UNL     1       5.131   8.779  23.221  1.00  0.00     0.016 A 
HETATM   11  C10 UNL     1       5.931   7.966  22.447  1.00  0.00     0.001 A 
HETATM   12  C11 UNL     1       7.017   8.263  21.678  1.00  0.00    -0.021 A 
HETATM   13  C19 UNL     1       5.733   6.589  22.330  1.00  0.00     0.071 A 
HETATM   14  C16 UNL     1       7.447   7.126  21.127  1.00  0.00     0.107 A 
HETATM   15  N2  UNL     1       6.651   6.042  21.521  1.00  0.00    -0.303 N 
BRANCH  12  16
HETATM   16  C12 UNL     1       7.557   9.657  21.519  1.00  0.00     0.143 C 
BRANCH  16  17
HETATM   17  C13 UNL     1       8.516   9.890  22.622  1.00  0.00     0.222 C 
HETATM   18  O1  UNL     1       8.460  10.998  23.205  1.00  0.00    -0.273 OA
HETATM   19  N1  UNL     1       9.453   8.913  23.005  1.00  0.00    -0.351 N 
ATOM     20  H1  UNL     1       9.448   8.031  22.492  1.00  0.00     0.163 HD
BRANCH  19  21
HETATM   21  C14 UNL     1      10.415   9.059  24.060  1.00  0.00     0.235 C 
BRANCH  21  22
HETATM   22  C15 UNL     1       9.918   8.461  25.311  1.00  0.00     0.191 C 
HETATM   23  O2  UNL     1      10.379   8.825  26.417  1.00  0.00    -0.647 OA
HETATM   24  O3  UNL     1       8.915   7.468  25.275  1.00  0.00    -0.647 OA
ENDBRANCH  21  22
ENDBRANCH  19  21
ENDBRANCH  16  17
ENDBRANCH  12  16
BRANCH  15  25
HETATM   25  C17 UNL     1       6.958   4.767  21.028  1.00  0.00     0.132 C 
BRANCH  25  26
HETATM   26  O4  UNL     1       8.062   4.271  21.639  1.00  0.00    -0.348 OA
ATOM     27  H4  UNL     1       7.819   3.682  22.343  1.00  0.00     0.219 HD
ENDBRANCH  25  26
BRANCH  25  28
HETATM   28  C18 UNL     1       6.514   3.794  20.093  1.00  0.00     0.169 C 
HETATM   29 BR2  UNL     1       6.965   1.980  20.808  1.00  0.00    -0.088 Br
ENDBRANCH  25  28
ENDBRANCH  15  25
ENDBRANCH   5   6
ENDBRANCH   3   4
TORSDOF 9
ENDMDL
