MODEL 1
REMARK VINA RESULT: -8.031067301      0.000      0.000
REMARK  13 active torsions:
REMARK  status: ('A' for Active; 'I' for Inactive)
REMARK    1  A    between atoms: C2_2  and  O1_3 
REMARK    2  A    between atoms: O1_3  and  C3_4 
REMARK    3  A    between atoms: C3_4  and  C4_6 
REMARK    4  A    between atoms: C4_6  and  C5_7 
REMARK    5  A    between atoms: C4_6  and  N1_19 
REMARK    6  A    between atoms: C5_7  and  S1_8 
REMARK    7  A    between atoms: S1_8  and  C6_9 
REMARK    8  A    between atoms: C6_9  and  C7_10 
REMARK       I    between atoms: N1_19  and  C16_21 
REMARK    9  A    between atoms: C16_21  and  C17_23 
REMARK   10  A    between atoms: C17_23  and  N2_24 
REMARK   11  A    between atoms: C17_23  and  C19_32 
REMARK   12  A    between atoms: N2_24  and  S2_26 
REMARK   13  A    between atoms: S2_26  and  N3_29 
ROOT
HETATM    1  N1  UNL     1      -5.716  27.824   1.606  1.00  0.00    -0.345 N 
ATOM      2  H1  UNL     1      -5.206  28.056   2.458  1.00  0.00     0.163 HD
HETATM    3  C16 UNL     1      -6.887  28.553   1.335  1.00  0.00     0.242 C 
HETATM    4  O3  UNL     1      -7.553  28.263   0.302  1.00  0.00    -0.271 OA
ENDROOT
BRANCH   1   5
HETATM    5  C4  UNL     1      -5.187  26.789   0.789  1.00  0.00     0.193 C 
BRANCH   5   6
HETATM    6  C3  UNL     1      -3.725  26.776   0.689  1.00  0.00     0.282 C 
HETATM    7  O2  UNL     1      -3.109  27.824   0.366  1.00  0.00    -0.263 OA
BRANCH   6   8
HETATM    8  O1  UNL     1      -2.952  25.634   0.949  1.00  0.00    -0.320 OA
BRANCH   8   9
HETATM    9  C2  UNL     1      -2.614  24.687  -0.027  1.00  0.00     0.174 C 
HETATM   10  C1  UNL     1      -3.177  23.308   0.271  1.00  0.00     0.034 C 
ENDBRANCH   8   9
ENDBRANCH   6   8
ENDBRANCH   5   6
BRANCH   5  11
HETATM   11  C5  UNL     1      -5.692  25.418   1.283  1.00  0.00     0.109 C 
BRANCH  11  12
HETATM   12  S1  UNL     1      -6.862  24.792   0.016  1.00  0.00    -0.166 SA
BRANCH  12  13
HETATM   13  C6  UNL     1      -6.053  24.623  -1.580  1.00  0.00     0.079 C 
BRANCH  13  14
HETATM   14  C7  UNL     1      -6.444  25.759  -2.498  1.00  0.00    -0.001 C 
HETATM   15  C8  UNL     1      -7.807  25.515  -3.093  1.00  0.00     0.006 C 
HETATM   16  C9  UNL     1      -7.965  26.000  -4.506  1.00  0.00     0.000 C 
HETATM   17  C10 UNL     1      -7.754  27.461  -4.715  1.00  0.00     0.000 C 
HETATM   18  C11 UNL     1      -6.316  27.781  -5.068  1.00  0.00     0.005 C 
HETATM   19  C12 UNL     1      -5.515  27.594  -3.801  1.00  0.00    -0.010 C 
HETATM   20  C13 UNL     1      -4.016  27.527  -4.005  1.00  0.00     0.005 C 
HETATM   21  C15 UNL     1      -5.467  26.088  -3.554  1.00  0.00    -0.006 C 
HETATM   22  C14 UNL     1      -4.040  26.328  -3.086  1.00  0.00     0.006 C 
ENDBRANCH  13  14
ENDBRANCH  12  13
ENDBRANCH  11  12
ENDBRANCH   5  11
ENDBRANCH   1   5
BRANCH   3  23
HETATM   23  C17 UNL     1      -7.408  29.666   2.190  1.00  0.00     0.190 C 
BRANCH  23  24
HETATM   24  N2  UNL     1      -6.373  30.007   3.124  1.00  0.00    -0.289 N 
ATOM     25  H2  UNL     1      -6.187  29.446   3.956  1.00  0.00     0.174 HD
BRANCH  24  26
HETATM   26  S2  UNL     1      -5.477  31.404   2.757  1.00  0.00     0.315 S 
HETATM   27  O4  UNL     1      -6.034  32.135   1.544  1.00  0.00    -0.183 OA
HETATM   28  O5  UNL     1      -4.041  31.065   2.404  1.00  0.00    -0.183 OA
BRANCH  26  29
HETATM   29  N3  UNL     1      -5.390  32.532   4.055  1.00  0.00    -0.307 N 
HETATM   30  C18 UNL     1      -6.394  33.536   3.998  1.00  0.00     0.161 C 
ATOM     31  H3  UNL     1      -4.688  32.484   4.793  1.00  0.00     0.173 HD
ENDBRANCH  26  29
ENDBRANCH  24  26
ENDBRANCH  23  24
BRANCH  23  32
HETATM   32  C19 UNL     1      -8.687  29.239   2.864  1.00  0.00     0.018 C 
HETATM   33  C20 UNL     1      -9.627  30.368   3.043  1.00  0.00     0.007 C 
HETATM   34  C21 UNL     1      -9.609  31.062   4.371  1.00  0.00     0.000 C 
HETATM   35  C22 UNL     1     -10.021  30.107   5.449  1.00  0.00     0.000 C 
HETATM   36  C23 UNL     1      -9.694  28.710   5.029  1.00  0.00     0.000 C 
HETATM   37  C24 UNL     1      -8.430  28.600   4.209  1.00  0.00     0.007 C 
ENDBRANCH  23  32
ENDBRANCH   3  23
TORSDOF 13
ENDMDL
MODEL 2
REMARK VINA RESULT: -7.609802984      1.340      2.310
REMARK  13 active torsions:
REMARK  status: ('A' for Active; 'I' for Inactive)
REMARK    1  A    between atoms: C2_2  and  O1_3 
REMARK    2  A    between atoms: O1_3  and  C3_4 
REMARK    3  A    between atoms: C3_4  and  C4_6 
REMARK    4  A    between atoms: C4_6  and  C5_7 
REMARK    5  A    between atoms: C4_6  and  N1_19 
REMARK    6  A    between atoms: C5_7  and  S1_8 
REMARK    7  A    between atoms: S1_8  and  C6_9 
REMARK    8  A    between atoms: C6_9  and  C7_10 
REMARK       I    between atoms: N1_19  and  C16_21 
REMARK    9  A    between atoms: C16_21  and  C17_23 
REMARK   10  A    between atoms: C17_23  and  N2_24 
REMARK   11  A    between atoms: C17_23  and  C19_32 
REMARK   12  A    between atoms: N2_24  and  S2_26 
REMARK   13  A    between atoms: S2_26  and  N3_29 
ROOT
HETATM    1  N1  UNL     1      -5.707  27.469   1.515  1.00  0.00    -0.345 N 
ATOM      2  H1  UNL     1      -5.300  27.307   2.435  1.00  0.00     0.163 HD
HETATM    3  C16 UNL     1      -6.671  28.486   1.403  1.00  0.00     0.242 C 
HETATM    4  O3  UNL     1      -7.212  28.685   0.281  1.00  0.00    -0.271 OA
ENDROOT
BRANCH   1   5
HETATM    5  C4  UNL     1      -5.257  26.647   0.447  1.00  0.00     0.193 C 
BRANCH   5   6
HETATM    6  C3  UNL     1      -3.998  27.077  -0.167  1.00  0.00     0.282 C 
HETATM    7  O2  UNL     1      -3.053  27.482   0.558  1.00  0.00    -0.263 OA
BRANCH   6   8
HETATM    8  O1  UNL     1      -3.776  27.055  -1.553  1.00  0.00    -0.320 OA
BRANCH   8   9
HETATM    9  C2  UNL     1      -3.422  25.900  -2.264  1.00  0.00     0.174 C 
HETATM   10  C1  UNL     1      -3.819  25.966  -3.728  1.00  0.00     0.034 C 
ENDBRANCH   8   9
ENDBRANCH   6   8
ENDBRANCH   5   6
BRANCH   5  11
HETATM   11  C5  UNL     1      -5.135  25.184   0.923  1.00  0.00     0.109 C 
BRANCH  11  12
HETATM   12  S1  UNL     1      -6.514  24.255   0.149  1.00  0.00    -0.166 SA
BRANCH  12  13
HETATM   13  C6  UNL     1      -6.606  24.589  -1.615  1.00  0.00     0.079 C 
BRANCH  13  14
HETATM   14  C7  UNL     1      -7.634  25.660  -1.900  1.00  0.00    -0.001 C 
HETATM   15  C8  UNL     1      -8.635  25.747  -0.778  1.00  0.00     0.006 C 
HETATM   16  C9  UNL     1     -10.036  26.069  -1.217  1.00  0.00     0.000 C 
HETATM   17  C10 UNL     1     -10.205  27.366  -1.932  1.00  0.00     0.000 C 
HETATM   18  C11 UNL     1     -10.077  27.206  -3.433  1.00  0.00     0.005 C 
HETATM   19  C12 UNL     1      -8.612  26.961  -3.711  1.00  0.00    -0.010 C 
HETATM   20  C13 UNL     1      -8.311  26.437  -5.099  1.00  0.00     0.005 C 
HETATM   21  C15 UNL     1      -8.319  25.552  -3.202  1.00  0.00    -0.006 C 
HETATM   22  C14 UNL     1      -7.416  25.426  -4.420  1.00  0.00     0.006 C 
ENDBRANCH  13  14
ENDBRANCH  12  13
ENDBRANCH  11  12
ENDBRANCH   5  11
ENDBRANCH   1   5
BRANCH   3  23
HETATM   23  C17 UNL     1      -7.105  29.367   2.534  1.00  0.00     0.190 C 
BRANCH  23  24
HETATM   24  N2  UNL     1      -5.921  29.781   3.231  1.00  0.00    -0.289 N 
ATOM     25  H2  UNL     1      -5.488  29.205   3.954  1.00  0.00     0.174 HD
BRANCH  24  26
HETATM   26  S2  UNL     1      -5.286  31.292   2.778  1.00  0.00     0.315 S 
HETATM   27  O4  UNL     1      -6.080  31.926   1.645  1.00  0.00    -0.183 OA
HETATM   28  O5  UNL     1      -3.866  31.164   2.260  1.00  0.00    -0.183 OA
BRANCH  26  29
HETATM   29  N3  UNL     1      -5.217  32.429   4.070  1.00  0.00    -0.307 N 
HETATM   30  C18 UNL     1      -6.230  33.422   4.002  1.00  0.00     0.161 C 
ATOM     31  H3  UNL     1      -4.517  32.393   4.811  1.00  0.00     0.173 HD
ENDBRANCH  26  29
ENDBRANCH  24  26
ENDBRANCH  23  24
BRANCH  23  32
HETATM   32  C19 UNL     1      -8.075  28.626   3.416  1.00  0.00     0.018 C 
HETATM   33  C20 UNL     1      -8.947  27.713   2.644  1.00  0.00     0.007 C 
HETATM   34  C21 UNL     1     -10.296  28.233   2.249  1.00  0.00     0.000 C 
HETATM   35  C22 UNL     1     -11.109  28.518   3.474  1.00  0.00     0.000 C 
HETATM   36  C23 UNL     1     -10.197  28.826   4.618  1.00  0.00     0.000 C 
HETATM   37  C24 UNL     1      -8.945  29.569   4.216  1.00  0.00     0.007 C 
ENDBRANCH  23  32
ENDBRANCH   3  23
TORSDOF 13
ENDMDL
MODEL 3
REMARK VINA RESULT: -7.555985857      1.342      2.510
REMARK  13 active torsions:
REMARK  status: ('A' for Active; 'I' for Inactive)
REMARK    1  A    between atoms: C2_2  and  O1_3 
REMARK    2  A    between atoms: O1_3  and  C3_4 
REMARK    3  A    between atoms: C3_4  and  C4_6 
REMARK    4  A    between atoms: C4_6  and  C5_7 
REMARK    5  A    between atoms: C4_6  and  N1_19 
REMARK    6  A    between atoms: C5_7  and  S1_8 
REMARK    7  A    between atoms: S1_8  and  C6_9 
REMARK    8  A    between atoms: C6_9  and  C7_10 
REMARK       I    between atoms: N1_19  and  C16_21 
REMARK    9  A    between atoms: C16_21  and  C17_23 
REMARK   10  A    between atoms: C17_23  and  N2_24 
REMARK   11  A    between atoms: C17_23  and  C19_32 
REMARK   12  A    between atoms: N2_24  and  S2_26 
REMARK   13  A    between atoms: S2_26  and  N3_29 
ROOT
HETATM    1  N1  UNL     1      -5.625  27.515   1.685  1.00  0.00    -0.345 N 
ATOM      2  H1  UNL     1      -5.202  27.452   2.611  1.00  0.00     0.163 HD
HETATM    3  C16 UNL     1      -6.633  28.476   1.498  1.00  0.00     0.242 C 
HETATM    4  O3  UNL     1      -7.193  28.553   0.369  1.00  0.00    -0.271 OA
ENDROOT
BRANCH   1   5
HETATM    5  C4  UNL     1      -5.147  26.624   0.686  1.00  0.00     0.193 C 
BRANCH   5   6
HETATM    6  C3  UNL     1      -3.694  26.644   0.494  1.00  0.00     0.282 C 
HETATM    7  O2  UNL     1      -3.074  27.738   0.513  1.00  0.00    -0.263 OA
BRANCH   6   8
HETATM    8  O1  UNL     1      -2.933  25.482   0.292  1.00  0.00    -0.320 OA
BRANCH   8   9
HETATM    9  C2  UNL     1      -2.241  25.203  -0.894  1.00  0.00     0.174 C 
HETATM   10  C1  UNL     1      -3.056  25.514  -2.138  1.00  0.00     0.034 C 
ENDBRANCH   8   9
ENDBRANCH   6   8
ENDBRANCH   5   6
BRANCH   5  11
HETATM   11  C5  UNL     1      -5.616  25.187   0.995  1.00  0.00     0.109 C 
BRANCH  11  12
HETATM   12  S1  UNL     1      -6.385  24.537  -0.538  1.00  0.00    -0.166 SA
BRANCH  12  13
HETATM   13  C6  UNL     1      -6.645  25.851  -1.736  1.00  0.00     0.079 C 
BRANCH  13  14
HETATM   14  C7  UNL     1      -7.760  25.488  -2.690  1.00  0.00    -0.001 C 
HETATM   15  C8  UNL     1      -7.265  25.492  -4.113  1.00  0.00     0.006 C 
HETATM   16  C9  UNL     1      -8.271  25.972  -5.121  1.00  0.00     0.000 C 
HETATM   17  C10 UNL     1      -9.533  25.183  -5.197  1.00  0.00     0.000 C 
HETATM   18  C11 UNL     1     -10.607  25.740  -4.286  1.00  0.00     0.005 C 
HETATM   19  C12 UNL     1     -10.187  25.397  -2.875  1.00  0.00    -0.010 C 
HETATM   20  C13 UNL     1     -10.930  26.151  -1.794  1.00  0.00     0.005 C 
HETATM   21  C15 UNL     1      -8.990  26.294  -2.565  1.00  0.00    -0.006 C 
HETATM   22  C14 UNL     1      -9.578  26.396  -1.166  1.00  0.00     0.006 C 
ENDBRANCH  13  14
ENDBRANCH  12  13
ENDBRANCH  11  12
ENDBRANCH   5  11
ENDBRANCH   1   5
BRANCH   3  23
HETATM   23  C17 UNL     1      -7.097  29.432   2.553  1.00  0.00     0.190 C 
BRANCH  23  24
HETATM   24  N2  UNL     1      -5.936  29.869   3.273  1.00  0.00    -0.289 N 
ATOM     25  H2  UNL     1      -5.530  29.321   4.032  1.00  0.00     0.174 HD
BRANCH  24  26
HETATM   26  S2  UNL     1      -5.279  31.359   2.783  1.00  0.00     0.315 S 
HETATM   27  O4  UNL     1      -6.046  31.961   1.615  1.00  0.00    -0.183 OA
HETATM   28  O5  UNL     1      -3.851  31.202   2.295  1.00  0.00    -0.183 OA
BRANCH  26  29
HETATM   29  N3  UNL     1      -5.223  32.537   4.037  1.00  0.00    -0.307 N 
HETATM   30  C18 UNL     1      -6.306  33.455   3.998  1.00  0.00     0.161 C 
ATOM     31  H3  UNL     1      -4.484  32.572   4.739  1.00  0.00     0.173 HD
ENDBRANCH  26  29
ENDBRANCH  24  26
ENDBRANCH  23  24
BRANCH  23  32
HETATM   32  C19 UNL     1      -8.116  28.762   3.438  1.00  0.00     0.018 C 
HETATM   33  C20 UNL     1      -8.912  27.751   2.707  1.00  0.00     0.007 C 
HETATM   34  C21 UNL     1     -10.237  28.192   2.163  1.00  0.00     0.000 C 
HETATM   35  C22 UNL     1     -11.144  28.582   3.290  1.00  0.00     0.000 C 
HETATM   36  C23 UNL     1     -10.324  29.032   4.457  1.00  0.00     0.000 C 
HETATM   37  C24 UNL     1      -9.060  29.761   4.069  1.00  0.00     0.007 C 
ENDBRANCH  23  32
ENDBRANCH   3  23
TORSDOF 13
ENDMDL
MODEL 4
REMARK VINA RESULT: -7.543139808      2.960      5.385
REMARK  13 active torsions:
REMARK  status: ('A' for Active; 'I' for Inactive)
REMARK    1  A    between atoms: C2_2  and  O1_3 
REMARK    2  A    between atoms: O1_3  and  C3_4 
REMARK    3  A    between atoms: C3_4  and  C4_6 
REMARK    4  A    between atoms: C4_6  and  C5_7 
REMARK    5  A    between atoms: C4_6  and  N1_19 
REMARK    6  A    between atoms: C5_7  and  S1_8 
REMARK    7  A    between atoms: S1_8  and  C6_9 
REMARK    8  A    between atoms: C6_9  and  C7_10 
REMARK       I    between atoms: N1_19  and  C16_21 
REMARK    9  A    between atoms: C16_21  and  C17_23 
REMARK   10  A    between atoms: C17_23  and  N2_24 
REMARK   11  A    between atoms: C17_23  and  C19_32 
REMARK   12  A    between atoms: N2_24  and  S2_26 
REMARK   13  A    between atoms: S2_26  and  N3_29 
ROOT
HETATM    1  N1  UNL     1      -8.436  30.761  -0.345  1.00  0.00    -0.345 N 
ATOM      2  H1  UNL     1      -7.654  30.186  -0.657  1.00  0.00     0.163 HD
HETATM    3  C16 UNL     1      -8.699  30.801   1.035  1.00  0.00     0.242 C 
HETATM    4  O3  UNL     1      -9.680  31.482   1.444  1.00  0.00    -0.271 OA
ENDROOT
BRANCH   1   5
HETATM    5  C4  UNL     1      -9.173  31.459  -1.340  1.00  0.00     0.193 C 
BRANCH   5   6
HETATM    6  C3  UNL     1      -8.753  32.846  -1.552  1.00  0.00     0.282 C 
HETATM    7  O2  UNL     1      -7.571  33.190  -1.293  1.00  0.00    -0.263 OA
BRANCH   6   8
HETATM    8  O1  UNL     1      -9.612  33.838  -2.050  1.00  0.00    -0.320 OA
BRANCH   8   9
HETATM    9  C2  UNL     1     -11.002  33.683  -2.147  1.00  0.00     0.174 C 
HETATM   10  C1  UNL     1     -11.480  33.545  -3.582  1.00  0.00     0.034 C 
ENDBRANCH   8   9
ENDBRANCH   6   8
ENDBRANCH   5   6
BRANCH   5  11
HETATM   11  C5  UNL     1      -9.121  30.684  -2.673  1.00  0.00     0.109 C 
BRANCH  11  12
HETATM   12  S1  UNL     1      -9.440  28.921  -2.279  1.00  0.00    -0.166 SA
BRANCH  12  13
HETATM   13  C6  UNL     1      -8.740  27.844  -3.535  1.00  0.00     0.079 C 
BRANCH  13  14
HETATM   14  C7  UNL     1      -7.296  27.527  -3.220  1.00  0.00    -0.001 C 
HETATM   15  C8  UNL     1      -6.380  28.151  -4.240  1.00  0.00     0.006 C 
HETATM   16  C9  UNL     1      -5.166  27.331  -4.571  1.00  0.00     0.000 C 
HETATM   17  C10 UNL     1      -4.256  27.036  -3.428  1.00  0.00     0.000 C 
HETATM   18  C11 UNL     1      -4.604  25.726  -2.751  1.00  0.00     0.005 C 
HETATM   19  C12 UNL     1      -5.887  25.968  -1.990  1.00  0.00    -0.010 C 
HETATM   20  C13 UNL     1      -6.592  24.712  -1.525  1.00  0.00     0.005 C 
HETATM   21  C15 UNL     1      -6.982  26.096  -3.046  1.00  0.00    -0.006 C 
HETATM   22  C14 UNL     1      -7.859  25.339  -2.060  1.00  0.00     0.006 C 
ENDBRANCH  13  14
ENDBRANCH  12  13
ENDBRANCH  11  12
ENDBRANCH   5  11
ENDBRANCH   1   5
BRANCH   3  23
HETATM   23  C17 UNL     1      -7.886  30.088   2.072  1.00  0.00     0.190 C 
BRANCH  23  24
HETATM   24  N2  UNL     1      -6.505  30.353   1.788  1.00  0.00    -0.289 N 
ATOM     25  H2  UNL     1      -5.921  29.695   1.271  1.00  0.00     0.174 HD
BRANCH  24  26
HETATM   26  S2  UNL     1      -5.901  31.834   2.367  1.00  0.00     0.315 S 
HETATM   27  O4  UNL     1      -5.098  32.574   1.308  1.00  0.00    -0.183 OA
HETATM   28  O5  UNL     1      -4.950  31.628   3.531  1.00  0.00    -0.183 OA
BRANCH  26  29
HETATM   29  N3  UNL     1      -7.124  32.903   2.940  1.00  0.00    -0.307 N 
HETATM   30  C18 UNL     1      -7.246  34.087   2.165  1.00  0.00     0.161 C 
ATOM     31  H3  UNL     1      -7.703  32.705   3.756  1.00  0.00     0.173 HD
ENDBRANCH  26  29
ENDBRANCH  24  26
ENDBRANCH  23  24
BRANCH  23  32
HETATM   32  C19 UNL     1      -8.215  28.618   2.058  1.00  0.00     0.018 C 
HETATM   33  C20 UNL     1      -8.164  28.022   3.412  1.00  0.00     0.007 C 
HETATM   34  C21 UNL     1      -6.888  27.342   3.807  1.00  0.00     0.000 C 
HETATM   35  C22 UNL     1      -6.642  26.166   2.912  1.00  0.00     0.000 C 
HETATM   36  C23 UNL     1      -7.302  26.398   1.591  1.00  0.00     0.000 C 
HETATM   37  C24 UNL     1      -7.291  27.841   1.149  1.00  0.00     0.007 C 
ENDBRANCH  23  32
ENDBRANCH   3  23
TORSDOF 13
ENDMDL
MODEL 5
REMARK VINA RESULT: -7.497541806      2.835      5.299
REMARK  13 active torsions:
REMARK  status: ('A' for Active; 'I' for Inactive)
REMARK    1  A    between atoms: C2_2  and  O1_3 
REMARK    2  A    between atoms: O1_3  and  C3_4 
REMARK    3  A    between atoms: C3_4  and  C4_6 
REMARK    4  A    between atoms: C4_6  and  C5_7 
REMARK    5  A    between atoms: C4_6  and  N1_19 
REMARK    6  A    between atoms: C5_7  and  S1_8 
REMARK    7  A    between atoms: S1_8  and  C6_9 
REMARK    8  A    between atoms: C6_9  and  C7_10 
REMARK       I    between atoms: N1_19  and  C16_21 
REMARK    9  A    between atoms: C16_21  and  C17_23 
REMARK   10  A    between atoms: C17_23  and  N2_24 
REMARK   11  A    between atoms: C17_23  and  C19_32 
REMARK   12  A    between atoms: N2_24  and  S2_26 
REMARK   13  A    between atoms: S2_26  and  N3_29 
ROOT
HETATM    1  N1  UNL     1      -8.348  30.744  -0.385  1.00  0.00    -0.345 N 
ATOM      2  H1  UNL     1      -7.616  30.091  -0.663  1.00  0.00     0.163 HD
HETATM    3  C16 UNL     1      -8.562  30.929   0.991  1.00  0.00     0.242 C 
HETATM    4  O3  UNL     1      -9.484  31.709   1.360  1.00  0.00    -0.271 OA
ENDROOT
BRANCH   1   5
HETATM    5  C4  UNL     1      -9.071  31.393  -1.422  1.00  0.00     0.193 C 
BRANCH   5   6
HETATM    6  C3  UNL     1      -8.820  32.832  -1.535  1.00  0.00     0.282 C 
HETATM    7  O2  UNL     1      -7.659  33.282  -1.350  1.00  0.00    -0.263 OA
BRANCH   6   8
HETATM    8  O1  UNL     1      -9.822  33.761  -1.853  1.00  0.00    -0.320 OA
BRANCH   8   9
HETATM    9  C2  UNL     1     -11.193  33.476  -1.791  1.00  0.00     0.174 C 
HETATM   10  C1  UNL     1     -11.786  33.733  -0.416  1.00  0.00     0.034 C 
ENDBRANCH   8   9
ENDBRANCH   6   8
ENDBRANCH   5   6
BRANCH   5  11
HETATM   11  C5  UNL     1      -8.789  30.703  -2.772  1.00  0.00     0.109 C 
BRANCH  11  12
HETATM   12  S1  UNL     1      -8.905  28.896  -2.483  1.00  0.00    -0.166 SA
BRANCH  12  13
HETATM   13  C6  UNL     1      -7.709  28.005  -3.485  1.00  0.00     0.079 C 
BRANCH  13  14
HETATM   14  C7  UNL     1      -7.393  26.661  -2.868  1.00  0.00    -0.001 C 
HETATM   15  C8  UNL     1      -8.566  26.155  -2.070  1.00  0.00     0.006 C 
HETATM   16  C9  UNL     1      -8.193  25.391  -0.831  1.00  0.00     0.000 C 
HETATM   17  C10 UNL     1      -7.371  24.166  -1.052  1.00  0.00     0.000 C 
HETATM   18  C11 UNL     1      -5.887  24.458  -0.974  1.00  0.00     0.005 C 
HETATM   19  C12 UNL     1      -5.537  25.220  -2.230  1.00  0.00    -0.010 C 
HETATM   20  C13 UNL     1      -4.188  25.906  -2.198  1.00  0.00     0.005 C 
HETATM   21  C15 UNL     1      -6.155  26.606  -2.066  1.00  0.00    -0.006 C 
HETATM   22  C14 UNL     1      -4.897  27.120  -2.749  1.00  0.00     0.006 C 
ENDBRANCH  13  14
ENDBRANCH  12  13
ENDBRANCH  11  12
ENDBRANCH   5  11
ENDBRANCH   1   5
BRANCH   3  23
HETATM   23  C17 UNL     1      -7.763  30.263   2.069  1.00  0.00     0.190 C 
BRANCH  23  24
HETATM   24  N2  UNL     1      -6.385  30.594   1.844  1.00  0.00    -0.289 N 
ATOM     25  H2  UNL     1      -5.727  29.928   1.439  1.00  0.00     0.174 HD
BRANCH  24  26
HETATM   26  S2  UNL     1      -5.918  32.165   2.297  1.00  0.00     0.315 S 
HETATM   27  O4  UNL     1      -5.390  32.964   1.115  1.00  0.00    -0.183 OA
HETATM   28  O5  UNL     1      -4.787  32.137   3.308  1.00  0.00    -0.183 OA
BRANCH  26  29
HETATM   29  N3  UNL     1      -7.181  33.079   3.027  1.00  0.00    -0.307 N 
HETATM   30  C18 UNL     1      -7.353  34.366   2.450  1.00  0.00     0.161 C 
ATOM     31  H3  UNL     1      -7.751  32.731   3.798  1.00  0.00     0.173 HD
ENDBRANCH  26  29
ENDBRANCH  24  26
ENDBRANCH  23  24
BRANCH  23  32
HETATM   32  C19 UNL     1      -8.020  28.779   2.053  1.00  0.00     0.018 C 
HETATM   33  C20 UNL     1      -8.310  28.248   3.404  1.00  0.00     0.007 C 
HETATM   34  C21 UNL     1      -7.162  27.654   4.161  1.00  0.00     0.000 C 
HETATM   35  C22 UNL     1      -6.639  26.454   3.434  1.00  0.00     0.000 C 
HETATM   36  C23 UNL     1      -6.930  26.590   1.974  1.00  0.00     0.000 C 
HETATM   37  C24 UNL     1      -6.857  28.011   1.467  1.00  0.00     0.007 C 
ENDBRANCH  23  32
ENDBRANCH   3  23
TORSDOF 13
ENDMDL
