MODEL 1
REMARK VINA RESULT: -7.247437838      0.000      0.000
REMARK  12 active torsions:
REMARK  status: ('A' for Active; 'I' for Inactive)
REMARK    1  A    between atoms: C2_2  and  C4_4 
REMARK    2  A    between atoms: C4_4  and  C5_5 
REMARK    3  A    between atoms: C5_5  and  C6_6 
REMARK    4  A    between atoms: N1_7  and  C7_8 
REMARK    5  A    between atoms: N1_7  and  C13_15 
REMARK    6  A    between atoms: C7_8  and  C8_9 
REMARK    7  A    between atoms: C13_15  and  C14_16 
REMARK    8  A    between atoms: N3_29  and  C23_30 
REMARK    9  A    between atoms: C23_30  and  C24_31 
REMARK   10  A    between atoms: C24_31  and  O4_32 
REMARK   11  A    between atoms: C24_31  and  C25_34 
REMARK   12  A    between atoms: C25_34  and  O5_35 
ROOT
HETATM    1  C14 UNL     1      -8.474  27.035  -0.921  1.00  0.00     0.145 C 
HETATM    2  O2  UNL     1      -9.085  27.972  -0.154  1.00  0.00    -0.383 OA
HETATM    3  C15 UNL     1     -10.027  27.649   0.744  1.00  0.00     0.173 C 
HETATM    4  C16 UNL     1     -10.095  28.815   1.754  1.00  0.00     0.018 C 
HETATM    5  C17 UNL     1      -9.819  30.119   1.080  1.00  0.00     0.013 C 
HETATM    6  C18 UNL     1      -9.201  28.566   2.944  1.00  0.00     0.079 C 
HETATM    7  C19 UNL     1     -10.009  28.610   4.246  1.00  0.00     0.020 C 
HETATM    8  C20 UNL     1      -8.069  29.513   3.052  1.00  0.00     0.221 C 
HETATM    9  O3  UNL     1      -8.404  30.725   3.308  1.00  0.00    -0.273 OA
HETATM   10  N2  UNL     1      -6.699  29.219   2.907  1.00  0.00    -0.359 N 
ATOM     11  H2  UNL     1      -6.098  29.490   3.686  1.00  0.00     0.162 HD
HETATM   12  C21 UNL     1      -6.044  28.584   1.796  1.00  0.00     0.152 C 
HETATM   13  C22 UNL     1      -5.935  27.081   1.915  1.00  0.00     0.292 C 
HETATM   14  N3  UNL     1      -6.152  26.418   0.643  1.00  0.00     0.093 N 
HETATM   15  C26 UNL     1      -7.289  25.579   0.759  1.00  0.00     0.279 C 
HETATM   16  C27 UNL     1      -8.302  25.673  -0.335  1.00  0.00     0.040 C 
HETATM   17  C28 UNL     1      -8.028  24.672  -1.455  1.00  0.00     0.014 C 
ENDROOT
BRANCH   1  18
HETATM   18  C13 UNL     1      -9.169  26.940  -2.229  1.00  0.00     0.159 C 
BRANCH  18  19
HETATM   19  N1  UNL     1      -8.493  27.695  -3.311  1.00  0.00    -0.368 N 
HETATM   20  C6  UNL     1      -9.342  28.278  -4.186  1.00  0.00     0.086 C 
BRANCH  20  21
HETATM   21  C5  UNL     1      -9.567  29.693  -4.461  1.00  0.00    -0.009 C 
BRANCH  21  22
HETATM   22  C4  UNL     1      -9.262  30.323  -5.758  1.00  0.00     0.032 C 
BRANCH  22  23
HETATM   23  C2  UNL     1      -8.431  29.318  -6.614  1.00  0.00    -0.019 C 
HETATM   24  C1  UNL     1      -9.183  28.970  -7.876  1.00  0.00     0.010 C 
HETATM   25  C3  UNL     1      -7.127  29.950  -6.955  1.00  0.00     0.010 C 
ENDBRANCH  22  23
ENDBRANCH  21  22
ENDBRANCH  20  21
BRANCH  19  26
HETATM   26  C7  UNL     1      -7.133  27.512  -3.294  1.00  0.00     0.068 C 
BRANCH  26  27
HETATM   27  C8  UNL     1      -6.305  27.053  -4.428  1.00  0.00     0.028 C 
HETATM   28  C9  UNL     1      -4.997  27.798  -4.563  1.00  0.00     0.036 C 
HETATM   29  C10 UNL     1      -3.928  27.296  -3.644  1.00  0.00     0.168 C 
HETATM   30  O1  UNL     1      -3.735  25.924  -3.722  1.00  0.00    -0.391 OA
HETATM   31  C11 UNL     1      -4.897  25.316  -3.260  1.00  0.00     0.168 C 
HETATM   32  C12 UNL     1      -5.982  25.542  -4.254  1.00  0.00     0.036 C 
ENDBRANCH  26  27
ENDBRANCH  19  26
ENDBRANCH  18  19
ENDBRANCH   1  18
BRANCH  14  33
HETATM   33  C23 UNL     1      -5.031  25.663   0.201  1.00  0.00     0.306 C 
BRANCH  33  34
HETATM   34  C24 UNL     1      -3.691  26.251   0.493  1.00  0.00     0.170 C 
BRANCH  34  35
HETATM   35  O4  UNL     1      -3.398  27.381  -0.238  1.00  0.00    -0.392 OA
ATOM     36  H4  UNL     1      -3.439  27.258  -1.179  1.00  0.00     0.210 HD
ENDBRANCH  34  35
BRANCH  34  37
HETATM   37  C25 UNL     1      -2.656  25.197   0.112  1.00  0.00     0.197 C 
BRANCH  37  38
HETATM   38  O5  UNL     1      -2.115  25.458  -1.148  1.00  0.00    -0.398 OA
ATOM     39  H5  UNL     1      -2.694  25.153  -1.837  1.00  0.00     0.209 HD
ENDBRANCH  37  38
ENDBRANCH  34  37
ENDBRANCH  33  34
ENDBRANCH  14  33
TORSDOF 12
ENDMDL
MODEL 2
REMARK VINA RESULT: -7.089326009      2.240      4.809
REMARK  12 active torsions:
REMARK  status: ('A' for Active; 'I' for Inactive)
REMARK    1  A    between atoms: C2_2  and  C4_4 
REMARK    2  A    between atoms: C4_4  and  C5_5 
REMARK    3  A    between atoms: C5_5  and  C6_6 
REMARK    4  A    between atoms: N1_7  and  C7_8 
REMARK    5  A    between atoms: N1_7  and  C13_15 
REMARK    6  A    between atoms: C7_8  and  C8_9 
REMARK    7  A    between atoms: C13_15  and  C14_16 
REMARK    8  A    between atoms: N3_29  and  C23_30 
REMARK    9  A    between atoms: C23_30  and  C24_31 
REMARK   10  A    between atoms: C24_31  and  O4_32 
REMARK   11  A    between atoms: C24_31  and  C25_34 
REMARK   12  A    between atoms: C25_34  and  O5_35 
ROOT
HETATM    1  C14 UNL     1      -8.151  27.480   1.274  1.00  0.00     0.145 C 
HETATM    2  O2  UNL     1      -9.240  27.553   0.470  1.00  0.00    -0.383 OA
HETATM    3  C15 UNL     1     -10.487  27.526   0.960  1.00  0.00     0.173 C 
HETATM    4  C16 UNL     1     -11.401  28.148  -0.117  1.00  0.00     0.018 C 
HETATM    5  C17 UNL     1     -10.902  27.828  -1.488  1.00  0.00     0.013 C 
HETATM    6  C18 UNL     1     -11.590  29.628   0.109  1.00  0.00     0.079 C 
HETATM    7  C19 UNL     1     -13.079  29.968   0.248  1.00  0.00     0.020 C 
HETATM    8  C20 UNL     1     -11.005  30.477  -0.952  1.00  0.00     0.221 C 
HETATM    9  O3  UNL     1     -11.576  30.378  -2.097  1.00  0.00    -0.273 OA
HETATM   10  N2  UNL     1      -9.913  31.359  -0.829  1.00  0.00    -0.359 N 
ATOM     11  H2  UNL     1     -10.082  32.324  -1.112  1.00  0.00     0.162 HD
HETATM   12  C21 UNL     1      -8.589  31.064  -0.351  1.00  0.00     0.152 C 
HETATM   13  C22 UNL     1      -8.402  31.275   1.134  1.00  0.00     0.292 C 
HETATM   14  N3  UNL     1      -7.566  30.249   1.728  1.00  0.00     0.093 N 
HETATM   15  C26 UNL     1      -8.328  29.551   2.698  1.00  0.00     0.279 C 
HETATM   16  C27 UNL     1      -8.269  28.059   2.646  1.00  0.00     0.040 C 
HETATM   17  C28 UNL     1      -7.156  27.500   3.528  1.00  0.00     0.014 C 
ENDROOT
BRANCH   1  18
HETATM   18  C13 UNL     1      -7.695  26.069   1.358  1.00  0.00     0.159 C 
BRANCH  18  19
HETATM   19  N1  UNL     1      -6.934  25.626   0.166  1.00  0.00    -0.368 N 
HETATM   20  C6  UNL     1      -7.713  25.296  -0.889  1.00  0.00     0.086 C 
BRANCH  20  21
HETATM   21  C5  UNL     1      -7.811  25.922  -2.203  1.00  0.00    -0.009 C 
BRANCH  21  22
HETATM   22  C4  UNL     1      -7.204  25.352  -3.419  1.00  0.00     0.032 C 
BRANCH  22  23
HETATM   23  C2  UNL     1      -7.153  26.462  -4.515  1.00  0.00    -0.019 C 
HETATM   24  C1  UNL     1      -8.395  26.402  -5.369  1.00  0.00     0.010 C 
HETATM   25  C3  UNL     1      -7.059  27.787  -3.843  1.00  0.00     0.010 C 
ENDBRANCH  22  23
ENDBRANCH  21  22
ENDBRANCH  20  21
BRANCH  19  26
HETATM   26  C7  UNL     1      -5.596  25.485   0.432  1.00  0.00     0.068 C 
BRANCH  26  27
HETATM   27  C8  UNL     1      -4.550  26.499   0.184  1.00  0.00     0.028 C 
HETATM   28  C9  UNL     1      -3.186  26.102   0.702  1.00  0.00     0.036 C 
HETATM   29  C10 UNL     1      -2.445  25.183  -0.219  1.00  0.00     0.168 C 
HETATM   30  O1  UNL     1      -2.371  25.653  -1.523  1.00  0.00    -0.391 OA
HETATM   31  C11 UNL     1      -3.665  25.673  -2.029  1.00  0.00     0.168 C 
HETATM   32  C12 UNL     1      -4.430  26.752  -1.345  1.00  0.00     0.036 C 
ENDBRANCH  26  27
ENDBRANCH  19  26
ENDBRANCH  18  19
ENDBRANCH   1  18
BRANCH  14  33
HETATM   33  C23 UNL     1      -6.377  30.760   2.317  1.00  0.00     0.306 C 
BRANCH  33  34
HETATM   34  C24 UNL     1      -6.063  32.190   2.021  1.00  0.00     0.170 C 
BRANCH  34  35
HETATM   35  O4  UNL     1      -4.889  32.378   1.327  1.00  0.00    -0.392 OA
ATOM     36  H4  UNL     1      -4.754  33.269   1.025  1.00  0.00     0.210 HD
ENDBRANCH  34  35
BRANCH  34  37
HETATM   37  C25 UNL     1      -5.902  32.891   3.365  1.00  0.00     0.197 C 
BRANCH  37  38
HETATM   38  O5  UNL     1      -4.711  32.513   3.988  1.00  0.00    -0.398 OA
ATOM     39  H5  UNL     1      -4.504  33.096   4.710  1.00  0.00     0.209 HD
ENDBRANCH  37  38
ENDBRANCH  34  37
ENDBRANCH  33  34
ENDBRANCH  14  33
TORSDOF 12
ENDMDL
MODEL 3
REMARK VINA RESULT: -7.033147996      2.537      5.232
REMARK  12 active torsions:
REMARK  status: ('A' for Active; 'I' for Inactive)
REMARK    1  A    between atoms: C2_2  and  C4_4 
REMARK    2  A    between atoms: C4_4  and  C5_5 
REMARK    3  A    between atoms: C5_5  and  C6_6 
REMARK    4  A    between atoms: N1_7  and  C7_8 
REMARK    5  A    between atoms: N1_7  and  C13_15 
REMARK    6  A    between atoms: C7_8  and  C8_9 
REMARK    7  A    between atoms: C13_15  and  C14_16 
REMARK    8  A    between atoms: N3_29  and  C23_30 
REMARK    9  A    between atoms: C23_30  and  C24_31 
REMARK   10  A    between atoms: C24_31  and  O4_32 
REMARK   11  A    between atoms: C24_31  and  C25_34 
REMARK   12  A    between atoms: C25_34  and  O5_35 
ROOT
HETATM    1  C14 UNL     1      -8.510  28.145   0.157  1.00  0.00     0.145 C 
HETATM    2  O2  UNL     1      -9.344  28.450  -0.868  1.00  0.00    -0.383 OA
HETATM    3  C15 UNL     1     -10.674  28.509  -0.707  1.00  0.00     0.173 C 
HETATM    4  C16 UNL     1     -11.224  29.369  -1.864  1.00  0.00     0.018 C 
HETATM    5  C17 UNL     1     -10.416  29.171  -3.104  1.00  0.00     0.013 C 
HETATM    6  C18 UNL     1     -11.342  30.820  -1.464  1.00  0.00     0.079 C 
HETATM    7  C19 UNL     1     -12.783  31.313  -1.641  1.00  0.00     0.020 C 
HETATM    8  C20 UNL     1     -10.434  31.722  -2.207  1.00  0.00     0.221 C 
HETATM    9  O3  UNL     1     -10.697  31.841  -3.457  1.00  0.00    -0.273 OA
HETATM   10  N2  UNL     1      -9.342  32.445  -1.686  1.00  0.00    -0.359 N 
ATOM     11  H2  UNL     1      -9.353  33.452  -1.849  1.00  0.00     0.162 HD
HETATM   12  C21 UNL     1      -8.216  31.935  -0.952  1.00  0.00     0.152 C 
HETATM   13  C22 UNL     1      -8.402  31.929   0.549  1.00  0.00     0.292 C 
HETATM   14  N3  UNL     1      -7.835  30.744   1.161  1.00  0.00     0.093 N 
HETATM   15  C26 UNL     1      -8.877  30.022   1.797  1.00  0.00     0.279 C 
HETATM   16  C27 UNL     1      -8.930  28.553   1.530  1.00  0.00     0.040 C 
HETATM   17  C28 UNL     1      -8.132  27.756   2.560  1.00  0.00     0.014 C 
ENDROOT
BRANCH   1  18
HETATM   18  C13 UNL     1      -8.209  26.692   0.130  1.00  0.00     0.159 C 
BRANCH  18  19
HETATM   19  N1  UNL     1      -7.077  26.342  -0.761  1.00  0.00    -0.368 N 
HETATM   20  C6  UNL     1      -7.422  25.546  -1.798  1.00  0.00     0.086 C 
BRANCH  20  21
HETATM   21  C5  UNL     1      -7.392  25.820  -3.231  1.00  0.00    -0.009 C 
BRANCH  21  22
HETATM   22  C4  UNL     1      -6.178  25.682  -4.056  1.00  0.00     0.032 C 
BRANCH  22  23
HETATM   23  C2  UNL     1      -5.674  27.109  -4.436  1.00  0.00    -0.019 C 
HETATM   24  C1  UNL     1      -6.763  28.124  -4.193  1.00  0.00     0.010 C 
HETATM   25  C3  UNL     1      -4.483  27.428  -3.603  1.00  0.00     0.010 C 
ENDBRANCH  22  23
ENDBRANCH  21  22
ENDBRANCH  20  21
BRANCH  19  26
HETATM   26  C7  UNL     1      -5.875  26.768  -0.257  1.00  0.00     0.068 C 
BRANCH  26  27
HETATM   27  C8  UNL     1      -5.168  26.193   0.907  1.00  0.00     0.028 C 
HETATM   28  C9  UNL     1      -5.469  24.729   1.135  1.00  0.00     0.036 C 
HETATM   29  C10 UNL     1      -4.669  23.815   0.260  1.00  0.00     0.168 C 
HETATM   30  O1  UNL     1      -3.305  24.061   0.307  1.00  0.00    -0.391 OA
HETATM   31  C11 UNL     1      -3.094  25.324  -0.235  1.00  0.00     0.168 C 
HETATM   32  C12 UNL     1      -3.634  26.344   0.705  1.00  0.00     0.036 C 
ENDBRANCH  26  27
ENDBRANCH  19  26
ENDBRANCH  18  19
ENDBRANCH   1  18
BRANCH  14  33
HETATM   33  C23 UNL     1      -6.800  31.029   2.094  1.00  0.00     0.306 C 
BRANCH  33  34
HETATM   34  C24 UNL     1      -6.124  32.351   1.935  1.00  0.00     0.170 C 
BRANCH  34  35
HETATM   35  O4  UNL     1      -4.856  32.276   1.403  1.00  0.00    -0.392 OA
ATOM     36  H4  UNL     1      -4.834  32.210   0.456  1.00  0.00     0.210 HD
ENDBRANCH  34  35
BRANCH  34  37
HETATM   37  C25 UNL     1      -5.985  32.944   3.333  1.00  0.00     0.197 C 
BRANCH  37  38
HETATM   38  O5  UNL     1      -4.767  32.581   3.913  1.00  0.00    -0.398 OA
ATOM     39  H5  UNL     1      -4.878  31.847   4.507  1.00  0.00     0.209 HD
ENDBRANCH  37  38
ENDBRANCH  34  37
ENDBRANCH  33  34
ENDBRANCH  14  33
TORSDOF 12
ENDMDL
MODEL 4
REMARK VINA RESULT: -6.990396553      2.401      5.207
REMARK  12 active torsions:
REMARK  status: ('A' for Active; 'I' for Inactive)
REMARK    1  A    between atoms: C2_2  and  C4_4 
REMARK    2  A    between atoms: C4_4  and  C5_5 
REMARK    3  A    between atoms: C5_5  and  C6_6 
REMARK    4  A    between atoms: N1_7  and  C7_8 
REMARK    5  A    between atoms: N1_7  and  C13_15 
REMARK    6  A    between atoms: C7_8  and  C8_9 
REMARK    7  A    between atoms: C13_15  and  C14_16 
REMARK    8  A    between atoms: N3_29  and  C23_30 
REMARK    9  A    between atoms: C23_30  and  C24_31 
REMARK   10  A    between atoms: C24_31  and  O4_32 
REMARK   11  A    between atoms: C24_31  and  C25_34 
REMARK   12  A    between atoms: C25_34  and  O5_35 
ROOT
HETATM    1  C14 UNL     1      -8.722  28.291   0.498  1.00  0.00     0.145 C 
HETATM    2  O2  UNL     1      -9.372  28.565  -0.661  1.00  0.00    -0.383 OA
HETATM    3  C15 UNL     1     -10.709  28.604  -0.733  1.00  0.00     0.173 C 
HETATM    4  C16 UNL     1     -11.063  29.435  -1.984  1.00  0.00     0.018 C 
HETATM    5  C17 UNL     1     -10.050  29.230  -3.062  1.00  0.00     0.013 C 
HETATM    6  C18 UNL     1     -11.269  30.890  -1.639  1.00  0.00     0.079 C 
HETATM    7  C19 UNL     1     -12.665  31.355  -2.071  1.00  0.00     0.020 C 
HETATM    8  C20 UNL     1     -10.260  31.795  -2.231  1.00  0.00     0.221 C 
HETATM    9  O3  UNL     1     -10.304  31.888  -3.510  1.00  0.00    -0.273 OA
HETATM   10  N2  UNL     1      -9.285  32.545  -1.543  1.00  0.00    -0.359 N 
ATOM     11  H2  UNL     1      -9.281  33.549  -1.725  1.00  0.00     0.162 HD
HETATM   12  C21 UNL     1      -8.295  32.067  -0.616  1.00  0.00     0.152 C 
HETATM   13  C22 UNL     1      -8.737  32.083   0.830  1.00  0.00     0.292 C 
HETATM   14  N3  UNL     1      -8.268  30.917   1.554  1.00  0.00     0.093 N 
HETATM   15  C26 UNL     1      -9.395  30.188   2.014  1.00  0.00     0.279 C 
HETATM   16  C27 UNL     1      -9.380  28.714   1.770  1.00  0.00     0.040 C 
HETATM   17  C28 UNL     1      -8.761  27.949   2.938  1.00  0.00     0.014 C 
ENDROOT
BRANCH   1  18
HETATM   18  C13 UNL     1      -8.401  26.843   0.551  1.00  0.00     0.159 C 
BRANCH  18  19
HETATM   19  N1  UNL     1      -7.406  26.424  -0.465  1.00  0.00    -0.368 N 
HETATM   20  C6  UNL     1      -7.919  25.647  -1.445  1.00  0.00     0.086 C 
BRANCH  20  21
HETATM   21  C5  UNL     1      -8.044  25.915  -2.874  1.00  0.00    -0.009 C 
BRANCH  21  22
HETATM   22  C4  UNL     1      -7.081  25.426  -3.877  1.00  0.00     0.032 C 
BRANCH  22  23
HETATM   23  C2  UNL     1      -5.700  26.101  -3.607  1.00  0.00    -0.019 C 
HETATM   24  C1  UNL     1      -4.594  25.274  -4.215  1.00  0.00     0.010 C 
HETATM   25  C3  UNL     1      -5.712  27.461  -4.210  1.00  0.00     0.010 C 
ENDBRANCH  22  23
ENDBRANCH  21  22
ENDBRANCH  20  21
BRANCH  19  26
HETATM   26  C7  UNL     1      -6.129  26.779  -0.111  1.00  0.00     0.068 C 
BRANCH  26  27
HETATM   27  C8  UNL     1      -5.342  26.199   0.997  1.00  0.00     0.028 C 
HETATM   28  C9  UNL     1      -5.621  24.733   1.236  1.00  0.00     0.036 C 
HETATM   29  C10 UNL     1      -4.879  23.827   0.303  1.00  0.00     0.168 C 
HETATM   30  O1  UNL     1      -3.516  24.080   0.258  1.00  0.00    -0.391 OA
HETATM   31  C11 UNL     1      -3.348  25.347  -0.289  1.00  0.00     0.168 C 
HETATM   32  C12 UNL     1      -3.827  26.359   0.693  1.00  0.00     0.036 C 
ENDBRANCH  26  27
ENDBRANCH  19  26
ENDBRANCH  18  19
ENDBRANCH   1  18
BRANCH  14  33
HETATM   33  C23 UNL     1      -7.415  31.236   2.646  1.00  0.00     0.306 C 
BRANCH  33  34
HETATM   34  C24 UNL     1      -6.086  30.558   2.655  1.00  0.00     0.170 C 
BRANCH  34  35
HETATM   35  O4  UNL     1      -5.869  29.754   3.752  1.00  0.00    -0.392 OA
ATOM     36  H4  UNL     1      -5.096  29.980   4.255  1.00  0.00     0.210 HD
ENDBRANCH  34  35
BRANCH  34  37
HETATM   37  C25 UNL     1      -5.031  31.659   2.698  1.00  0.00     0.197 C 
BRANCH  37  38
HETATM   38  O5  UNL     1      -4.909  32.284   1.455  1.00  0.00    -0.398 OA
ATOM     39  H5  UNL     1      -3.999  32.328   1.183  1.00  0.00     0.209 HD
ENDBRANCH  37  38
ENDBRANCH  34  37
ENDBRANCH  33  34
ENDBRANCH  14  33
TORSDOF 12
ENDMDL
MODEL 5
REMARK VINA RESULT: -6.978098874      2.154      7.035
REMARK  12 active torsions:
REMARK  status: ('A' for Active; 'I' for Inactive)
REMARK    1  A    between atoms: C2_2  and  C4_4 
REMARK    2  A    between atoms: C4_4  and  C5_5 
REMARK    3  A    between atoms: C5_5  and  C6_6 
REMARK    4  A    between atoms: N1_7  and  C7_8 
REMARK    5  A    between atoms: N1_7  and  C13_15 
REMARK    6  A    between atoms: C7_8  and  C8_9 
REMARK    7  A    between atoms: C13_15  and  C14_16 
REMARK    8  A    between atoms: N3_29  and  C23_30 
REMARK    9  A    between atoms: C23_30  and  C24_31 
REMARK   10  A    between atoms: C24_31  and  O4_32 
REMARK   11  A    between atoms: C24_31  and  C25_34 
REMARK   12  A    between atoms: C25_34  and  O5_35 
ROOT
HETATM    1  C14 UNL     1      -8.321  26.779  -0.952  1.00  0.00     0.145 C 
HETATM    2  O2  UNL     1      -7.368  26.473  -0.037  1.00  0.00    -0.383 OA
HETATM    3  C15 UNL     1      -7.237  25.237   0.465  1.00  0.00     0.173 C 
HETATM    4  C16 UNL     1      -5.800  25.131   1.017  1.00  0.00     0.018 C 
HETATM    5  C17 UNL     1      -5.344  26.443   1.567  1.00  0.00     0.013 C 
HETATM    6  C18 UNL     1      -4.854  24.565  -0.013  1.00  0.00     0.079 C 
HETATM    7  C19 UNL     1      -4.163  23.305   0.522  1.00  0.00     0.020 C 
HETATM    8  C20 UNL     1      -3.819  25.521  -0.467  1.00  0.00     0.221 C 
HETATM    9  O3  UNL     1      -2.961  25.849   0.428  1.00  0.00    -0.273 OA
HETATM   10  N2  UNL     1      -3.689  26.085  -1.751  1.00  0.00    -0.359 N 
ATOM     11  H2  UNL     1      -2.785  25.958  -2.207  1.00  0.00     0.162 HD
HETATM   12  C21 UNL     1      -4.676  26.818  -2.498  1.00  0.00     0.152 C 
HETATM   13  C22 UNL     1      -5.530  25.963  -3.407  1.00  0.00     0.292 C 
HETATM   14  N3  UNL     1      -6.913  26.398  -3.420  1.00  0.00     0.093 N 
HETATM   15  C26 UNL     1      -7.723  25.341  -2.932  1.00  0.00     0.279 C 
HETATM   16  C27 UNL     1      -8.738  25.701  -1.897  1.00  0.00     0.040 C 
HETATM   17  C28 UNL     1     -10.083  26.067  -2.520  1.00  0.00     0.014 C 
ENDROOT
BRANCH   1  18
HETATM   18  C13 UNL     1      -9.511  27.331  -0.257  1.00  0.00     0.159 C 
BRANCH  18  19
HETATM   19  N1  UNL     1      -9.181  28.406   0.709  1.00  0.00    -0.368 N 
HETATM   20  C6  UNL     1      -9.313  28.039   2.004  1.00  0.00     0.086 C 
BRANCH  20  21
HETATM   21  C5  UNL     1      -8.298  27.922   3.045  1.00  0.00    -0.009 C 
BRANCH  21  22
HETATM   22  C4  UNL     1      -8.543  28.266   4.457  1.00  0.00     0.032 C 
BRANCH  22  23
HETATM   23  C2  UNL     1     -10.001  28.805   4.589  1.00  0.00    -0.019 C 
HETATM   24  C1  UNL     1     -10.691  28.148   5.759  1.00  0.00     0.010 C 
HETATM   25  C3  UNL     1      -9.944  30.279   4.791  1.00  0.00     0.010 C 
ENDBRANCH  22  23
ENDBRANCH  21  22
ENDBRANCH  20  21
BRANCH  19  26
HETATM   26  C7  UNL     1      -8.964  29.609   0.086  1.00  0.00     0.068 C 
BRANCH  26  27
HETATM   27  C8  UNL     1      -9.486  30.920   0.523  1.00  0.00     0.028 C 
HETATM   28  C9  UNL     1      -8.565  31.654   1.471  1.00  0.00     0.036 C 
HETATM   29  C10 UNL     1      -7.457  32.382   0.778  1.00  0.00     0.168 C 
HETATM   30  O1  UNL     1      -7.897  33.215  -0.241  1.00  0.00    -0.391 OA
HETATM   31  C11 UNL     1      -8.444  32.406  -1.229  1.00  0.00     0.168 C 
HETATM   32  C12 UNL     1      -9.717  31.824  -0.720  1.00  0.00     0.036 C 
ENDBRANCH  26  27
ENDBRANCH  19  26
ENDBRANCH  18  19
ENDBRANCH   1  18
BRANCH  14  33
HETATM   33  C23 UNL     1      -7.365  26.806  -4.704  1.00  0.00     0.306 C 
BRANCH  33  34
HETATM   34  C24 UNL     1      -7.308  28.271  -4.982  1.00  0.00     0.170 C 
BRANCH  34  35
HETATM   35  O4  UNL     1      -6.067  28.724  -5.371  1.00  0.00    -0.392 OA
ATOM     36  H4  UNL     1      -5.402  28.047  -5.420  1.00  0.00     0.210 HD
ENDBRANCH  34  35
BRANCH  34  37
HETATM   37  C25 UNL     1      -7.649  28.979  -3.675  1.00  0.00     0.197 C 
BRANCH  37  38
HETATM   38  O5  UNL     1      -8.242  30.220  -3.917  1.00  0.00    -0.398 OA
ATOM     39  H5  UNL     1      -8.575  30.602  -3.113  1.00  0.00     0.209 HD
ENDBRANCH  37  38
ENDBRANCH  34  37
ENDBRANCH  33  34
ENDBRANCH  14  33
TORSDOF 12
ENDMDL
