MODEL 1
REMARK VINA RESULT: -8.619338310      0.000      0.000
REMARK  12 active torsions:
REMARK  status: ('A' for Active; 'I' for Inactive)
REMARK    1  A    between atoms: C2_2  and  C4_4 
REMARK    2  A    between atoms: C4_4  and  C5_5 
REMARK    3  A    between atoms: C5_5  and  N1_6 
REMARK    4  A    between atoms: C5_5  and  C13_16 
REMARK       I    between atoms: N1_6  and  C6_8 
REMARK    5  A    between atoms: C6_8  and  C7_10 
REMARK    6  A    between atoms: C13_16  and  C14_17 
REMARK    7  A    between atoms: C13_16  and  N2_19 
REMARK       I    between atoms: N2_19  and  C15_21 
REMARK    8  A    between atoms: C15_21  and  C16_23 
REMARK    9  A    between atoms: C16_23  and  C17_24 
REMARK   10  A    between atoms: C20_27  and  C21_28 
REMARK   11  A    between atoms: C21_28  and  N3_29 
REMARK   12  A    between atoms: C24_34  and  C25_35 
ROOT
HETATM    1  N2  UNL     1      -7.460  26.838   1.450  1.00  0.00    -0.348 N 
ATOM      2  H2  UNL     1      -8.077  27.535   1.035  1.00  0.00     0.163 HD
HETATM    3  C15 UNL     1      -7.216  26.841   2.839  1.00  0.00     0.218 C 
HETATM    4  O3  UNL     1      -6.451  25.957   3.318  1.00  0.00    -0.274 OA
ENDROOT
BRANCH   1   5
HETATM    5  C13 UNL     1      -6.821  25.825   0.608  1.00  0.00     0.168 C 
BRANCH   5   6
HETATM    6  C5  UNL     1      -5.580  26.395  -0.024  1.00  0.00     0.114 C 
BRANCH   6   7
HETATM    7  C4  UNL     1      -4.359  25.858   0.631  1.00  0.00     0.031 C 
BRANCH   7   8
HETATM    8  C2  UNL     1      -3.850  24.617  -0.034  1.00  0.00    -0.021 C 
HETATM    9  C1  UNL     1      -2.315  24.694  -0.039  1.00  0.00     0.009 C 
HETATM   10  C3  UNL     1      -4.283  23.344   0.638  1.00  0.00     0.009 C 
ENDBRANCH   7   8
ENDBRANCH   6   7
BRANCH   6  11
HETATM   11  N1  UNL     1      -5.568  26.135  -1.463  1.00  0.00    -0.354 N 
HETATM   12  C6  UNL     1      -4.697  26.803  -2.364  1.00  0.00     0.222 C 
HETATM   13  O1  UNL     1      -3.905  27.654  -1.905  1.00  0.00    -0.273 OA
ATOM     14  H1  UNL     1      -6.216  25.441  -1.837  1.00  0.00     0.163 HD
BRANCH  12  15
HETATM   15  C7  UNL     1      -4.749  26.483  -3.791  1.00  0.00     0.078 C 
HETATM   16  C8  UNL     1      -5.563  25.278  -4.125  1.00  0.00     0.014 C 
HETATM   17  C9  UNL     1      -7.041  25.497  -4.144  1.00  0.00     0.001 C 
HETATM   18  C10 UNL     1      -7.490  26.762  -4.799  1.00  0.00     0.000 C 
HETATM   19  C11 UNL     1      -6.636  27.960  -4.439  1.00  0.00     0.001 C 
HETATM   20  C12 UNL     1      -5.187  27.644  -4.663  1.00  0.00     0.014 C 
ENDBRANCH  12  15
ENDBRANCH   6  11
ENDBRANCH   5   6
BRANCH   5  21
HETATM   21  C14 UNL     1      -7.773  25.308  -0.404  1.00  0.00     0.258 C 
HETATM   22  O2  UNL     1      -7.672  24.198  -0.864  1.00  0.00    -0.305 OA
ENDBRANCH   5  21
ENDBRANCH   1   5
BRANCH   3  23
HETATM   23  C16 UNL     1      -7.854  27.863   3.679  1.00  0.00     0.107 C 
BRANCH  23  24
HETATM   24  C17 UNL     1      -8.600  28.899   2.911  1.00  0.00    -0.006 C 
HETATM   25  C18 UNL     1      -9.841  29.288   3.713  1.00  0.00     0.005 C 
HETATM   26  C19 UNL     1      -9.478  30.493   4.556  1.00  0.00     0.006 C 
HETATM   27  C20 UNL     1      -9.438  31.737   3.639  1.00  0.00     0.004 C 
HETATM   28  C26 UNL     1      -8.622  31.366   2.470  1.00  0.00     0.006 C 
HETATM   29  C27 UNL     1      -7.732  30.129   2.718  1.00  0.00     0.005 C 
BRANCH  27  30
HETATM   30  C21 UNL     1      -9.066  32.879   4.491  1.00  0.00     0.134 C 
BRANCH  30  31
HETATM   31  N3  UNL     1      -8.317  33.938   3.924  1.00  0.00    -0.311 N 
HETATM   32  C22 UNL     1      -8.852  34.965   3.021  1.00  0.00     0.363 C 
HETATM   33  O4  UNL     1     -10.042  35.321   3.084  1.00  0.00    -0.238 OA
HETATM   34  O5  UNL     1      -7.780  35.327   2.230  1.00  0.00    -0.301 OA
HETATM   35  C23 UNL     1      -6.599  34.578   2.602  1.00  0.00     0.217 C 
HETATM   36  C24 UNL     1      -6.961  34.335   4.074  1.00  0.00     0.214 C 
BRANCH  36  37
HETATM   37  C25 UNL     1      -6.012  33.607   4.844  1.00  0.00     0.199 C 
HETATM   38  O6  UNL     1      -5.350  32.643   4.311  1.00  0.00    -0.646 OA
HETATM   39  O7  UNL     1      -5.715  33.843   6.163  1.00  0.00    -0.646 OA
ENDBRANCH  36  37
ENDBRANCH  30  31
ENDBRANCH  27  30
ENDBRANCH  23  24
ENDBRANCH   3  23
TORSDOF 12
ENDMDL
MODEL 2
REMARK VINA RESULT: -8.570799795      1.146      1.633
REMARK  12 active torsions:
REMARK  status: ('A' for Active; 'I' for Inactive)
REMARK    1  A    between atoms: C2_2  and  C4_4 
REMARK    2  A    between atoms: C4_4  and  C5_5 
REMARK    3  A    between atoms: C5_5  and  N1_6 
REMARK    4  A    between atoms: C5_5  and  C13_16 
REMARK       I    between atoms: N1_6  and  C6_8 
REMARK    5  A    between atoms: C6_8  and  C7_10 
REMARK    6  A    between atoms: C13_16  and  C14_17 
REMARK    7  A    between atoms: C13_16  and  N2_19 
REMARK       I    between atoms: N2_19  and  C15_21 
REMARK    8  A    between atoms: C15_21  and  C16_23 
REMARK    9  A    between atoms: C16_23  and  C17_24 
REMARK   10  A    between atoms: C20_27  and  C21_28 
REMARK   11  A    between atoms: C21_28  and  N3_29 
REMARK   12  A    between atoms: C24_34  and  C25_35 
ROOT
HETATM    1  N2  UNL     1      -7.716  27.007   1.277  1.00  0.00    -0.348 N 
ATOM      2  H2  UNL     1      -8.323  27.636   0.751  1.00  0.00     0.163 HD
HETATM    3  C15 UNL     1      -7.524  27.198   2.660  1.00  0.00     0.218 C 
HETATM    4  O3  UNL     1      -6.770  26.395   3.279  1.00  0.00    -0.274 OA
ENDROOT
BRANCH   1   5
HETATM    5  C13 UNL     1      -7.039  25.900   0.600  1.00  0.00     0.168 C 
BRANCH   5   6
HETATM    6  C5  UNL     1      -5.732  26.374   0.024  1.00  0.00     0.114 C 
BRANCH   6   7
HETATM    7  C4  UNL     1      -4.585  25.760   0.740  1.00  0.00     0.031 C 
BRANCH   7   8
HETATM    8  C2  UNL     1      -4.053  24.548   0.039  1.00  0.00    -0.021 C 
HETATM    9  C1  UNL     1      -2.521  24.668   0.010  1.00  0.00     0.009 C 
HETATM   10  C3  UNL     1      -4.441  23.249   0.688  1.00  0.00     0.009 C 
ENDBRANCH   7   8
ENDBRANCH   6   7
BRANCH   6  11
HETATM   11  N1  UNL     1      -5.672  26.100  -1.411  1.00  0.00    -0.354 N 
HETATM   12  C6  UNL     1      -4.774  26.763  -2.289  1.00  0.00     0.222 C 
HETATM   13  O1  UNL     1      -4.001  27.622  -1.812  1.00  0.00    -0.273 OA
ATOM     14  H1  UNL     1      -6.303  25.399  -1.799  1.00  0.00     0.163 HD
BRANCH  12  15
HETATM   15  C7  UNL     1      -4.777  26.428  -3.714  1.00  0.00     0.078 C 
HETATM   16  C8  UNL     1      -5.645  25.270  -4.075  1.00  0.00     0.014 C 
HETATM   17  C9  UNL     1      -7.105  25.577  -4.168  1.00  0.00     0.001 C 
HETATM   18  C10 UNL     1      -7.444  26.859  -4.856  1.00  0.00     0.000 C 
HETATM   19  C11 UNL     1      -6.537  28.008  -4.467  1.00  0.00     0.001 C 
HETATM   20  C12 UNL     1      -5.100  27.602  -4.618  1.00  0.00     0.014 C 
ENDBRANCH  12  15
ENDBRANCH   6  11
ENDBRANCH   5   6
BRANCH   5  21
HETATM   21  C14 UNL     1      -7.918  25.301  -0.434  1.00  0.00     0.258 C 
HETATM   22  O2  UNL     1      -7.772  24.165  -0.813  1.00  0.00    -0.305 OA
ENDBRANCH   5  21
ENDBRANCH   1   5
BRANCH   3  23
HETATM   23  C16 UNL     1      -8.200  28.314   3.334  1.00  0.00     0.107 C 
BRANCH  23  24
HETATM   24  C17 UNL     1      -8.965  29.202   2.414  1.00  0.00    -0.006 C 
HETATM   25  C18 UNL     1      -9.833  30.133   3.260  1.00  0.00     0.005 C 
HETATM   26  C19 UNL     1      -9.049  31.410   3.480  1.00  0.00     0.006 C 
HETATM   27  C20 UNL     1      -9.086  32.237   2.174  1.00  0.00     0.004 C 
HETATM   28  C26 UNL     1      -8.725  31.314   1.086  1.00  0.00     0.006 C 
HETATM   29  C27 UNL     1      -8.010  30.038   1.582  1.00  0.00     0.005 C 
BRANCH  27  30
HETATM   30  C21 UNL     1      -8.301  33.458   2.424  1.00  0.00     0.134 C 
BRANCH  30  31
HETATM   31  N3  UNL     1      -6.901  33.343   2.606  1.00  0.00    -0.311 N 
HETATM   32  C22 UNL     1      -5.933  33.025   1.549  1.00  0.00     0.363 C 
HETATM   33  O4  UNL     1      -6.146  33.338   0.364  1.00  0.00    -0.238 OA
HETATM   34  O5  UNL     1      -4.903  32.380   2.202  1.00  0.00    -0.301 OA
HETATM   35  C23 UNL     1      -5.179  32.286   3.620  1.00  0.00     0.217 C 
HETATM   36  C24 UNL     1      -6.068  33.532   3.741  1.00  0.00     0.214 C 
BRANCH  36  37
HETATM   37  C25 UNL     1      -6.567  33.826   5.041  1.00  0.00     0.199 C 
HETATM   38  O6  UNL     1      -5.759  33.929   6.035  1.00  0.00    -0.646 OA
HETATM   39  O7  UNL     1      -7.888  34.021   5.356  1.00  0.00    -0.646 OA
ENDBRANCH  36  37
ENDBRANCH  30  31
ENDBRANCH  27  30
ENDBRANCH  23  24
ENDBRANCH   3  23
TORSDOF 12
ENDMDL
MODEL 3
REMARK VINA RESULT: -8.348025990      1.821      3.794
REMARK  12 active torsions:
REMARK  status: ('A' for Active; 'I' for Inactive)
REMARK    1  A    between atoms: C2_2  and  C4_4 
REMARK    2  A    between atoms: C4_4  and  C5_5 
REMARK    3  A    between atoms: C5_5  and  N1_6 
REMARK    4  A    between atoms: C5_5  and  C13_16 
REMARK       I    between atoms: N1_6  and  C6_8 
REMARK    5  A    between atoms: C6_8  and  C7_10 
REMARK    6  A    between atoms: C13_16  and  C14_17 
REMARK    7  A    between atoms: C13_16  and  N2_19 
REMARK       I    between atoms: N2_19  and  C15_21 
REMARK    8  A    between atoms: C15_21  and  C16_23 
REMARK    9  A    between atoms: C16_23  and  C17_24 
REMARK   10  A    between atoms: C20_27  and  C21_28 
REMARK   11  A    between atoms: C21_28  and  N3_29 
REMARK   12  A    between atoms: C24_34  and  C25_35 
ROOT
HETATM    1  N2  UNL     1      -7.489  27.244  -1.526  1.00  0.00    -0.348 N 
ATOM      2  H2  UNL     1      -6.703  27.892  -1.566  1.00  0.00     0.163 HD
HETATM    3  C15 UNL     1      -8.319  27.203  -0.387  1.00  0.00     0.218 C 
HETATM    4  O3  UNL     1      -9.287  26.390  -0.378  1.00  0.00    -0.274 OA
ENDROOT
BRANCH   1   5
HETATM    5  C13 UNL     1      -7.764  26.350  -2.652  1.00  0.00     0.168 C 
BRANCH   5   6
HETATM    6  C5  UNL     1      -6.686  25.305  -2.751  1.00  0.00     0.114 C 
BRANCH   6   7
HETATM    7  C4  UNL     1      -5.743  25.622  -3.855  1.00  0.00     0.031 C 
BRANCH   7   8
HETATM    8  C2  UNL     1      -4.515  26.332  -3.373  1.00  0.00    -0.021 C 
HETATM    9  C1  UNL     1      -3.343  25.343  -3.468  1.00  0.00     0.009 C 
HETATM   10  C3  UNL     1      -4.184  27.574  -4.152  1.00  0.00     0.009 C 
ENDBRANCH   7   8
ENDBRANCH   6   7
BRANCH   6  11
HETATM   11  N1  UNL     1      -5.985  25.164  -1.476  1.00  0.00    -0.354 N 
HETATM   12  C6  UNL     1      -6.325  24.181  -0.510  1.00  0.00     0.222 C 
HETATM   13  O1  UNL     1      -7.269  23.400  -0.761  1.00  0.00    -0.273 OA
ATOM     14  H1  UNL     1      -5.216  25.802  -1.271  1.00  0.00     0.163 HD
BRANCH  12  15
HETATM   15  C7  UNL     1      -5.571  24.108   0.743  1.00  0.00     0.078 C 
HETATM   16  C8  UNL     1      -4.184  23.576   0.599  1.00  0.00     0.014 C 
HETATM   17  C9  UNL     1      -3.181  24.555   0.080  1.00  0.00     0.001 C 
HETATM   18  C10 UNL     1      -3.273  25.929   0.658  1.00  0.00     0.000 C 
HETATM   19  C11 UNL     1      -4.697  26.430   0.792  1.00  0.00     0.001 C 
HETATM   20  C12 UNL     1      -5.533  25.413   1.512  1.00  0.00     0.014 C 
ENDBRANCH  12  15
ENDBRANCH   6  11
ENDBRANCH   5   6
BRANCH   5  21
HETATM   21  C14 UNL     1      -7.907  27.122  -3.911  1.00  0.00     0.258 C 
HETATM   22  O2  UNL     1      -7.909  28.328  -3.922  1.00  0.00    -0.305 OA
ENDBRANCH   5  21
ENDBRANCH   1   5
BRANCH   3  23
HETATM   23  C16 UNL     1      -8.036  28.096   0.743  1.00  0.00     0.107 C 
BRANCH  23  24
HETATM   24  C17 UNL     1      -9.069  29.148   0.957  1.00  0.00    -0.006 C 
HETATM   25  C18 UNL     1      -9.536  29.073   2.410  1.00  0.00     0.005 C 
HETATM   26  C19 UNL     1      -8.696  30.049   3.207  1.00  0.00     0.006 C 
HETATM   27  C20 UNL     1      -9.200  31.481   2.912  1.00  0.00     0.004 C 
HETATM   28  C26 UNL     1      -9.293  31.596   1.447  1.00  0.00     0.006 C 
HETATM   29  C27 UNL     1      -8.475  30.521   0.700  1.00  0.00     0.005 C 
BRANCH  27  30
HETATM   30  C21 UNL     1      -8.349  32.397   3.691  1.00  0.00     0.134 C 
BRANCH  30  31
HETATM   31  N3  UNL     1      -7.402  33.196   3.006  1.00  0.00    -0.311 N 
HETATM   32  C22 UNL     1      -7.644  34.556   2.509  1.00  0.00     0.363 C 
HETATM   33  O4  UNL     1      -8.458  35.313   3.069  1.00  0.00    -0.238 OA
HETATM   34  O5  UNL     1      -6.814  34.680   1.413  1.00  0.00    -0.301 OA
HETATM   35  C23 UNL     1      -6.059  33.462   1.208  1.00  0.00     0.217 C 
HETATM   36  C24 UNL     1      -6.040  32.980   2.665  1.00  0.00     0.214 C 
BRANCH  36  37
HETATM   37  C25 UNL     1      -5.352  31.760   2.916  1.00  0.00     0.199 C 
HETATM   38  O6  UNL     1      -4.560  31.662   3.923  1.00  0.00    -0.646 OA
HETATM   39  O7  UNL     1      -5.456  30.622   2.158  1.00  0.00    -0.646 OA
ENDBRANCH  36  37
ENDBRANCH  30  31
ENDBRANCH  27  30
ENDBRANCH  23  24
ENDBRANCH   3  23
TORSDOF 12
ENDMDL
MODEL 4
REMARK VINA RESULT: -8.091476007      2.559      4.667
REMARK  12 active torsions:
REMARK  status: ('A' for Active; 'I' for Inactive)
REMARK    1  A    between atoms: C2_2  and  C4_4 
REMARK    2  A    between atoms: C4_4  and  C5_5 
REMARK    3  A    between atoms: C5_5  and  N1_6 
REMARK    4  A    between atoms: C5_5  and  C13_16 
REMARK       I    between atoms: N1_6  and  C6_8 
REMARK    5  A    between atoms: C6_8  and  C7_10 
REMARK    6  A    between atoms: C13_16  and  C14_17 
REMARK    7  A    between atoms: C13_16  and  N2_19 
REMARK       I    between atoms: N2_19  and  C15_21 
REMARK    8  A    between atoms: C15_21  and  C16_23 
REMARK    9  A    between atoms: C16_23  and  C17_24 
REMARK   10  A    between atoms: C20_27  and  C21_28 
REMARK   11  A    between atoms: C21_28  and  N3_29 
REMARK   12  A    between atoms: C24_34  and  C25_35 
ROOT
HETATM    1  N2  UNL     1      -5.145  25.984  -1.694  1.00  0.00    -0.348 N 
ATOM      2  H2  UNL     1      -5.839  25.247  -1.567  1.00  0.00     0.163 HD
HETATM    3  C15 UNL     1      -4.494  26.547  -0.578  1.00  0.00     0.218 C 
HETATM    4  O3  UNL     1      -3.636  27.453  -0.776  1.00  0.00    -0.274 OA
ENDROOT
BRANCH   1   5
HETATM    5  C13 UNL     1      -4.818  26.463  -3.038  1.00  0.00     0.168 C 
BRANCH   5   6
HETATM    6  C5  UNL     1      -6.079  26.633  -3.842  1.00  0.00     0.114 C 
BRANCH   6   7
HETATM    7  C4  UNL     1      -6.953  25.439  -3.712  1.00  0.00     0.031 C 
BRANCH   7   8
HETATM    8  C2  UNL     1      -8.263  25.756  -3.059  1.00  0.00    -0.021 C 
HETATM    9  C1  UNL     1      -9.373  25.428  -4.070  1.00  0.00     0.009 C 
HETATM   10  C3  UNL     1      -8.508  24.998  -1.784  1.00  0.00     0.009 C 
ENDBRANCH   7   8
ENDBRANCH   6   7
BRANCH   6  11
HETATM   11  N1  UNL     1      -6.782  27.853  -3.446  1.00  0.00    -0.354 N 
HETATM   12  C6  UNL     1      -7.525  28.648  -4.358  1.00  0.00     0.222 C 
HETATM   13  O1  UNL     1      -7.579  28.289  -5.555  1.00  0.00    -0.273 OA
ATOM     14  H1  UNL     1      -6.737  28.145  -2.471  1.00  0.00     0.163 HD
BRANCH  12  15
HETATM   15  C7  UNL     1      -8.201  29.855  -3.880  1.00  0.00     0.078 C 
HETATM   16  C8  UNL     1      -9.349  30.296  -4.724  1.00  0.00     0.014 C 
HETATM   17  C9  UNL     1     -10.618  29.532  -4.519  1.00  0.00     0.001 C 
HETATM   18  C10 UNL     1     -10.959  29.235  -3.095  1.00  0.00     0.000 C 
HETATM   19  C11 UNL     1      -9.766  28.796  -2.271  1.00  0.00     0.001 C 
HETATM   20  C12 UNL     1      -8.642  29.777  -2.432  1.00  0.00     0.014 C 
ENDBRANCH  12  15
ENDBRANCH   6  11
ENDBRANCH   5   6
BRANCH   5  21
HETATM   21  C14 UNL     1      -3.856  25.549  -3.701  1.00  0.00     0.258 C 
HETATM   22  O2  UNL     1      -2.679  25.564  -3.437  1.00  0.00    -0.305 OA
ENDBRANCH   5  21
ENDBRANCH   1   5
BRANCH   3  23
HETATM   23  C16 UNL     1      -4.830  26.068   0.769  1.00  0.00     0.107 C 
BRANCH  23  24
HETATM   24  C17 UNL     1      -6.294  25.990   1.037  1.00  0.00    -0.006 C 
HETATM   25  C18 UNL     1      -6.494  25.694   2.522  1.00  0.00     0.005 C 
HETATM   26  C19 UNL     1      -6.661  27.021   3.231  1.00  0.00     0.006 C 
HETATM   27  C20 UNL     1      -8.084  27.554   2.943  1.00  0.00     0.004 C 
HETATM   28  C26 UNL     1      -8.279  27.451   1.487  1.00  0.00     0.006 C 
HETATM   29  C27 UNL     1      -6.956  27.315   0.704  1.00  0.00     0.005 C 
BRANCH  27  30
HETATM   30  C21 UNL     1      -8.200  28.849   3.634  1.00  0.00     0.134 C 
BRANCH  30  31
HETATM   31  N3  UNL     1      -8.445  30.013   2.865  1.00  0.00    -0.311 N 
HETATM   32  C22 UNL     1      -9.755  30.423   2.345  1.00  0.00     0.363 C 
HETATM   33  O4  UNL     1     -10.807  30.119   2.935  1.00  0.00    -0.238 OA
HETATM   34  O5  UNL     1      -9.468  31.129   1.194  1.00  0.00    -0.301 OA
HETATM   35  C23 UNL     1      -8.038  31.183   0.975  1.00  0.00     0.217 C 
HETATM   36  C24 UNL     1      -7.598  31.072   2.441  1.00  0.00     0.214 C 
BRANCH  36  37
HETATM   37  C25 UNL     1      -6.196  31.100   2.682  1.00  0.00     0.199 C 
HETATM   38  O6  UNL     1      -5.432  30.212   2.154  1.00  0.00    -0.646 OA
HETATM   39  O7  UNL     1      -5.545  32.025   3.458  1.00  0.00    -0.646 OA
ENDBRANCH  36  37
ENDBRANCH  30  31
ENDBRANCH  27  30
ENDBRANCH  23  24
ENDBRANCH   3  23
TORSDOF 12
ENDMDL
MODEL 5
REMARK VINA RESULT: -8.048203204      2.013      4.485
REMARK  12 active torsions:
REMARK  status: ('A' for Active; 'I' for Inactive)
REMARK    1  A    between atoms: C2_2  and  C4_4 
REMARK    2  A    between atoms: C4_4  and  C5_5 
REMARK    3  A    between atoms: C5_5  and  N1_6 
REMARK    4  A    between atoms: C5_5  and  C13_16 
REMARK       I    between atoms: N1_6  and  C6_8 
REMARK    5  A    between atoms: C6_8  and  C7_10 
REMARK    6  A    between atoms: C13_16  and  C14_17 
REMARK    7  A    between atoms: C13_16  and  N2_19 
REMARK       I    between atoms: N2_19  and  C15_21 
REMARK    8  A    between atoms: C15_21  and  C16_23 
REMARK    9  A    between atoms: C16_23  and  C17_24 
REMARK   10  A    between atoms: C20_27  and  C21_28 
REMARK   11  A    between atoms: C21_28  and  N3_29 
REMARK   12  A    between atoms: C24_34  and  C25_35 
ROOT
HETATM    1  N2  UNL     1      -7.863  27.733  -1.861  1.00  0.00    -0.348 N 
ATOM      2  H2  UNL     1      -6.945  27.888  -1.446  1.00  0.00     0.163 HD
HETATM    3  C15 UNL     1      -9.029  27.882  -1.082  1.00  0.00     0.218 C 
HETATM    4  O3  UNL     1     -10.149  27.688  -1.633  1.00  0.00    -0.274 OA
ENDROOT
BRANCH   1   5
HETATM    5  C13 UNL     1      -7.980  27.356  -3.270  1.00  0.00     0.168 C 
BRANCH   5   6
HETATM    6  C5  UNL     1      -7.900  25.860  -3.409  1.00  0.00     0.114 C 
BRANCH   6   7
HETATM    7  C4  UNL     1      -7.771  25.468  -4.836  1.00  0.00     0.031 C 
BRANCH   7   8
HETATM    8  C2  UNL     1      -9.092  25.430  -5.541  1.00  0.00    -0.021 C 
HETATM    9  C1  UNL     1      -9.061  26.509  -6.635  1.00  0.00     0.009 C 
HETATM   10  C3  UNL     1      -9.415  24.099  -6.160  1.00  0.00     0.009 C 
ENDBRANCH   7   8
ENDBRANCH   6   7
BRANCH   6  11
HETATM   11  N1  UNL     1      -6.798  25.326  -2.609  1.00  0.00    -0.354 N 
HETATM   12  C6  UNL     1      -6.991  24.668  -1.366  1.00  0.00     0.222 C 
HETATM   13  O1  UNL     1      -8.158  24.540  -0.935  1.00  0.00    -0.273 OA
ATOM     14  H1  UNL     1      -5.846  25.432  -2.961  1.00  0.00     0.163 HD
BRANCH  12  15
HETATM   15  C7  UNL     1      -5.832  24.162  -0.628  1.00  0.00     0.078 C 
HETATM   16  C8  UNL     1      -4.587  24.963  -0.808  1.00  0.00     0.014 C 
HETATM   17  C9  UNL     1      -4.521  26.221  -0.004  1.00  0.00     0.001 C 
HETATM   18  C10 UNL     1      -4.995  26.101   1.407  1.00  0.00     0.000 C 
HETATM   19  C11 UNL     1      -6.258  25.276   1.548  1.00  0.00     0.001 C 
HETATM   20  C12 UNL     1      -6.091  23.958   0.852  1.00  0.00     0.014 C 
ENDBRANCH  12  15
ENDBRANCH   6  11
ENDBRANCH   5   6
BRANCH   5  21
HETATM   21  C14 UNL     1      -6.950  28.046  -4.085  1.00  0.00     0.258 C 
HETATM   22  O2  UNL     1      -5.774  27.951  -3.836  1.00  0.00    -0.305 OA
ENDBRANCH   5  21
ENDBRANCH   1   5
BRANCH   3  23
HETATM   23  C16 UNL     1      -8.906  28.253   0.333  1.00  0.00     0.107 C 
BRANCH  23  24
HETATM   24  C17 UNL     1      -9.736  29.428   0.725  1.00  0.00    -0.006 C 
HETATM   25  C18 UNL     1     -10.100  29.286   2.202  1.00  0.00     0.005 C 
HETATM   26  C19 UNL     1      -9.056  30.038   3.001  1.00  0.00     0.006 C 
HETATM   27  C20 UNL     1      -9.340  31.552   2.873  1.00  0.00     0.004 C 
HETATM   28  C26 UNL     1      -9.523  31.821   1.436  1.00  0.00     0.006 C 
HETATM   29  C27 UNL     1      -8.947  30.710   0.532  1.00  0.00     0.005 C 
BRANCH  27  30
HETATM   30  C21 UNL     1      -8.297  32.246   3.647  1.00  0.00     0.134 C 
BRANCH  30  31
HETATM   31  N3  UNL     1      -7.394  33.097   2.965  1.00  0.00    -0.311 N 
HETATM   32  C22 UNL     1      -7.661  34.493   2.598  1.00  0.00     0.363 C 
HETATM   33  O4  UNL     1      -8.429  35.203   3.272  1.00  0.00    -0.238 OA
HETATM   34  O5  UNL     1      -6.907  34.705   1.461  1.00  0.00    -0.301 OA
HETATM   35  C23 UNL     1      -6.177  33.506   1.105  1.00  0.00     0.217 C 
HETATM   36  C24 UNL     1      -6.061  32.908   2.514  1.00  0.00     0.214 C 
BRANCH  36  37
HETATM   37  C25 UNL     1      -5.365  31.671   2.617  1.00  0.00     0.199 C 
HETATM   38  O6  UNL     1      -4.241  31.612   3.238  1.00  0.00    -0.646 OA
HETATM   39  O7  UNL     1      -5.794  30.476   2.098  1.00  0.00    -0.646 OA
ENDBRANCH  36  37
ENDBRANCH  30  31
ENDBRANCH  27  30
ENDBRANCH  23  24
ENDBRANCH   3  23
TORSDOF 12
ENDMDL
