MODEL 1
REMARK VINA RESULT: -6.804206230      0.000      0.000
REMARK  14 active torsions:
REMARK  status: ('A' for Active; 'I' for Inactive)
REMARK    1  A    between atoms: C2_2  and  C3_3 
REMARK    2  A    between atoms: C3_3  and  C4_4 
REMARK    3  A    between atoms: C3_3  and  N4_32 
REMARK    4  A    between atoms: C4_4  and  N1_5 
REMARK       I    between atoms: N1_5  and  C5_7 
REMARK    5  A    between atoms: C5_7  and  C6_9 
REMARK    6  A    between atoms: C6_9  and  N2_10 
REMARK    7  A    between atoms: C6_9  and  C20_28 
REMARK       I    between atoms: N2_10  and  C7_11 
REMARK    8  A    between atoms: N2_10  and  C14_22 
REMARK    9  A    between atoms: C7_11  and  C8_13 
REMARK   10  A    between atoms: C8_13  and  N3_14 
REMARK   11  A    between atoms: C8_13  and  C10_18 
REMARK       I    between atoms: N4_32  and  C24_34 
REMARK   12  A    between atoms: C24_34  and  C25_36 
REMARK   13  A    between atoms: C25_36  and  O4_37 
REMARK   14  A    between atoms: O4_37  and  C26_38 
ROOT
HETATM    1  C6  UNL     1      -8.386  29.261   1.403  1.00  0.00     0.187 C 
ENDROOT
BRANCH   1   2
HETATM    2  C5  UNL     1      -7.378  28.190   1.709  1.00  0.00     0.241 C 
HETATM    3  N1  UNL     1      -7.571  26.883   2.129  1.00  0.00    -0.357 N 
ATOM      4  H1  UNL     1      -8.528  26.554   2.257  1.00  0.00     0.162 HD
HETATM    5  O1  UNL     1      -6.128  28.503   1.564  1.00  0.00    -0.271 OA
BRANCH   3   6
HETATM    6  C4  UNL     1      -6.491  25.961   2.397  1.00  0.00     0.147 C 
BRANCH   6   7
HETATM    7  C3  UNL     1      -6.119  25.207   1.139  1.00  0.00     0.102 C 
BRANCH   7   8
HETATM    8  C2  UNL     1      -7.282  25.157   0.165  1.00  0.00     0.022 C 
HETATM    9  C1  UNL     1      -7.125  24.011  -0.814  1.00  0.00     0.007 C 
ENDBRANCH   7   8
BRANCH   7  10
HETATM   10  N4  UNL     1      -4.929  25.745   0.531  1.00  0.00    -0.353 N 
HETATM   11  C24 UNL     1      -3.838  24.877   0.154  1.00  0.00     0.242 C 
HETATM   12  O3  UNL     1      -3.901  23.639   0.345  1.00  0.00    -0.271 OA
ATOM     13  H4  UNL     1      -4.857  26.749   0.365  1.00  0.00     0.163 HD
BRANCH  11  14
HETATM   14  C25 UNL     1      -2.616  25.431  -0.468  1.00  0.00     0.281 C 
BRANCH  14  15
HETATM   15  O4  UNL     1      -2.685  25.505  -1.873  1.00  0.00    -0.312 OA
BRANCH  15  16
HETATM   16  C26 UNL     1      -3.756  26.151  -2.462  1.00  0.00     0.255 C 
HETATM   17  C27 UNL     1      -4.630  25.512  -3.498  1.00  0.00     0.126 C 
HETATM   18  O5  UNL     1      -4.012  27.328  -2.116  1.00  0.00    -0.266 OA
ENDBRANCH  15  16
ENDBRANCH  14  15
ENDBRANCH  11  14
ENDBRANCH   7  10
ENDBRANCH   6   7
ENDBRANCH   3   6
ENDBRANCH   1   2
BRANCH   1  19
HETATM   19  N2  UNL     1      -8.869  29.939   2.588  1.00  0.00    -0.331 N 
HETATM   20  C7  UNL     1      -8.297  31.218   3.010  1.00  0.00     0.252 C 
HETATM   21  O2  UNL     1      -8.801  31.763   4.040  1.00  0.00    -0.271 OA
BRANCH  20  22
HETATM   22  C8  UNL     1      -7.198  31.940   2.393  1.00  0.00     0.284 C 
BRANCH  22  23
HETATM   23  N3  UNL     1      -6.411  32.481   3.563  1.00  0.00    -0.066 N 
HETATM   24  C9  UNL     1      -5.093  31.873   3.549  1.00  0.00     0.267 C 
ATOM     25  H32 UNL     1      -6.373  33.501   3.573  1.00  0.00     0.277 HD
ATOM     26  H31 UNL     1      -6.892  32.352   4.453  1.00  0.00     0.277 HD
ENDBRANCH  22  23
BRANCH  22  27
HETATM   27  C10 UNL     1      -7.602  33.217   1.685  1.00  0.00    -0.014 C 
HETATM   28  C11 UNL     1      -8.920  33.058   1.016  1.00  0.00     0.017 C 
HETATM   29  C12 UNL     1      -6.596  33.438   0.502  1.00  0.00     0.017 C 
HETATM   30  C13 UNL     1      -7.476  34.455   2.504  1.00  0.00     0.017 C 
ENDBRANCH  22  27
ENDBRANCH  20  22
BRANCH  19  31
HETATM   31  C14 UNL     1      -9.918  29.441   3.453  1.00  0.00     0.088 C 
HETATM   32  C15 UNL     1     -11.132  30.343   3.586  1.00  0.00     0.025 C 
HETATM   33  C16 UNL     1     -12.158  29.520   4.358  1.00  0.00     0.002 C 
HETATM   34  C17 UNL     1     -11.673  29.036   5.685  1.00  0.00     0.000 C 
HETATM   35  C18 UNL     1     -10.480  28.105   5.409  1.00  0.00     0.002 C 
HETATM   36  C19 UNL     1      -9.422  29.079   4.847  1.00  0.00     0.025 C 
ENDBRANCH  19  31
ENDBRANCH   1  19
BRANCH   1  37
HETATM   37  C20 UNL     1      -9.341  28.817   0.380  1.00  0.00    -0.022 C 
HETATM   38  C21 UNL     1     -10.122  27.558   0.645  1.00  0.00     0.017 C 
HETATM   39  C22 UNL     1      -8.457  28.508  -0.894  1.00  0.00     0.017 C 
HETATM   40  C23 UNL     1     -10.255  29.876  -0.121  1.00  0.00     0.017 C 
ENDBRANCH   1  37
TORSDOF 14
ENDMDL
MODEL 2
REMARK VINA RESULT: -6.690848011      2.821      6.389
REMARK  14 active torsions:
REMARK  status: ('A' for Active; 'I' for Inactive)
REMARK    1  A    between atoms: C2_2  and  C3_3 
REMARK    2  A    between atoms: C3_3  and  C4_4 
REMARK    3  A    between atoms: C3_3  and  N4_32 
REMARK    4  A    between atoms: C4_4  and  N1_5 
REMARK       I    between atoms: N1_5  and  C5_7 
REMARK    5  A    between atoms: C5_7  and  C6_9 
REMARK    6  A    between atoms: C6_9  and  N2_10 
REMARK    7  A    between atoms: C6_9  and  C20_28 
REMARK       I    between atoms: N2_10  and  C7_11 
REMARK    8  A    between atoms: N2_10  and  C14_22 
REMARK    9  A    between atoms: C7_11  and  C8_13 
REMARK   10  A    between atoms: C8_13  and  N3_14 
REMARK   11  A    between atoms: C8_13  and  C10_18 
REMARK       I    between atoms: N4_32  and  C24_34 
REMARK   12  A    between atoms: C24_34  and  C25_36 
REMARK   13  A    between atoms: C25_36  and  O4_37 
REMARK   14  A    between atoms: O4_37  and  C26_38 
ROOT
HETATM    1  C6  UNL     1      -7.323  26.727  -1.117  1.00  0.00     0.187 C 
ENDROOT
BRANCH   1   2
HETATM    2  C5  UNL     1      -6.904  27.011   0.298  1.00  0.00     0.241 C 
HETATM    3  N1  UNL     1      -7.567  26.754   1.488  1.00  0.00    -0.357 N 
ATOM      4  H1  UNL     1      -8.478  26.297   1.444  1.00  0.00     0.162 HD
HETATM    5  O1  UNL     1      -5.751  27.580   0.465  1.00  0.00    -0.271 OA
BRANCH   3   6
HETATM    6  C4  UNL     1      -7.038  27.097   2.789  1.00  0.00     0.147 C 
BRANCH   6   7
HETATM    7  C3  UNL     1      -7.633  28.402   3.272  1.00  0.00     0.102 C 
BRANCH   7   8
HETATM    8  C2  UNL     1      -8.466  28.194   4.524  1.00  0.00     0.022 C 
HETATM    9  C1  UNL     1      -9.921  28.535   4.274  1.00  0.00     0.007 C 
ENDBRANCH   7   8
BRANCH   7  10
HETATM   10  N4  UNL     1      -6.620  29.409   3.459  1.00  0.00    -0.353 N 
HETATM   11  C24 UNL     1      -6.417  30.441   2.468  1.00  0.00     0.242 C 
HETATM   12  O3  UNL     1      -7.115  30.485   1.428  1.00  0.00    -0.271 OA
ATOM     13  H4  UNL     1      -6.041  29.393   4.298  1.00  0.00     0.163 HD
BRANCH  11  14
HETATM   14  C25 UNL     1      -5.375  31.473   2.660  1.00  0.00     0.281 C 
BRANCH  14  15
HETATM   15  O4  UNL     1      -5.118  32.233   1.502  1.00  0.00    -0.312 OA
BRANCH  15  16
HETATM   16  C26 UNL     1      -5.898  33.344   1.238  1.00  0.00     0.255 C 
HETATM   17  C27 UNL     1      -6.206  34.393   2.263  1.00  0.00     0.126 C 
HETATM   18  O5  UNL     1      -6.372  33.484   0.087  1.00  0.00    -0.266 OA
ENDBRANCH  15  16
ENDBRANCH  14  15
ENDBRANCH  11  14
ENDBRANCH   7  10
ENDBRANCH   6   7
ENDBRANCH   3   6
ENDBRANCH   1   2
BRANCH   1  19
HETATM   19  N2  UNL     1      -8.665  27.185  -1.413  1.00  0.00    -0.331 N 
HETATM   20  C7  UNL     1      -8.904  28.207  -2.433  1.00  0.00     0.252 C 
HETATM   21  O2  UNL     1     -10.113  28.527  -2.656  1.00  0.00    -0.271 OA
BRANCH  20  22
HETATM   22  C8  UNL     1      -7.913  28.918  -3.220  1.00  0.00     0.284 C 
BRANCH  22  23
HETATM   23  N3  UNL     1      -8.609  30.197  -3.619  1.00  0.00    -0.066 N 
HETATM   24  C9  UNL     1      -8.721  31.043  -2.445  1.00  0.00     0.267 C 
ATOM     25  H32 UNL     1      -8.149  30.668  -4.399  1.00  0.00     0.277 HD
ATOM     26  H31 UNL     1      -9.509  30.030  -4.069  1.00  0.00     0.277 HD
ENDBRANCH  22  23
BRANCH  22  27
HETATM   27  C10 UNL     1      -7.619  28.300  -4.571  1.00  0.00    -0.014 C 
HETATM   28  C11 UNL     1      -6.212  27.825  -4.643  1.00  0.00     0.017 C 
HETATM   29  C12 UNL     1      -7.691  29.446  -5.639  1.00  0.00     0.017 C 
HETATM   30  C13 UNL     1      -8.625  27.305  -5.039  1.00  0.00     0.017 C 
ENDBRANCH  22  27
ENDBRANCH  20  22
BRANCH  19  31
HETATM   31  C14 UNL     1      -9.862  26.710  -0.752  1.00  0.00     0.088 C 
HETATM   32  C15 UNL     1     -10.813  25.912  -1.627  1.00  0.00     0.025 C 
HETATM   33  C16 UNL     1     -11.863  25.357  -0.671  1.00  0.00     0.002 C 
HETATM   34  C17 UNL     1     -12.577  26.404   0.120  1.00  0.00     0.000 C 
HETATM   35  C18 UNL     1     -11.517  27.102   0.989  1.00  0.00     0.002 C 
HETATM   36  C19 UNL     1     -10.646  27.820  -0.063  1.00  0.00     0.025 C 
ENDBRANCH  19  31
ENDBRANCH   1  19
BRANCH   1  37
HETATM   37  C20 UNL     1      -6.903  25.385  -1.538  1.00  0.00    -0.022 C 
HETATM   38  C21 UNL     1      -7.036  24.262  -0.544  1.00  0.00     0.017 C 
HETATM   39  C22 UNL     1      -5.354  25.515  -1.827  1.00  0.00     0.017 C 
HETATM   40  C23 UNL     1      -7.434  24.951  -2.856  1.00  0.00     0.017 C 
ENDBRANCH   1  37
TORSDOF 14
ENDMDL
MODEL 3
REMARK VINA RESULT: -6.641385614      3.590      7.000
REMARK  14 active torsions:
REMARK  status: ('A' for Active; 'I' for Inactive)
REMARK    1  A    between atoms: C2_2  and  C3_3 
REMARK    2  A    between atoms: C3_3  and  C4_4 
REMARK    3  A    between atoms: C3_3  and  N4_32 
REMARK    4  A    between atoms: C4_4  and  N1_5 
REMARK       I    between atoms: N1_5  and  C5_7 
REMARK    5  A    between atoms: C5_7  and  C6_9 
REMARK    6  A    between atoms: C6_9  and  N2_10 
REMARK    7  A    between atoms: C6_9  and  C20_28 
REMARK       I    between atoms: N2_10  and  C7_11 
REMARK    8  A    between atoms: N2_10  and  C14_22 
REMARK    9  A    between atoms: C7_11  and  C8_13 
REMARK   10  A    between atoms: C8_13  and  N3_14 
REMARK   11  A    between atoms: C8_13  and  C10_18 
REMARK       I    between atoms: N4_32  and  C24_34 
REMARK   12  A    between atoms: C24_34  and  C25_36 
REMARK   13  A    between atoms: C25_36  and  O4_37 
REMARK   14  A    between atoms: O4_37  and  C26_38 
ROOT
HETATM    1  C6  UNL     1      -7.357  26.973  -2.498  1.00  0.00     0.187 C 
ENDROOT
BRANCH   1   2
HETATM    2  C5  UNL     1      -7.102  26.691  -1.044  1.00  0.00     0.241 C 
HETATM    3  N1  UNL     1      -6.515  27.491  -0.075  1.00  0.00    -0.357 N 
ATOM      4  H1  UNL     1      -6.200  28.422  -0.344  1.00  0.00     0.162 HD
HETATM    5  O1  UNL     1      -7.479  25.535  -0.596  1.00  0.00    -0.271 OA
BRANCH   3   6
HETATM    6  C4  UNL     1      -6.326  27.076   1.297  1.00  0.00     0.147 C 
BRANCH   6   7
HETATM    7  C3  UNL     1      -6.766  28.170   2.244  1.00  0.00     0.102 C 
BRANCH   7   8
HETATM    8  C2  UNL     1      -7.097  27.609   3.615  1.00  0.00     0.022 C 
HETATM    9  C1  UNL     1      -8.478  28.043   4.064  1.00  0.00     0.007 C 
ENDBRANCH   7   8
BRANCH   7  10
HETATM   10  N4  UNL     1      -5.794  29.231   2.315  1.00  0.00    -0.353 N 
HETATM   11  C24 UNL     1      -6.213  30.599   2.521  1.00  0.00     0.242 C 
HETATM   12  O3  UNL     1      -7.425  30.893   2.644  1.00  0.00    -0.271 OA
ATOM     13  H4  UNL     1      -4.803  29.015   2.220  1.00  0.00     0.163 HD
BRANCH  11  14
HETATM   14  C25 UNL     1      -5.214  31.688   2.592  1.00  0.00     0.281 C 
BRANCH  14  15
HETATM   15  O4  UNL     1      -5.083  32.409   1.389  1.00  0.00    -0.312 OA
BRANCH  15  16
HETATM   16  C26 UNL     1      -5.949  33.455   1.132  1.00  0.00     0.255 C 
HETATM   17  C27 UNL     1      -6.356  34.457   2.170  1.00  0.00     0.126 C 
HETATM   18  O5  UNL     1      -6.420  33.576  -0.023  1.00  0.00    -0.266 OA
ENDBRANCH  15  16
ENDBRANCH  14  15
ENDBRANCH  11  14
ENDBRANCH   7  10
ENDBRANCH   6   7
ENDBRANCH   3   6
ENDBRANCH   1   2
BRANCH   1  19
HETATM   19  N2  UNL     1      -8.765  27.091  -2.813  1.00  0.00    -0.331 N 
HETATM   20  C7  UNL     1      -9.244  28.112  -3.746  1.00  0.00     0.252 C 
HETATM   21  O2  UNL     1     -10.490  28.126  -3.995  1.00  0.00    -0.271 OA
BRANCH  20  22
HETATM   22  C8  UNL     1      -8.460  29.133  -4.416  1.00  0.00     0.284 C 
BRANCH  22  23
HETATM   23  N3  UNL     1      -9.144  30.427  -4.043  1.00  0.00    -0.066 N 
HETATM   24  C9  UNL     1      -8.778  30.761  -2.679  1.00  0.00     0.267 C 
ATOM     25  H32 UNL     1      -8.942  31.182  -4.699  1.00  0.00     0.277 HD
ATOM     26  H31 UNL     1     -10.154  30.390  -4.180  1.00  0.00     0.277 HD
ENDBRANCH  22  23
BRANCH  22  27
HETATM   27  C10 UNL     1      -8.598  29.145  -5.925  1.00  0.00    -0.014 C 
HETATM   28  C11 UNL     1      -8.728  27.761  -6.456  1.00  0.00     0.017 C 
HETATM   29  C12 UNL     1      -7.240  29.657  -6.519  1.00  0.00     0.017 C 
HETATM   30  C13 UNL     1      -9.609  30.101  -6.456  1.00  0.00     0.017 C 
ENDBRANCH  22  27
ENDBRANCH  20  22
BRANCH  19  31
HETATM   31  C14 UNL     1      -9.808  26.256  -2.256  1.00  0.00     0.088 C 
HETATM   32  C15 UNL     1     -10.597  25.442  -3.266  1.00  0.00     0.025 C 
HETATM   33  C16 UNL     1     -11.468  24.508  -2.434  1.00  0.00     0.002 C 
HETATM   34  C17 UNL     1     -12.361  25.214  -1.466  1.00  0.00     0.000 C 
HETATM   35  C18 UNL     1     -11.444  25.958  -0.479  1.00  0.00     0.002 C 
HETATM   36  C19 UNL     1     -10.786  27.025  -1.377  1.00  0.00     0.025 C 
ENDBRANCH  19  31
ENDBRANCH   1  19
BRANCH   1  37
HETATM   37  C20 UNL     1      -6.485  26.164  -3.358  1.00  0.00    -0.022 C 
HETATM   38  C21 UNL     1      -5.440  25.306  -2.694  1.00  0.00     0.017 C 
HETATM   39  C22 UNL     1      -5.683  27.214  -4.227  1.00  0.00     0.017 C 
HETATM   40  C23 UNL     1      -7.194  25.373  -4.396  1.00  0.00     0.017 C 
ENDBRANCH   1  37
TORSDOF 14
ENDMDL
MODEL 4
REMARK VINA RESULT: -6.377502950      2.254      3.942
REMARK  14 active torsions:
REMARK  status: ('A' for Active; 'I' for Inactive)
REMARK    1  A    between atoms: C2_2  and  C3_3 
REMARK    2  A    between atoms: C3_3  and  C4_4 
REMARK    3  A    between atoms: C3_3  and  N4_32 
REMARK    4  A    between atoms: C4_4  and  N1_5 
REMARK       I    between atoms: N1_5  and  C5_7 
REMARK    5  A    between atoms: C5_7  and  C6_9 
REMARK    6  A    between atoms: C6_9  and  N2_10 
REMARK    7  A    between atoms: C6_9  and  C20_28 
REMARK       I    between atoms: N2_10  and  C7_11 
REMARK    8  A    between atoms: N2_10  and  C14_22 
REMARK    9  A    between atoms: C7_11  and  C8_13 
REMARK   10  A    between atoms: C8_13  and  N3_14 
REMARK   11  A    between atoms: C8_13  and  C10_18 
REMARK       I    between atoms: N4_32  and  C24_34 
REMARK   12  A    between atoms: C24_34  and  C25_36 
REMARK   13  A    between atoms: C25_36  and  O4_37 
REMARK   14  A    between atoms: O4_37  and  C26_38 
ROOT
HETATM    1  C6  UNL     1      -9.471  29.488   0.526  1.00  0.00     0.187 C 
ENDROOT
BRANCH   1   2
HETATM    2  C5  UNL     1      -9.086  29.569  -0.924  1.00  0.00     0.241 C 
HETATM    3  N1  UNL     1      -8.730  28.559  -1.806  1.00  0.00    -0.357 N 
ATOM      4  H1  UNL     1      -8.723  27.599  -1.461  1.00  0.00     0.162 HD
HETATM    5  O1  UNL     1      -9.078  30.747  -1.464  1.00  0.00    -0.271 OA
BRANCH   3   6
HETATM    6  C4  UNL     1      -8.371  28.792  -3.186  1.00  0.00     0.147 C 
BRANCH   6   7
HETATM    7  C3  UNL     1      -7.721  27.561  -3.776  1.00  0.00     0.102 C 
BRANCH   7   8
HETATM    8  C2  UNL     1      -7.944  27.488  -5.276  1.00  0.00     0.022 C 
HETATM    9  C1  UNL     1      -8.723  26.243  -5.652  1.00  0.00     0.007 C 
ENDBRANCH   7   8
BRANCH   7  10
HETATM   10  N4  UNL     1      -6.323  27.484  -3.435  1.00  0.00    -0.353 N 
HETATM   11  C24 UNL     1      -5.782  26.298  -2.811  1.00  0.00     0.242 C 
HETATM   12  O3  UNL     1      -6.512  25.311  -2.556  1.00  0.00    -0.271 OA
ATOM     13  H4  UNL     1      -5.710  28.273  -3.635  1.00  0.00     0.163 HD
BRANCH  11  14
HETATM   14  C25 UNL     1      -4.348  26.221  -2.459  1.00  0.00     0.281 C 
BRANCH  14  15
HETATM   15  O4  UNL     1      -3.962  27.148  -1.470  1.00  0.00    -0.312 OA
BRANCH  15  16
HETATM   16  C26 UNL     1      -3.367  26.688  -0.310  1.00  0.00     0.255 C 
HETATM   17  C27 UNL     1      -3.082  25.239  -0.053  1.00  0.00     0.126 C 
HETATM   18  O5  UNL     1      -3.048  27.519   0.572  1.00  0.00    -0.266 OA
ENDBRANCH  15  16
ENDBRANCH  14  15
ENDBRANCH  11  14
ENDBRANCH   7  10
ENDBRANCH   6   7
ENDBRANCH   3   6
ENDBRANCH   1   2
BRANCH   1  19
HETATM   19  N2  UNL     1      -8.334  29.306   1.405  1.00  0.00    -0.331 N 
HETATM   20  C7  UNL     1      -7.649  30.456   1.997  1.00  0.00     0.252 C 
HETATM   21  O2  UNL     1      -6.683  30.209   2.783  1.00  0.00    -0.271 OA
BRANCH  20  22
HETATM   22  C8  UNL     1      -7.934  31.862   1.778  1.00  0.00     0.284 C 
BRANCH  22  23
HETATM   23  N3  UNL     1      -6.576  32.524   1.819  1.00  0.00    -0.066 N 
HETATM   24  C9  UNL     1      -6.406  33.295   0.602  1.00  0.00     0.267 C 
ATOM     25  H32 UNL     1      -6.438  33.084   2.661  1.00  0.00     0.277 HD
ATOM     26  H31 UNL     1      -5.820  31.857   1.970  1.00  0.00     0.277 HD
ENDBRANCH  22  23
BRANCH  22  27
HETATM   27  C10 UNL     1      -8.638  32.549   2.931  1.00  0.00    -0.014 C 
HETATM   28  C11 UNL     1      -9.546  31.605   3.635  1.00  0.00     0.017 C 
HETATM   29  C12 UNL     1      -9.602  33.625   2.320  1.00  0.00     0.017 C 
HETATM   30  C13 UNL     1      -7.748  33.331   3.834  1.00  0.00     0.017 C 
ENDBRANCH  22  27
ENDBRANCH  20  22
BRANCH  19  31
HETATM   31  C14 UNL     1      -7.769  28.024   1.767  1.00  0.00     0.088 C 
HETATM   32  C15 UNL     1      -7.117  27.966   3.137  1.00  0.00     0.025 C 
HETATM   33  C16 UNL     1      -6.798  26.493   3.366  1.00  0.00     0.002 C 
HETATM   34  C17 UNL     1      -5.933  25.888   2.310  1.00  0.00     0.000 C 
HETATM   35  C18 UNL     1      -6.721  25.968   0.991  1.00  0.00     0.002 C 
HETATM   36  C19 UNL     1      -6.786  27.489   0.735  1.00  0.00     0.025 C 
ENDBRANCH  19  31
ENDBRANCH   1  19
BRANCH   1  37
HETATM   37  C20 UNL     1     -10.672  28.666   0.713  1.00  0.00    -0.022 C 
HETATM   38  C21 UNL     1     -10.664  27.269   0.153  1.00  0.00     0.017 C 
HETATM   39  C22 UNL     1     -11.814  29.431  -0.069  1.00  0.00     0.017 C 
HETATM   40  C23 UNL     1     -11.203  28.644   2.101  1.00  0.00     0.017 C 
ENDBRANCH   1  37
TORSDOF 14
ENDMDL
MODEL 5
REMARK VINA RESULT: -6.332030793      2.548      6.656
REMARK  14 active torsions:
REMARK  status: ('A' for Active; 'I' for Inactive)
REMARK    1  A    between atoms: C2_2  and  C3_3 
REMARK    2  A    between atoms: C3_3  and  C4_4 
REMARK    3  A    between atoms: C3_3  and  N4_32 
REMARK    4  A    between atoms: C4_4  and  N1_5 
REMARK       I    between atoms: N1_5  and  C5_7 
REMARK    5  A    between atoms: C5_7  and  C6_9 
REMARK    6  A    between atoms: C6_9  and  N2_10 
REMARK    7  A    between atoms: C6_9  and  C20_28 
REMARK       I    between atoms: N2_10  and  C7_11 
REMARK    8  A    between atoms: N2_10  and  C14_22 
REMARK    9  A    between atoms: C7_11  and  C8_13 
REMARK   10  A    between atoms: C8_13  and  N3_14 
REMARK   11  A    between atoms: C8_13  and  C10_18 
REMARK       I    between atoms: N4_32  and  C24_34 
REMARK   12  A    between atoms: C24_34  and  C25_36 
REMARK   13  A    between atoms: C25_36  and  O4_37 
REMARK   14  A    between atoms: O4_37  and  C26_38 
ROOT
HETATM    1  C6  UNL     1      -7.343  26.853  -0.343  1.00  0.00     0.187 C 
ENDROOT
BRANCH   1   2
HETATM    2  C5  UNL     1      -7.267  27.491   1.015  1.00  0.00     0.241 C 
HETATM    3  N1  UNL     1      -7.991  27.218   2.165  1.00  0.00    -0.357 N 
ATOM      4  H1  UNL     1      -8.688  26.474   2.132  1.00  0.00     0.162 HD
HETATM    5  O1  UNL     1      -6.400  28.442   1.168  1.00  0.00    -0.271 OA
BRANCH   3   6
HETATM    6  C4  UNL     1      -7.813  27.931   3.410  1.00  0.00     0.147 C 
BRANCH   6   7
HETATM    7  C3  UNL     1      -8.917  28.948   3.597  1.00  0.00     0.102 C 
BRANCH   7   8
HETATM    8  C2  UNL     1      -9.706  28.674   4.865  1.00  0.00     0.022 C 
HETATM    9  C1  UNL     1     -11.169  28.428   4.554  1.00  0.00     0.007 C 
ENDBRANCH   7   8
BRANCH   7  10
HETATM   10  N4  UNL     1      -8.407  30.295   3.561  1.00  0.00    -0.353 N 
HETATM   11  C24 UNL     1      -8.478  31.075   2.346  1.00  0.00     0.242 C 
HETATM   12  O3  UNL     1      -8.984  30.602   1.302  1.00  0.00    -0.271 OA
ATOM     13  H4  UNL     1      -7.993  30.702   4.399  1.00  0.00     0.163 HD
BRANCH  11  14
HETATM   14  C25 UNL     1      -7.952  32.457   2.309  1.00  0.00     0.281 C 
BRANCH  14  15
HETATM   15  O4  UNL     1      -6.736  32.614   3.003  1.00  0.00    -0.312 OA
BRANCH  15  16
HETATM   16  C26 UNL     1      -5.564  32.176   2.417  1.00  0.00     0.255 C 
HETATM   17  C27 UNL     1      -4.619  31.223   3.085  1.00  0.00     0.126 C 
HETATM   18  O5  UNL     1      -5.273  32.592   1.272  1.00  0.00    -0.266 OA
ENDBRANCH  15  16
ENDBRANCH  14  15
ENDBRANCH  11  14
ENDBRANCH   7  10
ENDBRANCH   6   7
ENDBRANCH   3   6
ENDBRANCH   1   2
BRANCH   1  19
HETATM   19  N2  UNL     1      -8.620  27.058  -0.995  1.00  0.00    -0.331 N 
HETATM   20  C7  UNL     1      -8.701  27.704  -2.306  1.00  0.00     0.252 C 
HETATM   21  O2  UNL     1      -9.856  27.815  -2.823  1.00  0.00    -0.271 OA
BRANCH  20  22
HETATM   22  C8  UNL     1      -7.609  28.253  -3.088  1.00  0.00     0.284 C 
BRANCH  22  23
HETATM   23  N3  UNL     1      -8.223  29.438  -3.796  1.00  0.00    -0.066 N 
HETATM   24  C9  UNL     1      -8.510  30.462  -2.808  1.00  0.00     0.267 C 
ATOM     25  H32 UNL     1      -7.642  29.782  -4.561  1.00  0.00     0.277 HD
ATOM     26  H31 UNL     1      -9.043  29.184  -4.347  1.00  0.00     0.277 HD
ENDBRANCH  22  23
BRANCH  22  27
HETATM   27  C10 UNL     1      -7.179  27.394  -4.259  1.00  0.00    -0.014 C 
HETATM   28  C11 UNL     1      -5.711  27.491  -4.476  1.00  0.00     0.017 C 
HETATM   29  C12 UNL     1      -7.800  28.019  -5.557  1.00  0.00     0.017 C 
HETATM   30  C13 UNL     1      -7.703  25.999  -4.242  1.00  0.00     0.017 C 
ENDBRANCH  22  27
ENDBRANCH  20  22
BRANCH  19  31
HETATM   31  C14 UNL     1      -9.901  26.675  -0.439  1.00  0.00     0.088 C 
HETATM   32  C15 UNL     1     -10.757  25.793  -1.330  1.00  0.00     0.025 C 
HETATM   33  C16 UNL     1     -11.930  25.362  -0.456  1.00  0.00     0.002 C 
HETATM   34  C17 UNL     1     -12.709  26.500   0.119  1.00  0.00     0.000 C 
HETATM   35  C18 UNL     1     -11.746  27.281   1.029  1.00  0.00     0.002 C 
HETATM   36  C19 UNL     1     -10.735  27.865   0.019  1.00  0.00     0.025 C 
ENDBRANCH  19  31
ENDBRANCH   1  19
BRANCH   1  37
HETATM   37  C20 UNL     1      -6.737  25.516  -0.339  1.00  0.00    -0.022 C 
HETATM   38  C21 UNL     1      -6.257  24.965   0.977  1.00  0.00     0.017 C 
HETATM   39  C22 UNL     1      -5.444  25.652  -1.239  1.00  0.00     0.017 C 
HETATM   40  C23 UNL     1      -7.515  24.476  -1.061  1.00  0.00     0.017 C 
ENDBRANCH   1  37
TORSDOF 14
ENDMDL
