MODEL 1
REMARK VINA RESULT: -7.212625847      0.000      0.000
REMARK  8 active torsions:
REMARK  status: ('A' for Active; 'I' for Inactive)
REMARK    1  A    between atoms: C3_5  and  C4_6 
REMARK    2  A    between atoms: C4_6  and  C5_7 
REMARK    3  A    between atoms: N2_9  and  C7_10 
REMARK    4  A    between atoms: C7_10  and  O1_11 
REMARK    5  A    between atoms: O1_11  and  C8_12 
REMARK    6  A    between atoms: C8_12  and  C9_13 
REMARK    7  A    between atoms: C9_13  and  O2_14 
REMARK    8  A    between atoms: C12_24  and  N6_25 
ROOT
HETATM    1  C4  UNL     1      18.193 -18.437  43.531  1.00  0.00     0.079 C 
ENDROOT
BRANCH   1   2
HETATM    2  C3  UNL     1      17.191 -18.491  42.688  1.00  0.00     0.109 A 
HETATM    3  N1  UNL     1      17.367 -18.261  41.379  1.00  0.00    -0.341 N 
HETATM    4  C2  UNL     1      16.341 -18.310  40.481  1.00  0.00     0.054 A 
ATOM      5  H1  UNL     1      18.304 -18.041  41.042  1.00  0.00     0.167 HD
HETATM    6  C1  UNL     1      16.600 -18.072  39.213  1.00  0.00     0.045 C 
HETATM    7  C12 UNL     1      15.073 -18.603  40.898  1.00  0.00     0.093 A 
HETATM    8  C11 UNL     1      14.897 -18.842  42.269  1.00  0.00     0.146 A 
HETATM    9  N4  UNL     1      15.956 -18.775  43.089  1.00  0.00    -0.329 N 
HETATM   10  N5  UNL     1      13.600 -19.150  42.760  1.00  0.00    -0.080 NA
ATOM     11  H4  UNL     1      15.804 -18.952  44.081  1.00  0.00     0.168 HD
BRANCH   7  12
HETATM   12  N6  UNL     1      14.059 -18.666  40.104  1.00  0.00    -0.395 N 
ATOM     13  H62 UNL     1      14.209 -18.763  39.100  1.00  0.00     0.156 HD
ATOM     14  H61 UNL     1      13.091 -18.624  40.422  1.00  0.00     0.156 HD
ENDBRANCH   7  12
ENDBRANCH   1   2
BRANCH   1  15
HETATM   15  C5  UNL     1      19.181 -19.501  43.678  1.00  0.00     0.055 A 
HETATM   16  C6  UNL     1      20.541 -19.450  43.455  1.00  0.00     0.127 A 
HETATM   17  N2  UNL     1      21.112 -20.643  43.703  1.00  0.00    -0.286 N 
HETATM   18  C10 UNL     1      20.108 -21.454  44.085  1.00  0.00     0.328 A 
HETATM   19  O3  UNL     1      20.271 -22.654  44.396  1.00  0.00    -0.246 OA
HETATM   20  N3  UNL     1      18.943 -20.779  44.073  1.00  0.00    -0.307 N 
ATOM     21  H3  UNL     1      18.031 -21.164  44.321  1.00  0.00     0.170 HD
BRANCH  17  22
HETATM   22  C7  UNL     1      22.542 -20.985  43.580  1.00  0.00     0.302 C 
BRANCH  22  23
HETATM   23  O1  UNL     1      23.255 -20.543  44.662  1.00  0.00    -0.369 OA
BRANCH  23  24
HETATM   24  C8  UNL     1      23.771 -21.603  45.373  1.00  0.00     0.196 C 
BRANCH  24  25
HETATM   25  C9  UNL     1      24.740 -21.237  46.456  1.00  0.00     0.190 C 
BRANCH  25  26
HETATM   26  O2  UNL     1      25.228 -19.937  46.171  1.00  0.00    -0.399 OA
ATOM     27  H2  UNL     1      24.866 -19.347  46.822  1.00  0.00     0.209 HD
ENDBRANCH  25  26
ENDBRANCH  24  25
ENDBRANCH  23  24
ENDBRANCH  22  23
ENDBRANCH  17  22
ENDBRANCH   1  15
TORSDOF 8
ENDMDL
MODEL 2
REMARK VINA RESULT: -7.110322910      0.972      1.459
REMARK  8 active torsions:
REMARK  status: ('A' for Active; 'I' for Inactive)
REMARK    1  A    between atoms: C3_5  and  C4_6 
REMARK    2  A    between atoms: C4_6  and  C5_7 
REMARK    3  A    between atoms: N2_9  and  C7_10 
REMARK    4  A    between atoms: C7_10  and  O1_11 
REMARK    5  A    between atoms: O1_11  and  C8_12 
REMARK    6  A    between atoms: C8_12  and  C9_13 
REMARK    7  A    between atoms: C9_13  and  O2_14 
REMARK    8  A    between atoms: C12_24  and  N6_25 
ROOT
HETATM    1  C4  UNL     1      18.264 -18.195  43.603  1.00  0.00     0.079 C 
ENDROOT
BRANCH   1   2
HETATM    2  C3  UNL     1      17.283 -18.302  42.741  1.00  0.00     0.109 A 
HETATM    3  N1  UNL     1      17.487 -18.131  41.427  1.00  0.00    -0.341 N 
HETATM    4  C2  UNL     1      16.484 -18.236  40.508  1.00  0.00     0.054 A 
ATOM      5  H1  UNL     1      18.429 -17.913  41.101  1.00  0.00     0.167 HD
HETATM    6  C1  UNL     1      16.770 -18.053  39.237  1.00  0.00     0.045 C 
HETATM    7  C12 UNL     1      15.210 -18.527  40.910  1.00  0.00     0.093 A 
HETATM    8  C11 UNL     1      15.005 -18.704  42.286  1.00  0.00     0.146 A 
HETATM    9  N4  UNL     1      16.043 -18.584  43.126  1.00  0.00    -0.329 N 
HETATM   10  N5  UNL     1      13.701 -19.007  42.761  1.00  0.00    -0.080 NA
ATOM     11  H4  UNL     1      15.869 -18.718  44.122  1.00  0.00     0.168 HD
BRANCH   7  12
HETATM   12  N6  UNL     1      14.216 -18.641  40.096  1.00  0.00    -0.395 N 
ATOM     13  H62 UNL     1      14.355 -18.466  39.101  1.00  0.00     0.156 HD
ATOM     14  H61 UNL     1      13.275 -18.901  40.390  1.00  0.00     0.156 HD
ENDBRANCH   7  12
ENDBRANCH   1   2
BRANCH   1  15
HETATM   15  C5  UNL     1      19.351 -19.163  43.712  1.00  0.00     0.055 A 
HETATM   16  C6  UNL     1      19.334 -20.417  44.285  1.00  0.00     0.127 A 
HETATM   17  N2  UNL     1      20.539 -21.006  44.186  1.00  0.00    -0.286 N 
HETATM   18  C10 UNL     1      21.325 -20.120  43.546  1.00  0.00     0.328 A 
HETATM   19  O3  UNL     1      22.528 -20.332  43.278  1.00  0.00    -0.246 OA
HETATM   20  N3  UNL     1      20.622 -19.009  43.257  1.00  0.00    -0.307 N 
ATOM     21  H3  UNL     1      20.984 -18.186  42.774  1.00  0.00     0.170 HD
BRANCH  17  22
HETATM   22  C7  UNL     1      20.916 -22.345  44.678  1.00  0.00     0.302 C 
BRANCH  22  23
HETATM   23  O1  UNL     1      21.572 -22.269  45.877  1.00  0.00    -0.369 OA
BRANCH  23  24
HETATM   24  C8  UNL     1      22.871 -22.710  45.753  1.00  0.00     0.196 C 
BRANCH  24  25
HETATM   25  C9  UNL     1      23.909 -21.830  46.377  1.00  0.00     0.190 C 
BRANCH  25  26
HETATM   26  O2  UNL     1      24.265 -20.844  45.422  1.00  0.00    -0.399 OA
ATOM     27  H2  UNL     1      25.214 -20.799  45.398  1.00  0.00     0.209 HD
ENDBRANCH  25  26
ENDBRANCH  24  25
ENDBRANCH  23  24
ENDBRANCH  22  23
ENDBRANCH  17  22
ENDBRANCH   1  15
TORSDOF 8
ENDMDL
MODEL 3
REMARK VINA RESULT: -6.961052631      1.614      2.842
REMARK  8 active torsions:
REMARK  status: ('A' for Active; 'I' for Inactive)
REMARK    1  A    between atoms: C3_5  and  C4_6 
REMARK    2  A    between atoms: C4_6  and  C5_7 
REMARK    3  A    between atoms: N2_9  and  C7_10 
REMARK    4  A    between atoms: C7_10  and  O1_11 
REMARK    5  A    between atoms: O1_11  and  C8_12 
REMARK    6  A    between atoms: C8_12  and  C9_13 
REMARK    7  A    between atoms: C9_13  and  O2_14 
REMARK    8  A    between atoms: C12_24  and  N6_25 
ROOT
HETATM    1  C4  UNL     1      18.153 -18.049  43.507  1.00  0.00     0.079 C 
ENDROOT
BRANCH   1   2
HETATM    2  C3  UNL     1      17.166 -18.204  42.659  1.00  0.00     0.109 A 
HETATM    3  N1  UNL     1      17.356 -18.084  41.337  1.00  0.00    -0.341 N 
HETATM    4  C2  UNL     1      16.346 -18.240  40.433  1.00  0.00     0.054 A 
ATOM      5  H1  UNL     1      18.292 -17.867  40.994  1.00  0.00     0.167 HD
HETATM    6  C1  UNL     1      16.618 -18.105  39.153  1.00  0.00     0.045 C 
HETATM    7  C12 UNL     1      15.079 -18.531  40.859  1.00  0.00     0.093 A 
HETATM    8  C11 UNL     1      14.889 -18.655  42.243  1.00  0.00     0.146 A 
HETATM    9  N4  UNL     1      15.933 -18.487  43.067  1.00  0.00    -0.329 N 
HETATM   10  N5  UNL     1      13.594 -18.955  42.742  1.00  0.00    -0.080 NA
ATOM     11  H4  UNL     1      15.771 -18.582  44.069  1.00  0.00     0.168 HD
BRANCH   7  12
HETATM   12  N6  UNL     1      14.080 -18.691  40.060  1.00  0.00    -0.395 N 
ATOM     13  H62 UNL     1      13.471 -17.901  39.848  1.00  0.00     0.156 HD
ATOM     14  H61 UNL     1      13.853 -19.579  39.613  1.00  0.00     0.156 HD
ENDBRANCH   7  12
ENDBRANCH   1   2
BRANCH   1  15
HETATM   15  C5  UNL     1      19.148 -19.080  43.783  1.00  0.00     0.055 A 
HETATM   16  C6  UNL     1      18.969 -20.443  43.891  1.00  0.00     0.127 A 
HETATM   17  N2  UNL     1      20.135 -21.061  44.153  1.00  0.00    -0.286 N 
HETATM   18  C10 UNL     1      21.058 -20.083  44.213  1.00  0.00     0.328 A 
HETATM   19  O3  UNL     1      22.270 -20.291  44.444  1.00  0.00    -0.246 OA
HETATM   20  N3  UNL     1      20.477 -18.889  43.992  1.00  0.00    -0.307 N 
ATOM     21  H3  UNL     1      20.956 -17.988  43.983  1.00  0.00     0.170 HD
BRANCH  17  22
HETATM   22  C7  UNL     1      20.351 -22.508  44.337  1.00  0.00     0.302 C 
BRANCH  22  23
HETATM   23  O1  UNL     1      19.451 -23.038  45.223  1.00  0.00    -0.369 OA
BRANCH  23  24
HETATM   24  C8  UNL     1      19.875 -22.857  46.520  1.00  0.00     0.196 C 
BRANCH  24  25
HETATM   25  C9  UNL     1      18.786 -22.644  47.526  1.00  0.00     0.190 C 
BRANCH  25  26
HETATM   26  O2  UNL     1      17.751 -21.914  46.889  1.00  0.00    -0.399 OA
ATOM     27  H2  UNL     1      18.147 -21.405  46.191  1.00  0.00     0.209 HD
ENDBRANCH  25  26
ENDBRANCH  24  25
ENDBRANCH  23  24
ENDBRANCH  22  23
ENDBRANCH  17  22
ENDBRANCH   1  15
TORSDOF 8
ENDMDL
MODEL 4
REMARK VINA RESULT: -6.894852869      0.676      1.807
REMARK  8 active torsions:
REMARK  status: ('A' for Active; 'I' for Inactive)
REMARK    1  A    between atoms: C3_5  and  C4_6 
REMARK    2  A    between atoms: C4_6  and  C5_7 
REMARK    3  A    between atoms: N2_9  and  C7_10 
REMARK    4  A    between atoms: C7_10  and  O1_11 
REMARK    5  A    between atoms: O1_11  and  C8_12 
REMARK    6  A    between atoms: C8_12  and  C9_13 
REMARK    7  A    between atoms: C9_13  and  O2_14 
REMARK    8  A    between atoms: C12_24  and  N6_25 
ROOT
HETATM    1  C4  UNL     1      18.138 -18.779  43.783  1.00  0.00     0.079 C 
ENDROOT
BRANCH   1   2
HETATM    2  C3  UNL     1      17.252 -18.675  42.823  1.00  0.00     0.109 A 
HETATM    3  N1  UNL     1      15.967 -19.001  43.021  1.00  0.00    -0.341 N 
HETATM    4  C2  UNL     1      15.025 -18.902  42.039  1.00  0.00     0.054 A 
ATOM      5  H1  UNL     1      15.683 -19.337  43.942  1.00  0.00     0.167 HD
HETATM    6  C1  UNL     1      13.785 -19.244  42.317  1.00  0.00     0.045 C 
HETATM    7  C12 UNL     1      15.371 -18.456  40.794  1.00  0.00     0.093 A 
HETATM    8  C11 UNL     1      16.718 -18.117  40.595  1.00  0.00     0.146 A 
HETATM    9  N4  UNL     1      17.584 -18.242  41.611  1.00  0.00    -0.329 N 
HETATM   10  N5  UNL     1      17.136 -17.648  39.321  1.00  0.00    -0.080 NA
ATOM     11  H4  UNL     1      18.557 -17.989  41.443  1.00  0.00     0.168 HD
BRANCH   7  12
HETATM   12  N6  UNL     1      14.533 -18.338  39.821  1.00  0.00    -0.395 N 
ATOM     13  H62 UNL     1      13.532 -18.393  40.008  1.00  0.00     0.156 HD
ATOM     14  H61 UNL     1      14.813 -18.189  38.852  1.00  0.00     0.156 HD
ENDBRANCH   7  12
ENDBRANCH   1   2
BRANCH   1  15
HETATM   15  C5  UNL     1      19.188 -19.792  43.805  1.00  0.00     0.055 A 
HETATM   16  C6  UNL     1      20.549 -19.625  43.663  1.00  0.00     0.127 A 
HETATM   17  N2  UNL     1      21.188 -20.807  43.742  1.00  0.00    -0.286 N 
HETATM   18  C10 UNL     1      20.226 -21.728  43.934  1.00  0.00     0.328 A 
HETATM   19  O3  UNL     1      20.455 -22.951  44.054  1.00  0.00    -0.246 OA
HETATM   20  N3  UNL     1      19.020 -21.130  43.974  1.00  0.00    -0.307 N 
ATOM     21  H3  UNL     1      18.127 -21.604  44.109  1.00  0.00     0.170 HD
BRANCH  17  22
HETATM   22  C7  UNL     1      22.641 -21.038  43.637  1.00  0.00     0.302 C 
BRANCH  22  23
HETATM   23  O1  UNL     1      23.297 -20.606  44.759  1.00  0.00    -0.369 OA
BRANCH  23  24
HETATM   24  C8  UNL     1      23.932 -21.653  45.389  1.00  0.00     0.196 C 
BRANCH  24  25
HETATM   25  C9  UNL     1      24.893 -21.262  46.470  1.00  0.00     0.190 C 
BRANCH  25  26
HETATM   26  O2  UNL     1      25.272 -19.916  46.239  1.00  0.00    -0.399 OA
ATOM     27  H2  UNL     1      26.221 -19.879  46.257  1.00  0.00     0.209 HD
ENDBRANCH  25  26
ENDBRANCH  24  25
ENDBRANCH  23  24
ENDBRANCH  22  23
ENDBRANCH  17  22
ENDBRANCH   1  15
TORSDOF 8
ENDMDL
MODEL 5
REMARK VINA RESULT: -6.786933176      1.178      2.313
REMARK  8 active torsions:
REMARK  status: ('A' for Active; 'I' for Inactive)
REMARK    1  A    between atoms: C3_5  and  C4_6 
REMARK    2  A    between atoms: C4_6  and  C5_7 
REMARK    3  A    between atoms: N2_9  and  C7_10 
REMARK    4  A    between atoms: C7_10  and  O1_11 
REMARK    5  A    between atoms: O1_11  and  C8_12 
REMARK    6  A    between atoms: C8_12  and  C9_13 
REMARK    7  A    between atoms: C9_13  and  O2_14 
REMARK    8  A    between atoms: C12_24  and  N6_25 
ROOT
HETATM    1  C4  UNL     1      18.275 -18.310  43.633  1.00  0.00     0.079 C 
ENDROOT
BRANCH   1   2
HETATM    2  C3  UNL     1      17.394 -18.346  42.663  1.00  0.00     0.109 A 
HETATM    3  N1  UNL     1      16.082 -18.453  42.917  1.00  0.00    -0.341 N 
HETATM    4  C2  UNL     1      15.144 -18.493  41.926  1.00  0.00     0.054 A 
ATOM      5  H1  UNL     1      15.772 -18.506  43.887  1.00  0.00     0.167 HD
HETATM    6  C1  UNL     1      13.876 -18.599  42.261  1.00  0.00     0.045 C 
HETATM    7  C12 UNL     1      15.523 -18.423  40.614  1.00  0.00     0.093 A 
HETATM    8  C11 UNL     1      16.898 -18.312  40.358  1.00  0.00     0.146 A 
HETATM    9  N4  UNL     1      17.757 -18.279  41.387  1.00  0.00    -0.329 N 
HETATM   10  N5  UNL     1      17.350 -18.238  39.014  1.00  0.00    -0.080 NA
ATOM     11  H4  UNL     1      18.752 -18.198  41.176  1.00  0.00     0.168 HD
BRANCH   7  12
HETATM   12  N6  UNL     1      14.691 -18.456  39.630  1.00  0.00    -0.395 N 
ATOM     13  H62 UNL     1      13.726 -18.160  39.775  1.00  0.00     0.156 HD
ATOM     14  H61 UNL     1      14.941 -18.766  38.692  1.00  0.00     0.156 HD
ENDBRANCH   7  12
ENDBRANCH   1   2
BRANCH   1  15
HETATM   15  C5  UNL     1      19.384 -19.251  43.750  1.00  0.00     0.055 A 
HETATM   16  C6  UNL     1      19.396 -20.499  44.335  1.00  0.00     0.127 A 
HETATM   17  N2  UNL     1      20.614 -21.061  44.241  1.00  0.00    -0.286 N 
HETATM   18  C10 UNL     1      21.379 -20.163  43.593  1.00  0.00     0.328 A 
HETATM   19  O3  UNL     1      22.587 -20.350  43.326  1.00  0.00    -0.246 OA
HETATM   20  N3  UNL     1      20.651 -19.071  43.293  1.00  0.00    -0.307 N 
ATOM     21  H3  UNL     1      20.994 -18.245  42.803  1.00  0.00     0.170 HD
BRANCH  17  22
HETATM   22  C7  UNL     1      21.022 -22.386  44.745  1.00  0.00     0.302 C 
BRANCH  22  23
HETATM   23  O1  UNL     1      21.686 -22.283  45.939  1.00  0.00    -0.369 OA
BRANCH  23  24
HETATM   24  C8  UNL     1      22.990 -22.705  45.812  1.00  0.00     0.196 C 
BRANCH  24  25
HETATM   25  C9  UNL     1      24.017 -21.811  46.436  1.00  0.00     0.190 C 
BRANCH  25  26
HETATM   26  O2  UNL     1      24.333 -20.800  45.493  1.00  0.00    -0.399 OA
ATOM     27  H2  UNL     1      25.253 -20.892  45.273  1.00  0.00     0.209 HD
ENDBRANCH  25  26
ENDBRANCH  24  25
ENDBRANCH  23  24
ENDBRANCH  22  23
ENDBRANCH  17  22
ENDBRANCH   1  15
TORSDOF 8
ENDMDL
