MODEL 1
REMARK VINA RESULT: -7.701918738      0.000      0.000
REMARK  6 active torsions:
REMARK  status: ('A' for Active; 'I' for Inactive)
REMARK    1  A    between atoms: N2_3  and  C2_5 
REMARK    2  A    between atoms: C4_10  and  C5_11 
REMARK    3  A    between atoms: C5_11  and  C6_12 
REMARK    4  A    between atoms: C6_12  and  C7_13 
REMARK    5  A    between atoms: C7_13  and  N4_14 
REMARK    6  A    between atoms: C12_28  and  N9_29 
ROOT
HETATM    1  C2  UNL     1      19.078 -32.243  18.995  1.00  0.00     0.214 C 
HETATM    2  C3  UNL     1      20.510 -32.481  19.175  1.00  0.00     0.244 C 
HETATM    3  O1  UNL     1      20.867 -32.547  20.411  1.00  0.00    -0.271 OA
HETATM    4  N3  UNL     1      21.512 -32.643  18.220  1.00  0.00    -0.338 N 
ATOM      5  H3  UNL     1      22.456 -32.437  18.546  1.00  0.00     0.164 HD
HETATM    6  C4  UNL     1      21.420 -33.052  16.858  1.00  0.00     0.186 C 
HETATM    7  N7  UNL     1      21.347 -32.011  15.882  1.00  0.00    -0.339 N 
ATOM      8  H7  UNL     1      21.279 -32.343  14.920  1.00  0.00     0.164 HD
HETATM    9  C9  UNL     1      21.351 -30.621  16.008  1.00  0.00     0.236 C 
HETATM   10  O2  UNL     1      22.308 -29.997  15.409  1.00  0.00    -0.272 OA
HETATM   11  C10 UNL     1      20.396 -29.756  16.741  1.00  0.00     0.225 C 
HETATM   12  N8  UNL     1      20.644 -29.685  18.167  1.00  0.00    -0.350 N 
ATOM     13  H8  UNL     1      21.612 -29.519  18.442  1.00  0.00     0.163 HD
HETATM   14  C11 UNL     1      19.730 -29.813  19.212  1.00  0.00     0.251 C 
HETATM   15  O3  UNL     1      19.733 -28.867  20.090  1.00  0.00    -0.271 OA
HETATM   16  C12 UNL     1      18.748 -30.874  19.473  1.00  0.00     0.306 C 
ENDROOT
BRANCH   6  17
HETATM   17  C5  UNL     1      22.657 -33.895  16.537  1.00  0.00     0.048 C 
BRANCH  17  18
HETATM   18  C6  UNL     1      22.388 -35.062  15.659  1.00  0.00     0.023 C 
BRANCH  18  19
HETATM   19  C7  UNL     1      20.962 -35.531  15.973  1.00  0.00     0.122 C 
BRANCH  19  20
HETATM   20  N4  UNL     1      20.945 -36.974  15.908  1.00  0.00    -0.367 N 
HETATM   21  C8  UNL     1      21.025 -37.645  16.997  1.00  0.00     0.196 C 
HETATM   22  N5  UNL     1      21.130 -37.005  18.261  1.00  0.00    -0.067 NA
HETATM   23  N6  UNL     1      21.012 -39.053  16.971  1.00  0.00    -0.067 NA
ATOM     24  H4  UNL     1      20.871 -37.451  15.009  1.00  0.00     0.161 HD
ENDBRANCH  19  20
ENDBRANCH  18  19
ENDBRANCH  17  18
ENDBRANCH   6  17
BRANCH   1  25
HETATM   25  N2  UNL     1      18.528 -32.582  17.717  1.00  0.00    -0.373 N 
HETATM   26  C1  UNL     1      18.144 -33.743  17.348  1.00  0.00     0.186 C 
HETATM   27  N1  UNL     1      18.205 -34.907  18.172  1.00  0.00    -0.097 NA
ATOM     28  H2  UNL     1      18.436 -31.826  17.038  1.00  0.00     0.160 HD
ENDBRANCH   1  25
BRANCH  16  29
HETATM   29  N9  UNL     1      17.454 -30.403  19.008  1.00  0.00    -0.064 N 
ATOM     30  H93 UNL     1      17.565 -29.705  18.273  1.00  0.00     0.275 HD
ATOM     31  H92 UNL     1      16.972 -31.130  18.478  1.00  0.00     0.275 HD
ATOM     32  H91 UNL     1      16.863 -30.048  19.759  1.00  0.00     0.275 HD
ENDBRANCH  16  29
TORSDOF 6
ENDMDL
MODEL 2
REMARK VINA RESULT: -7.377656401      1.833      3.108
REMARK  6 active torsions:
REMARK  status: ('A' for Active; 'I' for Inactive)
REMARK    1  A    between atoms: N2_3  and  C2_5 
REMARK    2  A    between atoms: C4_10  and  C5_11 
REMARK    3  A    between atoms: C5_11  and  C6_12 
REMARK    4  A    between atoms: C6_12  and  C7_13 
REMARK    5  A    between atoms: C7_13  and  N4_14 
REMARK    6  A    between atoms: C12_28  and  N9_29 
ROOT
HETATM    1  C2  UNL     1      19.013 -32.170  19.057  1.00  0.00     0.214 C 
HETATM    2  C3  UNL     1      20.439 -32.418  19.268  1.00  0.00     0.244 C 
HETATM    3  O1  UNL     1      20.777 -32.435  20.511  1.00  0.00    -0.271 OA
HETATM    4  N3  UNL     1      21.453 -32.632  18.337  1.00  0.00    -0.338 N 
ATOM      5  H3  UNL     1      22.394 -32.423  18.668  1.00  0.00     0.164 HD
HETATM    6  C4  UNL     1      21.376 -33.098  16.992  1.00  0.00     0.186 C 
HETATM    7  N7  UNL     1      21.330 -32.098  15.972  1.00  0.00    -0.339 N 
ATOM      8  H7  UNL     1      21.272 -32.470  15.024  1.00  0.00     0.164 HD
HETATM    9  C9  UNL     1      21.350 -30.704  16.039  1.00  0.00     0.236 C 
HETATM   10  O2  UNL     1      22.324 -30.118  15.429  1.00  0.00    -0.272 OA
HETATM   11  C10 UNL     1      20.395 -29.797  16.721  1.00  0.00     0.225 C 
HETATM   12  N8  UNL     1      20.623 -29.668  18.146  1.00  0.00    -0.350 N 
ATOM     13  H8  UNL     1      21.589 -29.503  18.428  1.00  0.00     0.163 HD
HETATM   14  C11 UNL     1      19.692 -29.741  19.181  1.00  0.00     0.251 C 
HETATM   15  O3  UNL     1      19.695 -28.759  20.018  1.00  0.00    -0.271 OA
HETATM   16  C12 UNL     1      18.693 -30.778  19.471  1.00  0.00     0.306 C 
ENDROOT
BRANCH   6  17
HETATM   17  C5  UNL     1      22.606 -33.968  16.725  1.00  0.00     0.048 C 
BRANCH  17  18
HETATM   18  C6  UNL     1      23.843 -33.202  16.431  1.00  0.00     0.023 C 
BRANCH  18  19
HETATM   19  C7  UNL     1      24.351 -33.689  15.069  1.00  0.00     0.122 C 
BRANCH  19  20
HETATM   20  N4  UNL     1      24.404 -32.551  14.181  1.00  0.00    -0.367 N 
HETATM   21  C8  UNL     1      23.497 -32.418  13.287  1.00  0.00     0.196 C 
HETATM   22  N5  UNL     1      22.443 -33.361  13.149  1.00  0.00    -0.067 NA
HETATM   23  N6  UNL     1      23.517 -31.321  12.405  1.00  0.00    -0.067 NA
ATOM     24  H4  UNL     1      25.154 -31.864  14.266  1.00  0.00     0.161 HD
ENDBRANCH  19  20
ENDBRANCH  18  19
ENDBRANCH  17  18
ENDBRANCH   6  17
BRANCH   1  25
HETATM   25  N2  UNL     1      18.478 -32.556  17.787  1.00  0.00    -0.373 N 
HETATM   26  C1  UNL     1      18.154 -33.741  17.436  1.00  0.00     0.186 C 
HETATM   27  N1  UNL     1      18.280 -34.888  18.276  1.00  0.00    -0.097 NA
ATOM     28  H2  UNL     1      18.343 -31.817  17.097  1.00  0.00     0.160 HD
ENDBRANCH   1  25
BRANCH  16  29
HETATM   29  N9  UNL     1      17.412 -30.312  18.967  1.00  0.00    -0.064 N 
ATOM     30  H93 UNL     1      17.073 -30.919  18.221  1.00  0.00     0.275 HD
ATOM     31  H92 UNL     1      16.674 -30.464  19.655  1.00  0.00     0.275 HD
ATOM     32  H91 UNL     1      17.431 -29.339  18.664  1.00  0.00     0.275 HD
ENDBRANCH  16  29
TORSDOF 6
ENDMDL
MODEL 3
REMARK VINA RESULT: -7.342999286      1.657      2.596
REMARK  6 active torsions:
REMARK  status: ('A' for Active; 'I' for Inactive)
REMARK    1  A    between atoms: N2_3  and  C2_5 
REMARK    2  A    between atoms: C4_10  and  C5_11 
REMARK    3  A    between atoms: C5_11  and  C6_12 
REMARK    4  A    between atoms: C6_12  and  C7_13 
REMARK    5  A    between atoms: C7_13  and  N4_14 
REMARK    6  A    between atoms: C12_28  and  N9_29 
ROOT
HETATM    1  C2  UNL     1      19.055 -32.186  19.070  1.00  0.00     0.214 C 
HETATM    2  C3  UNL     1      20.485 -32.397  19.294  1.00  0.00     0.244 C 
HETATM    3  O1  UNL     1      20.811 -32.414  20.540  1.00  0.00    -0.271 OA
HETATM    4  N3  UNL     1      21.514 -32.578  18.372  1.00  0.00    -0.338 N 
ATOM      5  H3  UNL     1      22.446 -32.347  18.714  1.00  0.00     0.164 HD
HETATM    6  C4  UNL     1      21.463 -33.036  17.023  1.00  0.00     0.186 C 
HETATM    7  N7  UNL     1      21.401 -32.031  16.009  1.00  0.00    -0.339 N 
ATOM      8  H7  UNL     1      21.363 -32.397  15.058  1.00  0.00     0.164 HD
HETATM    9  C9  UNL     1      21.384 -30.637  16.086  1.00  0.00     0.236 C 
HETATM   10  O2  UNL     1      22.348 -30.021  15.490  1.00  0.00    -0.272 OA
HETATM   11  C10 UNL     1      20.399 -29.761  16.764  1.00  0.00     0.225 C 
HETATM   12  N8  UNL     1      20.608 -29.636  18.192  1.00  0.00    -0.350 N 
ATOM     13  H8  UNL     1      21.567 -29.447  18.485  1.00  0.00     0.163 HD
HETATM   14  C11 UNL     1      19.670 -29.740  19.217  1.00  0.00     0.251 C 
HETATM   15  O3  UNL     1      19.638 -28.764  20.061  1.00  0.00    -0.271 OA
HETATM   16  C12 UNL     1      18.695 -30.806  19.490  1.00  0.00     0.306 C 
ENDROOT
BRANCH   6  17
HETATM   17  C5  UNL     1      22.719 -33.872  16.763  1.00  0.00     0.048 C 
BRANCH  17  18
HETATM   18  C6  UNL     1      22.503 -35.031  15.860  1.00  0.00     0.023 C 
BRANCH  18  19
HETATM   19  C7  UNL     1      23.532 -34.909  14.730  1.00  0.00     0.122 C 
BRANCH  19  20
HETATM   20  N4  UNL     1      22.816 -34.908  13.476  1.00  0.00    -0.367 N 
HETATM   21  C8  UNL     1      22.635 -33.797  12.864  1.00  0.00     0.196 C 
HETATM   22  N5  UNL     1      23.122 -32.570  13.389  1.00  0.00    -0.067 NA
HETATM   23  N6  UNL     1      21.942 -33.759  11.639  1.00  0.00    -0.067 NA
ATOM     24  H4  UNL     1      22.459 -35.780  13.083  1.00  0.00     0.161 HD
ENDBRANCH  19  20
ENDBRANCH  18  19
ENDBRANCH  17  18
ENDBRANCH   6  17
BRANCH   1  25
HETATM   25  N2  UNL     1      18.544 -32.576  17.791  1.00  0.00    -0.373 N 
HETATM   26  C1  UNL     1      18.207 -33.759  17.446  1.00  0.00     0.186 C 
HETATM   27  N1  UNL     1      18.291 -34.899  18.301  1.00  0.00    -0.097 NA
ATOM     28  H2  UNL     1      18.439 -31.843  17.090  1.00  0.00     0.160 HD
ENDBRANCH   1  25
BRANCH  16  29
HETATM   29  N9  UNL     1      17.408 -30.369  18.976  1.00  0.00    -0.064 N 
ATOM     30  H93 UNL     1      17.383 -30.434  17.959  1.00  0.00     0.275 HD
ATOM     31  H92 UNL     1      16.678 -31.044  19.205  1.00  0.00     0.275 HD
ATOM     32  H91 UNL     1      17.148 -29.434  19.287  1.00  0.00     0.275 HD
ENDBRANCH  16  29
TORSDOF 6
ENDMDL
MODEL 4
REMARK VINA RESULT: -7.271052732      2.352      3.589
REMARK  6 active torsions:
REMARK  status: ('A' for Active; 'I' for Inactive)
REMARK    1  A    between atoms: N2_3  and  C2_5 
REMARK    2  A    between atoms: C4_10  and  C5_11 
REMARK    3  A    between atoms: C5_11  and  C6_12 
REMARK    4  A    between atoms: C6_12  and  C7_13 
REMARK    5  A    between atoms: C7_13  and  N4_14 
REMARK    6  A    between atoms: C12_28  and  N9_29 
ROOT
HETATM    1  C2  UNL     1      19.250 -32.283  20.243  1.00  0.00     0.214 C 
HETATM    2  C3  UNL     1      20.433 -33.012  19.785  1.00  0.00     0.244 C 
HETATM    3  O1  UNL     1      21.524 -32.337  19.893  1.00  0.00    -0.271 OA
HETATM    4  N3  UNL     1      20.538 -34.299  19.262  1.00  0.00    -0.338 N 
ATOM      5  H3  UNL     1      21.364 -34.466  18.688  1.00  0.00     0.164 HD
HETATM    6  C4  UNL     1      19.669 -35.420  19.408  1.00  0.00     0.186 C 
HETATM    7  N7  UNL     1      18.702 -35.616  18.375  1.00  0.00    -0.339 N 
ATOM      8  H7  UNL     1      18.097 -36.424  18.516  1.00  0.00     0.164 HD
HETATM    9  C9  UNL     1      18.435 -34.900  17.207  1.00  0.00     0.236 C 
HETATM   10  O2  UNL     1      18.546 -35.552  16.100  1.00  0.00    -0.272 OA
HETATM   11  C10 UNL     1      18.036 -33.478  17.065  1.00  0.00     0.225 C 
HETATM   12  N8  UNL     1      19.143 -32.547  17.144  1.00  0.00    -0.350 N 
ATOM     13  H8  UNL     1      19.962 -32.781  16.583  1.00  0.00     0.163 HD
HETATM   14  C11 UNL     1      19.233 -31.371  17.888  1.00  0.00     0.251 C 
HETATM   15  O3  UNL     1      19.581 -30.312  17.237  1.00  0.00    -0.271 OA
HETATM   16  C12 UNL     1      18.990 -31.147  19.319  1.00  0.00     0.306 C 
ENDROOT
BRANCH   6  17
HETATM   17  C5  UNL     1      20.535 -36.681  19.470  1.00  0.00     0.048 C 
BRANCH  17  18
HETATM   18  C6  UNL     1      20.648 -37.406  18.180  1.00  0.00     0.023 C 
BRANCH  18  19
HETATM   19  C7  UNL     1      21.960 -36.949  17.531  1.00  0.00     0.122 C 
BRANCH  19  20
HETATM   20  N4  UNL     1      21.648 -36.429  16.220  1.00  0.00    -0.367 N 
HETATM   21  C8  UNL     1      21.911 -35.202  15.960  1.00  0.00     0.196 C 
HETATM   22  N5  UNL     1      22.499 -34.345  16.928  1.00  0.00    -0.067 NA
HETATM   23  N6  UNL     1      21.620 -34.662  14.692  1.00  0.00    -0.067 NA
ATOM     24  H4  UNL     1      21.225 -37.030  15.512  1.00  0.00     0.161 HD
ENDBRANCH  19  20
ENDBRANCH  18  19
ENDBRANCH  17  18
ENDBRANCH   6  17
BRANCH   1  25
HETATM   25  N2  UNL     1      18.099 -33.071  20.565  1.00  0.00    -0.373 N 
HETATM   26  C1  UNL     1      17.706 -33.381  21.741  1.00  0.00     0.186 C 
HETATM   27  N1  UNL     1      18.369 -32.981  22.940  1.00  0.00    -0.097 NA
ATOM     28  H2  UNL     1      17.541 -33.416  19.785  1.00  0.00     0.160 HD
ENDBRANCH   1  25
BRANCH  16  29
HETATM   29  N9  UNL     1      17.654 -30.592  19.459  1.00  0.00    -0.064 N 
ATOM     30  H93 UNL     1      17.009 -31.287  19.833  1.00  0.00     0.275 HD
ATOM     31  H92 UNL     1      17.622 -29.909  20.216  1.00  0.00     0.275 HD
ATOM     32  H91 UNL     1      17.293 -30.192  18.593  1.00  0.00     0.275 HD
ENDBRANCH  16  29
TORSDOF 6
ENDMDL
MODEL 5
REMARK VINA RESULT: -7.127466790      2.389      3.577
REMARK  6 active torsions:
REMARK  status: ('A' for Active; 'I' for Inactive)
REMARK    1  A    between atoms: N2_3  and  C2_5 
REMARK    2  A    between atoms: C4_10  and  C5_11 
REMARK    3  A    between atoms: C5_11  and  C6_12 
REMARK    4  A    between atoms: C6_12  and  C7_13 
REMARK    5  A    between atoms: C7_13  and  N4_14 
REMARK    6  A    between atoms: C12_28  and  N9_29 
ROOT
HETATM    1  C2  UNL     1      19.190 -32.244  20.234  1.00  0.00     0.214 C 
HETATM    2  C3  UNL     1      20.349 -33.022  19.796  1.00  0.00     0.244 C 
HETATM    3  O1  UNL     1      21.463 -32.382  19.893  1.00  0.00    -0.271 OA
HETATM    4  N3  UNL     1      20.413 -34.323  19.302  1.00  0.00    -0.338 N 
ATOM      5  H3  UNL     1      21.234 -34.530  18.733  1.00  0.00     0.164 HD
HETATM    6  C4  UNL     1      19.506 -35.410  19.469  1.00  0.00     0.186 C 
HETATM    7  N7  UNL     1      18.535 -35.596  18.437  1.00  0.00    -0.339 N 
ATOM      8  H7  UNL     1      17.903 -36.381  18.593  1.00  0.00     0.164 HD
HETATM    9  C9  UNL     1      18.296 -34.897  17.252  1.00  0.00     0.236 C 
HETATM   10  O2  UNL     1      18.388 -35.577  16.160  1.00  0.00    -0.272 OA
HETATM   11  C10 UNL     1      17.945 -33.467  17.078  1.00  0.00     0.225 C 
HETATM   12  N8  UNL     1      19.083 -32.571  17.141  1.00  0.00    -0.350 N 
ATOM     13  H8  UNL     1      19.895 -32.845  16.588  1.00  0.00     0.163 HD
HETATM   14  C11 UNL     1      19.211 -31.384  17.859  1.00  0.00     0.251 C 
HETATM   15  O3  UNL     1      19.596 -30.351  17.188  1.00  0.00    -0.271 OA
HETATM   16  C12 UNL     1      18.971 -31.121  19.285  1.00  0.00     0.306 C 
ENDROOT
BRANCH   6  17
HETATM   17  C5  UNL     1      20.328 -36.699  19.561  1.00  0.00     0.048 C 
BRANCH  17  18
HETATM   18  C6  UNL     1      21.371 -36.832  18.513  1.00  0.00     0.023 C 
BRANCH  18  19
HETATM   19  C7  UNL     1      20.929 -37.976  17.593  1.00  0.00     0.122 C 
BRANCH  19  20
HETATM   20  N4  UNL     1      22.093 -38.774  17.286  1.00  0.00    -0.367 N 
HETATM   21  C8  UNL     1      22.135 -39.408  16.174  1.00  0.00     0.196 C 
HETATM   22  N5  UNL     1      21.067 -39.344  15.239  1.00  0.00    -0.067 NA
HETATM   23  N6  UNL     1      23.255 -40.195  15.842  1.00  0.00    -0.067 NA
ATOM     24  H4  UNL     1      22.869 -38.832  17.946  1.00  0.00     0.161 HD
ENDBRANCH  19  20
ENDBRANCH  18  19
ENDBRANCH  17  18
ENDBRANCH   6  17
BRANCH   1  25
HETATM   25  N2  UNL     1      18.012 -32.985  20.569  1.00  0.00    -0.373 N 
HETATM   26  C1  UNL     1      17.622 -33.282  21.749  1.00  0.00     0.186 C 
HETATM   27  N1  UNL     1      18.316 -32.913  22.940  1.00  0.00    -0.097 NA
ATOM     28  H2  UNL     1      17.431 -33.306  19.795  1.00  0.00     0.160 HD
ENDBRANCH   1  25
BRANCH  16  29
HETATM   29  N9  UNL     1      17.655 -30.518  19.408  1.00  0.00    -0.064 N 
ATOM     30  H93 UNL     1      17.685 -29.528  19.165  1.00  0.00     0.275 HD
ATOM     31  H92 UNL     1      17.032 -30.852  18.672  1.00  0.00     0.275 HD
ATOM     32  H91 UNL     1      17.236 -30.653  20.328  1.00  0.00     0.275 HD
ENDBRANCH  16  29
TORSDOF 6
ENDMDL
