MODEL 1
REMARK VINA RESULT: -6.574959350      0.000      0.000
REMARK  10 active torsions:
REMARK  status: ('A' for Active; 'I' for Inactive)
REMARK    1  A    between atoms: N1_2  and  C2_5 
REMARK    2  A    between atoms: N3_9  and  N4_11 
REMARK    3  A    between atoms: N4_11  and  N5_13 
REMARK    4  A    between atoms: C4_16  and  C5_17 
REMARK    5  A    between atoms: C5_17  and  N6_18 
REMARK    6  A    between atoms: N6_18  and  C6_20 
REMARK    7  A    between atoms: C6_20  and  C7_21 
REMARK    8  A    between atoms: C7_21  and  N7_22 
REMARK    9  A    between atoms: C10_27  and  O1_28 
REMARK   10  A    between atoms: C11_33  and  O2_34 
ROOT
HETATM    1  C2  UNL     1      21.465 -35.758  16.595  1.00  0.00     0.331 C 
HETATM    2  N2  UNL     1      21.508 -34.413  17.087  1.00  0.00    -0.343 N 
ATOM      3  H2  UNL     1      22.429 -34.139  17.429  1.00  0.00     0.163 HD
HETATM    4  C3  UNL     1      20.556 -33.397  17.198  1.00  0.00     0.143 C 
HETATM    5  N3  UNL     1      20.638 -32.486  16.252  1.00  0.00    -0.270 N 
ATOM      6  H3  UNL     1      21.388 -32.655  15.582  1.00  0.00     0.190 HD
HETATM    7  C4  UNL     1      19.504 -33.172  18.188  1.00  0.00     0.075 C 
HETATM    8  N8  UNL     1      18.671 -34.045  18.605  1.00  0.00    -0.320 N 
ATOM      9  H8  UNL     1      18.018 -33.681  19.298  1.00  0.00     0.169 HD
HETATM   10  C10 UNL     1      18.468 -35.395  18.309  1.00  0.00     0.233 C 
HETATM   11  N9  UNL     1      18.270 -35.954  17.012  1.00  0.00    -0.267 N 
ATOM     12  H9  UNL     1      17.566 -36.675  16.851  1.00  0.00     0.186 HD
HETATM   13  N10 UNL     1      19.083 -35.476  15.956  1.00  0.00    -0.102 NA
HETATM   14  C11 UNL     1      20.262 -36.307  15.995  1.00  0.00     0.281 C 
ENDROOT
BRANCH   7  15
HETATM   15  C5  UNL     1      19.319 -31.802  18.844  1.00  0.00     0.175 C 
BRANCH  15  16
HETATM   16  N6  UNL     1      20.387 -31.406  19.679  1.00  0.00    -0.414 N 
ATOM     17  H6  UNL     1      21.353 -31.383  19.350  1.00  0.00     0.153 HD
BRANCH  16  18
HETATM   18  C6  UNL     1      20.035 -31.042  21.001  1.00  0.00     0.144 C 
BRANCH  18  19
HETATM   19  C7  UNL     1      19.893 -32.073  22.040  1.00  0.00     0.290 C 
BRANCH  19  20
HETATM   20  N7  UNL     1      18.638 -32.205  22.709  1.00  0.00     0.081 N 
HETATM   21  C8  UNL     1      18.011 -33.404  22.095  1.00  0.00     0.309 C 
HETATM   22  C9  UNL     1      18.779 -32.522  24.137  1.00  0.00     0.309 C 
ENDBRANCH  19  20
ENDBRANCH  18  19
ENDBRANCH  16  18
ENDBRANCH  15  16
ENDBRANCH   7  15
BRANCH   5  23
HETATM   23  N4  UNL     1      19.926 -31.378  15.999  1.00  0.00    -0.248 N 
ATOM     24  H4  UNL     1      18.908 -31.428  15.972  1.00  0.00     0.207 HD
BRANCH  23  25
HETATM   25  N5  UNL     1      20.515 -30.254  15.789  1.00  0.00    -0.331 N 
ATOM     26  H52 UNL     1      21.028 -29.820  16.557  1.00  0.00     0.178 HD
ATOM     27  H51 UNL     1      20.469 -29.806  14.874  1.00  0.00     0.178 HD
ENDBRANCH  23  25
ENDBRANCH   5  23
BRANCH  10  28
HETATM   28  O1  UNL     1      18.445 -36.292  19.251  1.00  0.00    -0.332 OA
ATOM     29  H1  UNL     1      18.458 -37.219  19.046  1.00  0.00     0.221 HD
ENDBRANCH  10  28
BRANCH   1  30
HETATM   30  N1  UNL     1      22.025 -36.614  17.651  1.00  0.00    -0.054 N 
HETATM   31  C1  UNL     1      23.267 -37.204  17.118  1.00  0.00     0.269 C 
ATOM     32  H12 UNL     1      21.365 -37.313  17.991  1.00  0.00     0.279 HD
ATOM     33  H11 UNL     1      22.163 -36.123  18.533  1.00  0.00     0.279 HD
ENDBRANCH   1  30
BRANCH  14  34
HETATM   34  O2  UNL     1      19.994 -37.565  16.596  1.00  0.00    -0.374 OA
ATOM     35  H2  UNL     1      19.248 -37.956  16.155  1.00  0.00     0.212 HD
ENDBRANCH  14  34
TORSDOF 10
ENDMDL
MODEL 2
REMARK VINA RESULT: -6.437358569      2.776      6.305
REMARK  10 active torsions:
REMARK  status: ('A' for Active; 'I' for Inactive)
REMARK    1  A    between atoms: N1_2  and  C2_5 
REMARK    2  A    between atoms: N3_9  and  N4_11 
REMARK    3  A    between atoms: N4_11  and  N5_13 
REMARK    4  A    between atoms: C4_16  and  C5_17 
REMARK    5  A    between atoms: C5_17  and  N6_18 
REMARK    6  A    between atoms: N6_18  and  C6_20 
REMARK    7  A    between atoms: C6_20  and  C7_21 
REMARK    8  A    between atoms: C7_21  and  N7_22 
REMARK    9  A    between atoms: C10_27  and  O1_28 
REMARK   10  A    between atoms: C11_33  and  O2_34 
ROOT
HETATM    1  C2  UNL     1      19.059 -31.104  20.399  1.00  0.00     0.331 C 
HETATM    2  N2  UNL     1      19.189 -32.399  19.800  1.00  0.00    -0.343 N 
ATOM      3  H2  UNL     1      19.389 -33.136  20.476  1.00  0.00     0.163 HD
HETATM    4  C3  UNL     1      19.100 -32.867  18.487  1.00  0.00     0.143 C 
HETATM    5  N3  UNL     1      17.951 -33.441  18.204  1.00  0.00    -0.270 N 
ATOM      6  H3  UNL     1      17.298 -33.464  18.987  1.00  0.00     0.190 HD
HETATM    7  C4  UNL     1      20.068 -32.837  17.391  1.00  0.00     0.075 C 
HETATM    8  N8  UNL     1      20.746 -31.821  17.021  1.00  0.00    -0.320 N 
ATOM      9  H8  UNL     1      21.366 -32.015  16.235  1.00  0.00     0.169 HD
HETATM   10  C10 UNL     1      20.817 -30.500  17.469  1.00  0.00     0.233 C 
HETATM   11  N9  UNL     1      19.720 -29.601  17.621  1.00  0.00    -0.267 N 
ATOM     12  H9  UNL     1      19.794 -28.626  17.330  1.00  0.00     0.186 HD
HETATM   13  N10 UNL     1      18.526 -30.107  18.190  1.00  0.00    -0.102 NA
HETATM   14  C11 UNL     1      18.697 -29.938  19.613  1.00  0.00     0.281 C 
ENDROOT
BRANCH   7  15
HETATM   15  C5  UNL     1      20.366 -34.092  16.569  1.00  0.00     0.175 C 
BRANCH  15  16
HETATM   16  N6  UNL     1      21.323 -34.955  17.147  1.00  0.00    -0.414 N 
ATOM     17  H6  UNL     1      22.324 -34.765  17.099  1.00  0.00     0.153 HD
BRANCH  16  18
HETATM   18  C6  UNL     1      20.807 -36.102  17.796  1.00  0.00     0.144 C 
BRANCH  18  19
HETATM   19  C7  UNL     1      20.461 -37.302  17.018  1.00  0.00     0.290 C 
BRANCH  19  20
HETATM   20  N7  UNL     1      21.226 -38.492  17.215  1.00  0.00     0.081 N 
HETATM   21  C8  UNL     1      21.618 -38.916  15.847  1.00  0.00     0.309 C 
HETATM   22  C9  UNL     1      22.487 -38.251  17.929  1.00  0.00     0.309 C 
ENDBRANCH  19  20
ENDBRANCH  18  19
ENDBRANCH  16  18
ENDBRANCH  15  16
ENDBRANCH   7  15
BRANCH   5  23
HETATM   23  N4  UNL     1      17.473 -34.002  17.084  1.00  0.00    -0.248 N 
ATOM     24  H4  UNL     1      17.390 -33.443  16.235  1.00  0.00     0.207 HD
BRANCH  23  25
HETATM   25  N5  UNL     1      17.116 -35.237  17.070  1.00  0.00    -0.331 N 
ATOM     26  H52 UNL     1      16.145 -35.469  17.278  1.00  0.00     0.178 HD
ATOM     27  H51 UNL     1      17.792 -35.971  16.855  1.00  0.00     0.178 HD
ENDBRANCH  23  25
ENDBRANCH   5  23
BRANCH  10  28
HETATM   28  O1  UNL     1      21.955 -29.963  17.798  1.00  0.00    -0.332 OA
ATOM     29  H1  UNL     1      22.028 -29.394  18.555  1.00  0.00     0.221 HD
ENDBRANCH  10  28
BRANCH   1  30
HETATM   30  N1  UNL     1      20.258 -30.895  21.224  1.00  0.00    -0.054 N 
HETATM   31  C1  UNL     1      20.472 -32.129  22.001  1.00  0.00     0.269 C 
ATOM     32  H12 UNL     1      20.201 -30.060  21.807  1.00  0.00     0.279 HD
ATOM     33  H11 UNL     1      21.074 -30.618  20.679  1.00  0.00     0.279 HD
ENDBRANCH   1  30
BRANCH  14  34
HETATM   34  O2  UNL     1      19.614 -28.896  19.908  1.00  0.00    -0.374 OA
ATOM     35  H2  UNL     1      19.120 -28.121  20.150  1.00  0.00     0.212 HD
ENDBRANCH  14  34
TORSDOF 10
ENDMDL
MODEL 3
REMARK VINA RESULT: -6.435786268      2.557      4.639
REMARK  10 active torsions:
REMARK  status: ('A' for Active; 'I' for Inactive)
REMARK    1  A    between atoms: N1_2  and  C2_5 
REMARK    2  A    between atoms: N3_9  and  N4_11 
REMARK    3  A    between atoms: N4_11  and  N5_13 
REMARK    4  A    between atoms: C4_16  and  C5_17 
REMARK    5  A    between atoms: C5_17  and  N6_18 
REMARK    6  A    between atoms: N6_18  and  C6_20 
REMARK    7  A    between atoms: C6_20  and  C7_21 
REMARK    8  A    between atoms: C7_21  and  N7_22 
REMARK    9  A    between atoms: C10_27  and  O1_28 
REMARK   10  A    between atoms: C11_33  and  O2_34 
ROOT
HETATM    1  C2  UNL     1      19.809 -30.590  17.253  1.00  0.00     0.331 C 
HETATM    2  N2  UNL     1      19.221 -31.680  17.973  1.00  0.00    -0.343 N 
ATOM      3  H2  UNL     1      18.751 -31.388  18.830  1.00  0.00     0.163 HD
HETATM    4  C3  UNL     1      19.154 -33.057  17.751  1.00  0.00     0.143 C 
HETATM    5  N3  UNL     1      18.002 -33.460  17.259  1.00  0.00    -0.270 N 
ATOM      6  H3  UNL     1      17.328 -32.707  17.118  1.00  0.00     0.190 HD
HETATM    7  C4  UNL     1      20.135 -34.115  17.985  1.00  0.00     0.075 C 
HETATM    8  N8  UNL     1      21.364 -34.084  17.640  1.00  0.00    -0.320 N 
ATOM      9  H8  UNL     1      21.876 -34.927  17.899  1.00  0.00     0.169 HD
HETATM   10  C10 UNL     1      22.152 -33.136  16.983  1.00  0.00     0.233 C 
HETATM   11  N9  UNL     1      21.874 -32.539  15.718  1.00  0.00    -0.267 N 
ATOM     12  H9  UNL     1      22.611 -32.405  15.026  1.00  0.00     0.186 HD
HETATM   13  N10 UNL     1      20.541 -32.138  15.456  1.00  0.00    -0.102 NA
HETATM   14  C11 UNL     1      20.456 -30.791  15.969  1.00  0.00     0.281 C 
ENDROOT
BRANCH   7  15
HETATM   15  C5  UNL     1      19.745 -35.404  18.711  1.00  0.00     0.175 C 
BRANCH  15  16
HETATM   16  N6  UNL     1      18.969 -35.207  19.874  1.00  0.00    -0.414 N 
ATOM     17  H6  UNL     1      18.150 -35.779  20.083  1.00  0.00     0.153 HD
BRANCH  16  18
HETATM   18  C6  UNL     1      19.397 -34.166  20.732  1.00  0.00     0.144 C 
BRANCH  18  19
HETATM   19  C7  UNL     1      18.412 -33.367  21.477  1.00  0.00     0.290 C 
BRANCH  19  20
HETATM   20  N7  UNL     1      18.824 -32.120  22.038  1.00  0.00     0.081 N 
HETATM   21  C8  UNL     1      18.739 -32.324  23.507  1.00  0.00     0.309 C 
HETATM   22  C9  UNL     1      20.233 -31.805  21.765  1.00  0.00     0.309 C 
ENDBRANCH  19  20
ENDBRANCH  18  19
ENDBRANCH  16  18
ENDBRANCH  15  16
ENDBRANCH   7  15
BRANCH   5  23
HETATM   23  N4  UNL     1      17.543 -34.670  16.907  1.00  0.00    -0.248 N 
ATOM     24  H4  UNL     1      18.179 -35.467  16.894  1.00  0.00     0.207 HD
BRANCH  23  25
HETATM   25  N5  UNL     1      16.309 -34.835  16.585  1.00  0.00    -0.331 N 
ATOM     26  H52 UNL     1      15.720 -34.011  16.462  1.00  0.00     0.178 HD
ATOM     27  H51 UNL     1      15.927 -35.771  16.455  1.00  0.00     0.178 HD
ENDBRANCH  23  25
ENDBRANCH   5  23
BRANCH  10  28
HETATM   28  O1  UNL     1      23.261 -32.706  17.509  1.00  0.00    -0.332 OA
ATOM     29  H1  UNL     1      24.102 -33.040  17.221  1.00  0.00     0.221 HD
ENDBRANCH  10  28
BRANCH   1  30
HETATM   30  N1  UNL     1      20.646 -29.851  18.210  1.00  0.00    -0.054 N 
HETATM   31  C1  UNL     1      19.735 -29.127  19.116  1.00  0.00     0.269 C 
ATOM     32  H12 UNL     1      21.327 -29.242  17.759  1.00  0.00     0.279 HD
ATOM     33  H11 UNL     1      21.310 -30.447  18.704  1.00  0.00     0.279 HD
ENDBRANCH   1  30
BRANCH  14  34
HETATM   34  O2  UNL     1      21.729 -30.165  16.004  1.00  0.00    -0.374 OA
ATOM     35  H2  UNL     1      22.390 -30.813  15.791  1.00  0.00     0.212 HD
ENDBRANCH  14  34
TORSDOF 10
ENDMDL
MODEL 4
REMARK VINA RESULT: -6.272677079      2.871      4.050
REMARK  10 active torsions:
REMARK  status: ('A' for Active; 'I' for Inactive)
REMARK    1  A    between atoms: N1_2  and  C2_5 
REMARK    2  A    between atoms: N3_9  and  N4_11 
REMARK    3  A    between atoms: N4_11  and  N5_13 
REMARK    4  A    between atoms: C4_16  and  C5_17 
REMARK    5  A    between atoms: C5_17  and  N6_18 
REMARK    6  A    between atoms: N6_18  and  C6_20 
REMARK    7  A    between atoms: C6_20  and  C7_21 
REMARK    8  A    between atoms: C7_21  and  N7_22 
REMARK    9  A    between atoms: C10_27  and  O1_28 
REMARK   10  A    between atoms: C11_33  and  O2_34 
ROOT
HETATM    1  C2  UNL     1      22.678 -30.409  16.377  1.00  0.00     0.331 C 
HETATM    2  N2  UNL     1      21.929 -30.516  17.594  1.00  0.00    -0.343 N 
ATOM      3  H2  UNL     1      22.285 -29.917  18.339  1.00  0.00     0.163 HD
HETATM    4  C3  UNL     1      20.815 -31.267  17.977  1.00  0.00     0.143 C 
HETATM    5  N3  UNL     1      19.688 -30.586  17.971  1.00  0.00    -0.270 N 
ATOM      6  H3  UNL     1      19.798 -29.611  17.693  1.00  0.00     0.190 HD
HETATM    7  C4  UNL     1      20.696 -32.663  18.393  1.00  0.00     0.075 C 
HETATM    8  N8  UNL     1      21.211 -33.667  17.795  1.00  0.00    -0.320 N 
ATOM      9  H8  UNL     1      21.007 -34.556  18.251  1.00  0.00     0.169 HD
HETATM   10  C10 UNL     1      21.994 -33.801  16.646  1.00  0.00     0.233 C 
HETATM   11  N9  UNL     1      21.681 -33.301  15.348  1.00  0.00    -0.267 N 
ATOM     12  H9  UNL     1      21.844 -33.863  14.513  1.00  0.00     0.186 HD
HETATM   13  N10 UNL     1      21.134 -31.997  15.257  1.00  0.00    -0.102 NA
HETATM   14  C11 UNL     1      22.281 -31.124  15.178  1.00  0.00     0.281 C 
ENDROOT
BRANCH   7  15
HETATM   15  C5  UNL     1      19.915 -33.047  19.651  1.00  0.00     0.175 C 
BRANCH  15  16
HETATM   16  N6  UNL     1      20.668 -32.997  20.844  1.00  0.00    -0.414 N 
ATOM     17  H6  UNL     1      21.390 -33.686  21.059  1.00  0.00     0.153 HD
BRANCH  16  18
HETATM   18  C6  UNL     1      20.360 -31.933  21.725  1.00  0.00     0.144 C 
BRANCH  18  19
HETATM   19  C7  UNL     1      18.963 -31.511  21.917  1.00  0.00     0.290 C 
BRANCH  19  20
HETATM   20  N7  UNL     1      18.242 -32.019  23.041  1.00  0.00     0.081 N 
HETATM   21  C8  UNL     1      17.600 -33.262  22.543  1.00  0.00     0.309 C 
HETATM   22  C9  UNL     1      19.119 -32.441  24.142  1.00  0.00     0.309 C 
ENDBRANCH  19  20
ENDBRANCH  18  19
ENDBRANCH  16  18
ENDBRANCH  15  16
ENDBRANCH   7  15
BRANCH   5  23
HETATM   23  N4  UNL     1      18.425 -30.928  18.260  1.00  0.00    -0.248 N 
ATOM     24  H4  UNL     1      18.072 -31.844  17.980  1.00  0.00     0.207 HD
BRANCH  23  25
HETATM   25  N5  UNL     1      17.652 -30.114  18.887  1.00  0.00    -0.331 N 
ATOM     26  H52 UNL     1      17.911 -29.127  18.928  1.00  0.00     0.178 HD
ATOM     27  H51 UNL     1      16.798 -30.447  19.333  1.00  0.00     0.178 HD
ENDBRANCH  23  25
ENDBRANCH   5  23
BRANCH  10  28
HETATM   28  O1  UNL     1      23.133 -34.429  16.680  1.00  0.00    -0.332 OA
ATOM     29  H1  UNL     1      23.847 -34.118  17.224  1.00  0.00     0.221 HD
ENDBRANCH  10  28
BRANCH   1  30
HETATM   30  N1  UNL     1      24.090 -30.613  16.729  1.00  0.00    -0.054 N 
HETATM   31  C1  UNL     1      24.716 -29.280  16.808  1.00  0.00     0.269 C 
ATOM     32  H12 UNL     1      24.574 -31.244  16.090  1.00  0.00     0.279 HD
ATOM     33  H11 UNL     1      24.216 -31.164  17.578  1.00  0.00     0.279 HD
ENDBRANCH   1  30
BRANCH  14  34
HETATM   34  O2  UNL     1      23.416 -31.800  14.661  1.00  0.00    -0.374 OA
ATOM     35  H2  UNL     1      23.197 -32.146  13.803  1.00  0.00     0.212 HD
ENDBRANCH  14  34
TORSDOF 10
ENDMDL
MODEL 5
REMARK VINA RESULT: -6.266750467      2.486      6.636
REMARK  10 active torsions:
REMARK  status: ('A' for Active; 'I' for Inactive)
REMARK    1  A    between atoms: N1_2  and  C2_5 
REMARK    2  A    between atoms: N3_9  and  N4_11 
REMARK    3  A    between atoms: N4_11  and  N5_13 
REMARK    4  A    between atoms: C4_16  and  C5_17 
REMARK    5  A    between atoms: C5_17  and  N6_18 
REMARK    6  A    between atoms: N6_18  and  C6_20 
REMARK    7  A    between atoms: C6_20  and  C7_21 
REMARK    8  A    between atoms: C7_21  and  N7_22 
REMARK    9  A    between atoms: C10_27  and  O1_28 
REMARK   10  A    between atoms: C11_33  and  O2_34 
ROOT
HETATM    1  C2  UNL     1      18.713 -32.708  19.660  1.00  0.00     0.331 C 
HETATM    2  N2  UNL     1      19.085 -34.054  19.339  1.00  0.00    -0.343 N 
ATOM      3  H2  UNL     1      19.111 -34.669  20.153  1.00  0.00     0.163 HD
HETATM    4  C3  UNL     1      19.418 -34.704  18.148  1.00  0.00     0.143 C 
HETATM    5  N3  UNL     1      18.438 -35.421  17.641  1.00  0.00    -0.270 N 
ATOM      6  H3  UNL     1      17.583 -35.399  18.196  1.00  0.00     0.190 HD
HETATM    7  C4  UNL     1      20.667 -34.731  17.388  1.00  0.00     0.075 C 
HETATM    8  N8  UNL     1      21.370 -33.714  17.071  1.00  0.00    -0.320 N 
ATOM      9  H8  UNL     1      22.207 -33.952  16.538  1.00  0.00     0.169 HD
HETATM   10  C10 UNL     1      21.234 -32.343  17.303  1.00  0.00     0.233 C 
HETATM   11  N9  UNL     1      20.097 -31.543  16.987  1.00  0.00    -0.267 N 
ATOM     12  H9  UNL     1      20.203 -30.615  16.578  1.00  0.00     0.186 HD
HETATM   13  N10 UNL     1      18.815 -32.080  17.261  1.00  0.00    -0.102 NA
HETATM   14  C11 UNL     1      18.544 -31.702  18.627  1.00  0.00     0.281 C 
ENDROOT
BRANCH   7  15
HETATM   15  C5  UNL     1      21.262 -36.052  16.898  1.00  0.00     0.175 C 
BRANCH  15  16
HETATM   16  N6  UNL     1      21.611 -36.953  17.928  1.00  0.00    -0.414 N 
ATOM     17  H6  UNL     1      21.565 -36.694  18.914  1.00  0.00     0.153 HD
BRANCH  16  18
HETATM   18  C6  UNL     1      22.028 -38.239  17.508  1.00  0.00     0.144 C 
BRANCH  18  19
HETATM   19  C7  UNL     1      21.485 -38.828  16.274  1.00  0.00     0.290 C 
BRANCH  19  20
HETATM   20  N7  UNL     1      22.396 -39.342  15.301  1.00  0.00     0.081 N 
HETATM   21  C8  UNL     1      21.566 -40.222  14.440  1.00  0.00     0.309 C 
HETATM   22  C9  UNL     1      22.926 -38.303  14.407  1.00  0.00     0.309 C 
ENDBRANCH  19  20
ENDBRANCH  18  19
ENDBRANCH  16  18
ENDBRANCH  15  16
ENDBRANCH   7  15
BRANCH   5  23
HETATM   23  N4  UNL     1      18.347 -36.174  16.536  1.00  0.00    -0.248 N 
ATOM     24  H4  UNL     1      19.112 -36.802  16.289  1.00  0.00     0.207 HD
BRANCH  23  25
HETATM   25  N5  UNL     1      17.306 -36.112  15.784  1.00  0.00    -0.331 N 
ATOM     26  H52 UNL     1      17.382 -36.424  14.815  1.00  0.00     0.178 HD
ATOM     27  H51 UNL     1      16.422 -35.760  16.149  1.00  0.00     0.178 HD
ENDBRANCH  23  25
ENDBRANCH   5  23
BRANCH  10  28
HETATM   28  O1  UNL     1      22.192 -31.658  17.856  1.00  0.00    -0.332 OA
ATOM     29  H1  UNL     1      22.048 -30.769  18.157  1.00  0.00     0.221 HD
ENDBRANCH  10  28
BRANCH   1  30
HETATM   30  N1  UNL     1      19.597 -32.272  20.750  1.00  0.00    -0.054 N 
HETATM   31  C1  UNL     1      18.865 -32.479  22.013  1.00  0.00     0.269 C 
ATOM     32  H12 UNL     1      19.932 -31.316  20.635  1.00  0.00     0.279 HD
ATOM     33  H11 UNL     1      20.507 -32.732  20.736  1.00  0.00     0.279 HD
ENDBRANCH   1  30
BRANCH  14  34
HETATM   34  O2  UNL     1      19.274 -30.545  19.003  1.00  0.00    -0.374 OA
ATOM     35  H2  UNL     1      18.656 -29.868  19.257  1.00  0.00     0.212 HD
ENDBRANCH  14  34
TORSDOF 10
ENDMDL
