MODEL 1
REMARK VINA RESULT: -6.805775081      0.000      0.000
REMARK  6 active torsions:
REMARK  status: ('A' for Active; 'I' for Inactive)
REMARK    1  A    between atoms: N3_4  and  C2_6 
REMARK    2  A    between atoms: C2_6  and  C3_7 
REMARK    3  A    between atoms: C3_7  and  C4_8 
REMARK    4  A    between atoms: C4_8  and  C5_9 
REMARK    5  A    between atoms: C5_9  and  C6_10 
REMARK    6  A    between atoms: C6_10  and  N4_11 
ROOT
HETATM    1  N4  UNL     1      18.930 -19.975  39.690  1.00  0.00    -0.373 N 
HETATM    2  C7  UNL     1      19.647 -19.053  38.923  1.00  0.00     0.063 C 
HETATM    3  C8  UNL     1      20.590 -18.247  39.777  1.00  0.00     0.046 C 
HETATM    4  C9  UNL     1      20.885 -18.781  41.108  1.00  0.00     0.018 C 
HETATM    5  C10 UNL     1      20.464 -20.150  41.454  1.00  0.00     0.001 C 
HETATM    6  C11 UNL     1      19.552 -20.183  42.676  1.00  0.00     0.134 C 
HETATM    7  N5  UNL     1      20.463 -20.004  43.757  1.00  0.00    -0.360 N 
ATOM      8  H5  UNL     1      20.233 -19.596  44.664  1.00  0.00     0.162 HD
HETATM    9  C12 UNL     1      21.739 -20.483  43.371  1.00  0.00     0.218 C 
HETATM   10  O1  UNL     1      22.791 -20.500  44.060  1.00  0.00    -0.274 OA
HETATM   11  C13 UNL     1      21.647 -20.983  41.969  1.00  0.00     0.115 C 
HETATM   12  C14 UNL     1      19.745 -20.914  40.371  1.00  0.00     0.138 C 
ENDROOT
BRANCH   1  13
HETATM   13  C6  UNL     1      17.575 -20.145  39.632  1.00  0.00     0.063 C 
BRANCH  13  14
HETATM   14  C5  UNL     1      16.638 -18.992  39.780  1.00  0.00     0.044 C 
BRANCH  14  15
HETATM   15  C4  UNL     1      16.463 -18.527  41.180  1.00  0.00     0.007 C 
BRANCH  15  16
HETATM   16  C3  UNL     1      15.004 -18.521  41.602  1.00  0.00     0.020 C 
BRANCH  16  17
HETATM   17  C2  UNL     1      14.684 -19.745  42.424  1.00  0.00     0.122 C 
BRANCH  17  18
HETATM   18  N3  UNL     1      15.807 -20.083  43.283  1.00  0.00    -0.367 N 
HETATM   19  C1  UNL     1      15.554 -20.435  44.481  1.00  0.00     0.196 C 
HETATM   20  N1  UNL     1      16.623 -20.772  45.347  1.00  0.00    -0.067 NA
HETATM   21  N2  UNL     1      14.230 -20.505  44.945  1.00  0.00    -0.067 NA
ATOM     22  H3  UNL     1      16.767 -20.040  42.937  1.00  0.00     0.161 HD
ENDBRANCH  17  18
ENDBRANCH  16  17
ENDBRANCH  15  16
ENDBRANCH  14  15
ENDBRANCH  13  14
ENDBRANCH   1  13
TORSDOF 6
ENDMDL
MODEL 2
REMARK VINA RESULT: -6.649890217      2.660      4.986
REMARK  6 active torsions:
REMARK  status: ('A' for Active; 'I' for Inactive)
REMARK    1  A    between atoms: N3_4  and  C2_6 
REMARK    2  A    between atoms: C2_6  and  C3_7 
REMARK    3  A    between atoms: C3_7  and  C4_8 
REMARK    4  A    between atoms: C4_8  and  C5_9 
REMARK    5  A    between atoms: C5_9  and  C6_10 
REMARK    6  A    between atoms: C6_10  and  N4_11 
ROOT
HETATM    1  N4  UNL     1      19.313 -18.930  39.205  1.00  0.00    -0.373 N 
HETATM    2  C7  UNL     1      18.888 -18.522  37.938  1.00  0.00     0.063 C 
HETATM    3  C8  UNL     1      17.414 -18.770  37.750  1.00  0.00     0.046 C 
HETATM    4  C9  UNL     1      16.632 -19.008  38.964  1.00  0.00     0.018 C 
HETATM    5  C10 UNL     1      17.238 -18.761  40.283  1.00  0.00     0.001 C 
HETATM    6  C11 UNL     1      17.229 -20.005  41.166  1.00  0.00     0.134 C 
HETATM    7  N5  UNL     1      15.876 -20.070  41.608  1.00  0.00    -0.360 N 
ATOM      8  H5  UNL     1      15.383 -20.920  41.883  1.00  0.00     0.162 HD
HETATM    9  C12 UNL     1      15.325 -18.764  41.606  1.00  0.00     0.218 C 
HETATM   10  O1  UNL     1      14.162 -18.424  41.940  1.00  0.00    -0.274 OA
HETATM   11  C13 UNL     1      16.371 -17.816  41.128  1.00  0.00     0.115 C 
HETATM   12  C14 UNL     1      18.662 -18.263  40.273  1.00  0.00     0.138 C 
ENDROOT
BRANCH   1  13
HETATM   13  C6  UNL     1      20.409 -19.712  39.441  1.00  0.00     0.063 C 
BRANCH  13  14
HETATM   14  C5  UNL     1      20.272 -21.132  39.883  1.00  0.00     0.044 C 
BRANCH  14  15
HETATM   15  C4  UNL     1      21.038 -21.461  41.113  1.00  0.00     0.007 C 
BRANCH  15  16
HETATM   16  C3  UNL     1      21.485 -20.215  41.858  1.00  0.00     0.020 C 
BRANCH  16  17
HETATM   17  C2  UNL     1      20.671 -20.028  43.115  1.00  0.00     0.122 C 
BRANCH  17  18
HETATM   18  N3  UNL     1      20.686 -18.631  43.520  1.00  0.00    -0.367 N 
HETATM   19  C1  UNL     1      19.575 -18.094  43.842  1.00  0.00     0.196 C 
HETATM   20  N1  UNL     1      19.550 -16.736  44.243  1.00  0.00    -0.067 NA
HETATM   21  N2  UNL     1      18.384 -18.838  43.816  1.00  0.00    -0.067 NA
ATOM     22  H3  UNL     1      21.556 -18.099  43.546  1.00  0.00     0.161 HD
ENDBRANCH  17  18
ENDBRANCH  16  17
ENDBRANCH  15  16
ENDBRANCH  14  15
ENDBRANCH  13  14
ENDBRANCH   1  13
TORSDOF 6
ENDMDL
MODEL 3
REMARK VINA RESULT: -6.630746981      2.206      4.748
REMARK  6 active torsions:
REMARK  status: ('A' for Active; 'I' for Inactive)
REMARK    1  A    between atoms: N3_4  and  C2_6 
REMARK    2  A    between atoms: C2_6  and  C3_7 
REMARK    3  A    between atoms: C3_7  and  C4_8 
REMARK    4  A    between atoms: C4_8  and  C5_9 
REMARK    5  A    between atoms: C5_9  and  C6_10 
REMARK    6  A    between atoms: C6_10  and  N4_11 
ROOT
HETATM    1  N4  UNL     1      17.669 -19.234  39.393  1.00  0.00    -0.373 N 
HETATM    2  C7  UNL     1      17.797 -20.548  38.935  1.00  0.00     0.063 C 
HETATM    3  C8  UNL     1      17.874 -21.522  40.083  1.00  0.00     0.046 C 
HETATM    4  C9  UNL     1      17.434 -21.028  41.389  1.00  0.00     0.018 C 
HETATM    5  C10 UNL     1      16.730 -19.738  41.481  1.00  0.00     0.001 C 
HETATM    6  C11 UNL     1      17.444 -18.755  42.403  1.00  0.00     0.134 C 
HETATM    7  N5  UNL     1      17.101 -19.232  43.702  1.00  0.00    -0.360 N 
ATOM      8  H5  UNL     1      17.659 -19.102  44.547  1.00  0.00     0.162 HD
HETATM    9  C12 UNL     1      15.862 -19.914  43.632  1.00  0.00     0.218 C 
HETATM   10  O1  UNL     1      15.236 -20.463  44.574  1.00  0.00    -0.274 OA
HETATM   11  C13 UNL     1      15.390 -19.885  42.218  1.00  0.00     0.115 C 
HETATM   12  C14 UNL     1      16.511 -19.010  40.179  1.00  0.00     0.138 C 
ENDROOT
BRANCH   1  13
HETATM   13  C6  UNL     1      18.426 -18.184  38.956  1.00  0.00     0.063 C 
BRANCH  13  14
HETATM   14  C5  UNL     1      19.918 -18.247  38.951  1.00  0.00     0.044 C 
BRANCH  14  15
HETATM   15  C4  UNL     1      20.524 -18.386  40.300  1.00  0.00     0.007 C 
BRANCH  15  16
HETATM   16  C3  UNL     1      20.993 -19.805  40.572  1.00  0.00     0.020 C 
BRANCH  16  17
HETATM   17  C2  UNL     1      20.938 -20.108  42.049  1.00  0.00     0.122 C 
BRANCH  17  18
HETATM   18  N3  UNL     1      20.958 -18.874  42.818  1.00  0.00    -0.367 N 
HETATM   19  C1  UNL     1      20.564 -18.922  44.029  1.00  0.00     0.196 C 
HETATM   20  N1  UNL     1      20.569 -17.740  44.809  1.00  0.00    -0.067 NA
HETATM   21  N2  UNL     1      20.139 -20.134  44.598  1.00  0.00    -0.067 NA
ATOM     22  H3  UNL     1      21.277 -17.999  42.401  1.00  0.00     0.161 HD
ENDBRANCH  17  18
ENDBRANCH  16  17
ENDBRANCH  15  16
ENDBRANCH  14  15
ENDBRANCH  13  14
ENDBRANCH   1  13
TORSDOF 6
ENDMDL
MODEL 4
REMARK VINA RESULT: -6.627585935      1.478      1.906
REMARK  6 active torsions:
REMARK  status: ('A' for Active; 'I' for Inactive)
REMARK    1  A    between atoms: N3_4  and  C2_6 
REMARK    2  A    between atoms: C2_6  and  C3_7 
REMARK    3  A    between atoms: C3_7  and  C4_8 
REMARK    4  A    between atoms: C4_8  and  C5_9 
REMARK    5  A    between atoms: C5_9  and  C6_10 
REMARK    6  A    between atoms: C6_10  and  N4_11 
ROOT
HETATM    1  N4  UNL     1      19.622 -20.252  39.458  1.00  0.00    -0.373 N 
HETATM    2  C7  UNL     1      20.160 -19.054  38.980  1.00  0.00     0.063 C 
HETATM    3  C8  UNL     1      20.732 -18.225  40.101  1.00  0.00     0.046 C 
HETATM    4  C9  UNL     1      20.981 -18.920  41.365  1.00  0.00     0.018 C 
HETATM    5  C10 UNL     1      20.902 -20.390  41.417  1.00  0.00     0.001 C 
HETATM    6  C11 UNL     1      19.880 -20.878  42.439  1.00  0.00     0.134 C 
HETATM    7  N5  UNL     1      20.559 -20.698  43.679  1.00  0.00    -0.360 N 
ATOM      8  H5  UNL     1      20.111 -20.542  44.582  1.00  0.00     0.162 HD
HETATM    9  C12 UNL     1      21.956 -20.771  43.456  1.00  0.00     0.218 C 
HETATM   10  O1  UNL     1      22.874 -20.668  44.309  1.00  0.00    -0.274 OA
HETATM   11  C13 UNL     1      22.186 -20.998  42.000  1.00  0.00     0.115 C 
HETATM   12  C14 UNL     1      20.563 -21.080  40.120  1.00  0.00     0.138 C 
ENDROOT
BRANCH   1  13
HETATM   13  C6  UNL     1      18.383 -20.729  39.135  1.00  0.00     0.063 C 
BRANCH  13  14
HETATM   14  C5  UNL     1      17.412 -19.909  38.351  1.00  0.00     0.044 C 
BRANCH  14  15
HETATM   15  C4  UNL     1      16.577 -19.001  39.178  1.00  0.00     0.007 C 
BRANCH  15  16
HETATM   16  C3  UNL     1      16.555 -19.418  40.639  1.00  0.00     0.020 C 
BRANCH  16  17
HETATM   17  C2  UNL     1      16.272 -18.230  41.526  1.00  0.00     0.122 C 
BRANCH  17  18
HETATM   18  N3  UNL     1      17.508 -17.729  42.106  1.00  0.00    -0.367 N 
HETATM   19  C1  UNL     1      17.840 -18.158  43.259  1.00  0.00     0.196 C 
HETATM   20  N1  UNL     1      19.038 -17.693  43.856  1.00  0.00    -0.067 NA
HETATM   21  N2  UNL     1      17.040 -19.094  43.935  1.00  0.00    -0.067 NA
ATOM     22  H3  UNL     1      18.091 -17.056  41.606  1.00  0.00     0.161 HD
ENDBRANCH  17  18
ENDBRANCH  16  17
ENDBRANCH  15  16
ENDBRANCH  14  15
ENDBRANCH  13  14
ENDBRANCH   1  13
TORSDOF 6
ENDMDL
MODEL 5
REMARK VINA RESULT: -6.553956840      1.919      2.620
REMARK  6 active torsions:
REMARK  status: ('A' for Active; 'I' for Inactive)
REMARK    1  A    between atoms: N3_4  and  C2_6 
REMARK    2  A    between atoms: C2_6  and  C3_7 
REMARK    3  A    between atoms: C3_7  and  C4_8 
REMARK    4  A    between atoms: C4_8  and  C5_9 
REMARK    5  A    between atoms: C5_9  and  C6_10 
REMARK    6  A    between atoms: C6_10  and  N4_11 
ROOT
HETATM    1  N4  UNL     1      19.531 -21.215  40.673  1.00  0.00    -0.373 N 
HETATM    2  C7  UNL     1      20.700 -21.012  39.935  1.00  0.00     0.063 C 
HETATM    3  C8  UNL     1      21.288 -19.651  40.205  1.00  0.00     0.046 C 
HETATM    4  C9  UNL     1      20.810 -18.959  41.403  1.00  0.00     0.018 C 
HETATM    5  C10 UNL     1      19.996 -19.688  42.390  1.00  0.00     0.001 C 
HETATM    6  C11 UNL     1      18.637 -19.032  42.617  1.00  0.00     0.134 C 
HETATM    7  N5  UNL     1      18.958 -17.918  43.447  1.00  0.00    -0.360 N 
ATOM      8  H5  UNL     1      18.427 -17.049  43.502  1.00  0.00     0.162 HD
HETATM    9  C12 UNL     1      20.132 -18.212  44.183  1.00  0.00     0.218 C 
HETATM   10  O1  UNL     1      20.714 -17.478  45.022  1.00  0.00    -0.274 OA
HETATM   11  C13 UNL     1      20.596 -19.577  43.800  1.00  0.00     0.115 C 
HETATM   12  C14 UNL     1      19.716 -21.136  42.076  1.00  0.00     0.138 C 
ENDROOT
BRANCH   1  13
HETATM   13  C6  UNL     1      18.357 -21.681  40.152  1.00  0.00     0.063 C 
BRANCH  13  14
HETATM   14  C5  UNL     1      17.796 -21.135  38.881  1.00  0.00     0.044 C 
BRANCH  14  15
HETATM   15  C4  UNL     1      17.813 -19.652  38.798  1.00  0.00     0.007 C 
BRANCH  15  16
HETATM   16  C3  UNL     1      16.413 -19.063  38.829  1.00  0.00     0.020 C 
BRANCH  16  17
HETATM   17  C2  UNL     1      16.151 -18.388  40.153  1.00  0.00     0.122 C 
BRANCH  17  18
HETATM   18  N3  UNL     1      15.653 -19.354  41.120  1.00  0.00    -0.367 N 
HETATM   19  C1  UNL     1      14.706 -18.989  41.891  1.00  0.00     0.196 C 
HETATM   20  N1  UNL     1      14.194 -19.902  42.845  1.00  0.00    -0.067 NA
HETATM   21  N2  UNL     1      14.158 -17.699  41.794  1.00  0.00    -0.067 NA
ATOM     22  H3  UNL     1      16.049 -20.293  41.179  1.00  0.00     0.161 HD
ENDBRANCH  17  18
ENDBRANCH  16  17
ENDBRANCH  15  16
ENDBRANCH  14  15
ENDBRANCH  13  14
ENDBRANCH   1  13
TORSDOF 6
ENDMDL
