MODEL 1
REMARK VINA RESULT: -6.397532058      0.000      0.000
REMARK  9 active torsions:
REMARK  status: ('A' for Active; 'I' for Inactive)
REMARK    1  A    between atoms: C3_4  and  N2_5 
REMARK    2  A    between atoms: N2_5  and  C4_7 
REMARK    3  A    between atoms: C4_7  and  C5_8 
REMARK    4  A    between atoms: C5_8  and  C6_9 
REMARK    5  A    between atoms: C12_17  and  N4_18 
REMARK    6  A    between atoms: N4_18  and  C13_20 
REMARK    7  A    between atoms: C13_20  and  C14_21 
REMARK    8  A    between atoms: C14_21  and  C15_22 
REMARK    9  A    between atoms: C15_22  and  O1_23 
ROOT
HETATM    1  C1  UNL     1      16.304 -22.320  45.296  1.00  0.00     0.177 C 
HETATM    2  N1  UNL     1      17.049 -21.380  44.481  1.00  0.00    -0.290 N 
HETATM    3  C2  UNL     1      18.329 -21.649  44.089  1.00  0.00     0.158 A 
HETATM    4  C3  UNL     1      19.049 -20.767  43.316  1.00  0.00     0.134 A 
HETATM    5  N3  UNL     1      18.460 -19.598  42.939  1.00  0.00    -0.174 N 
ATOM      6  H3  UNL     1      18.967 -18.924  42.366  1.00  0.00     0.186 HD
HETATM    7  C12 UNL     1      17.208 -19.348  43.330  1.00  0.00     0.694 A 
HETATM    8  N5  UNL     1      16.540 -20.234  44.083  1.00  0.00    -0.131 N 
ATOM      9  H5  UNL     1      15.586 -20.006  44.362  1.00  0.00     0.205 HD
ENDROOT
BRANCH   4  10
HETATM   10  N2  UNL     1      20.238 -21.053  42.971  1.00  0.00    -0.374 N 
ATOM     11  H2  UNL     1      20.699 -21.826  43.451  1.00  0.00     0.161 HD
BRANCH  10  12
HETATM   12  C4  UNL     1      20.977 -20.363  41.954  1.00  0.00     0.126 C 
BRANCH  12  13
HETATM   13  C5  UNL     1      20.795 -21.049  40.594  1.00  0.00     0.058 C 
BRANCH  13  14
HETATM   14  C6  UNL     1      19.873 -20.255  39.758  1.00  0.00    -0.057 A 
HETATM   15  C7  UNL     1      20.196 -18.924  39.496  1.00  0.00     0.007 A 
HETATM   16  C8  UNL     1      19.340 -18.149  38.706  1.00  0.00     0.001 A 
HETATM   17  C9  UNL     1      18.187 -18.702  38.191  1.00  0.00     0.000 A 
HETATM   18  C10 UNL     1      17.847 -20.009  38.434  1.00  0.00     0.001 A 
HETATM   19  C11 UNL     1      18.711 -20.765  39.223  1.00  0.00     0.007 A 
ENDBRANCH  13  14
ENDBRANCH  12  13
ENDBRANCH  10  12
ENDBRANCH   4  10
BRANCH   7  20
HETATM   20  N4  UNL     1      16.694 -18.220  42.943  1.00  0.00    -0.225 N 
ATOM     21  H4  UNL     1      16.302 -17.556  43.610  1.00  0.00     0.177 HD
BRANCH  20  22
HETATM   22  C13 UNL     1      16.705 -17.950  41.519  1.00  0.00     0.140 C 
BRANCH  22  23
HETATM   23  C14 UNL     1      15.534 -18.595  40.820  1.00  0.00     0.046 C 
BRANCH  23  24
HETATM   24  C15 UNL     1      14.290 -18.223  41.626  1.00  0.00     0.165 C 
BRANCH  24  25
HETATM   25  O1  UNL     1      13.849 -19.289  42.392  1.00  0.00    -0.401 OA
ATOM     26  H1  UNL     1      13.317 -18.993  43.121  1.00  0.00     0.209 HD
ENDBRANCH  24  25
ENDBRANCH  23  24
ENDBRANCH  22  23
ENDBRANCH  20  22
ENDBRANCH   7  20
TORSDOF 9
ENDMDL
MODEL 2
REMARK VINA RESULT: -6.347053802      2.537      4.129
REMARK  9 active torsions:
REMARK  status: ('A' for Active; 'I' for Inactive)
REMARK    1  A    between atoms: C3_4  and  N2_5 
REMARK    2  A    between atoms: N2_5  and  C4_7 
REMARK    3  A    between atoms: C4_7  and  C5_8 
REMARK    4  A    between atoms: C5_8  and  C6_9 
REMARK    5  A    between atoms: C12_17  and  N4_18 
REMARK    6  A    between atoms: N4_18  and  C13_20 
REMARK    7  A    between atoms: C13_20  and  C14_21 
REMARK    8  A    between atoms: C14_21  and  C15_22 
REMARK    9  A    between atoms: C15_22  and  O1_23 
ROOT
HETATM    1  C1  UNL     1      15.350 -21.023  44.051  1.00  0.00     0.177 C 
HETATM    2  N1  UNL     1      15.976 -19.984  43.257  1.00  0.00    -0.290 N 
HETATM    3  C2  UNL     1      15.523 -19.686  42.003  1.00  0.00     0.158 A 
HETATM    4  C3  UNL     1      16.106 -18.703  41.238  1.00  0.00     0.134 A 
HETATM    5  N3  UNL     1      17.163 -18.014  41.754  1.00  0.00    -0.174 N 
ATOM      6  H3  UNL     1      17.617 -17.279  41.211  1.00  0.00     0.186 HD
HETATM    7  C12 UNL     1      17.595 -18.316  42.980  1.00  0.00     0.694 A 
HETATM    8  N5  UNL     1      17.000 -19.282  43.694  1.00  0.00    -0.131 N 
ATOM      9  H5  UNL     1      17.359 -19.483  44.627  1.00  0.00     0.205 HD
ENDROOT
BRANCH   4  10
HETATM   10  N2  UNL     1      15.657 -18.456  40.075  1.00  0.00    -0.374 N 
ATOM     11  H2  UNL     1      14.645 -18.428  39.954  1.00  0.00     0.161 HD
BRANCH  10  12
HETATM   12  C4  UNL     1      16.474 -18.214  38.922  1.00  0.00     0.126 C 
BRANCH  12  13
HETATM   13  C5  UNL     1      17.034 -19.530  38.369  1.00  0.00     0.058 C 
BRANCH  13  14
HETATM   14  C6  UNL     1      18.349 -19.807  38.982  1.00  0.00    -0.057 A 
HETATM   15  C7  UNL     1      19.300 -18.786  38.994  1.00  0.00     0.007 A 
HETATM   16  C8  UNL     1      20.554 -19.021  39.569  1.00  0.00     0.001 A 
HETATM   17  C9  UNL     1      20.843 -20.252  40.118  1.00  0.00     0.000 A 
HETATM   18  C10 UNL     1      19.924 -21.271  40.118  1.00  0.00     0.001 A 
HETATM   19  C11 UNL     1      18.681 -21.019  39.542  1.00  0.00     0.007 A 
ENDBRANCH  13  14
ENDBRANCH  12  13
ENDBRANCH  10  12
ENDBRANCH   4  10
BRANCH   7  20
HETATM   20  N4  UNL     1      18.604 -17.630  43.424  1.00  0.00    -0.225 N 
ATOM     21  H4  UNL     1      18.472 -16.770  43.957  1.00  0.00     0.177 HD
BRANCH  20  22
HETATM   22  C13 UNL     1      19.927 -18.143  43.125  1.00  0.00     0.140 C 
BRANCH  22  23
HETATM   23  C14 UNL     1      20.539 -18.835  44.317  1.00  0.00     0.046 C 
BRANCH  23  24
HETATM   24  C15 UNL     1      21.101 -20.162  43.807  1.00  0.00     0.165 C 
BRANCH  24  25
HETATM   25  O1  UNL     1      22.485 -20.172  43.854  1.00  0.00    -0.401 OA
ATOM     26  H1  UNL     1      22.856 -19.667  43.140  1.00  0.00     0.209 HD
ENDBRANCH  24  25
ENDBRANCH  23  24
ENDBRANCH  22  23
ENDBRANCH  20  22
ENDBRANCH   7  20
TORSDOF 9
ENDMDL
MODEL 3
REMARK VINA RESULT: -6.321713339      1.539      2.175
REMARK  9 active torsions:
REMARK  status: ('A' for Active; 'I' for Inactive)
REMARK    1  A    between atoms: C3_4  and  N2_5 
REMARK    2  A    between atoms: N2_5  and  C4_7 
REMARK    3  A    between atoms: C4_7  and  C5_8 
REMARK    4  A    between atoms: C5_8  and  C6_9 
REMARK    5  A    between atoms: C12_17  and  N4_18 
REMARK    6  A    between atoms: N4_18  and  C13_20 
REMARK    7  A    between atoms: C13_20  and  C14_21 
REMARK    8  A    between atoms: C14_21  and  C15_22 
REMARK    9  A    between atoms: C15_22  and  O1_23 
ROOT
HETATM    1  C1  UNL     1      20.560 -17.567  44.418  1.00  0.00     0.177 C 
HETATM    2  N1  UNL     1      19.552 -18.317  43.694  1.00  0.00    -0.290 N 
HETATM    3  C2  UNL     1      19.754 -19.626  43.359  1.00  0.00     0.158 A 
HETATM    4  C3  UNL     1      18.808 -20.350  42.672  1.00  0.00     0.134 A 
HETATM    5  N3  UNL     1      17.641 -19.737  42.323  1.00  0.00    -0.174 N 
ATOM      6  H3  UNL     1      16.920 -20.248  41.814  1.00  0.00     0.186 HD
HETATM    7  C12 UNL     1      17.458 -18.459  42.658  1.00  0.00     0.694 A 
HETATM    8  N5  UNL     1      18.405 -17.786  43.327  1.00  0.00    -0.131 N 
ATOM      9  H5  UNL     1      18.228 -16.810  43.564  1.00  0.00     0.205 HD
ENDROOT
BRANCH   4  10
HETATM   10  N2  UNL     1      19.033 -21.565  42.377  1.00  0.00    -0.374 N 
ATOM     11  H2  UNL     1      19.281 -22.200  43.136  1.00  0.00     0.161 HD
BRANCH  10  12
HETATM   12  C4  UNL     1      18.962 -22.107  41.051  1.00  0.00     0.126 C 
BRANCH  12  13
HETATM   13  C5  UNL     1      19.939 -21.381  40.117  1.00  0.00     0.058 C 
BRANCH  13  14
HETATM   14  C6  UNL     1      19.215 -20.350  39.347  1.00  0.00    -0.057 A 
HETATM   15  C7  UNL     1      19.782 -19.078  39.250  1.00  0.00     0.007 A 
HETATM   16  C8  UNL     1      19.119 -18.082  38.525  1.00  0.00     0.001 A 
HETATM   17  C9  UNL     1      17.915 -18.359  37.913  1.00  0.00     0.000 A 
HETATM   18  C10 UNL     1      17.337 -19.601  37.994  1.00  0.00     0.001 A 
HETATM   19  C11 UNL     1      18.012 -20.580  38.719  1.00  0.00     0.007 A 
ENDBRANCH  13  14
ENDBRANCH  12  13
ENDBRANCH  10  12
ENDBRANCH   4  10
BRANCH   7  20
HETATM   20  N4  UNL     1      16.330 -17.923  42.302  1.00  0.00    -0.225 N 
ATOM     21  H4  UNL     1      15.943 -17.118  42.794  1.00  0.00     0.177 HD
BRANCH  20  22
HETATM   22  C13 UNL     1      15.647 -18.523  41.173  1.00  0.00     0.140 C 
BRANCH  22  23
HETATM   23  C14 UNL     1      14.151 -18.361  41.275  1.00  0.00     0.046 C 
BRANCH  23  24
HETATM   24  C15 UNL     1      13.689 -19.300  42.389  1.00  0.00     0.165 C 
BRANCH  24  25
HETATM   25  O1  UNL     1      14.455 -20.453  42.424  1.00  0.00    -0.401 OA
ATOM     26  H1  UNL     1      15.369 -20.265  42.244  1.00  0.00     0.209 HD
ENDBRANCH  24  25
ENDBRANCH  23  24
ENDBRANCH  22  23
ENDBRANCH  20  22
ENDBRANCH   7  20
TORSDOF 9
ENDMDL
MODEL 4
REMARK VINA RESULT: -6.191786602      1.437      1.805
REMARK  9 active torsions:
REMARK  status: ('A' for Active; 'I' for Inactive)
REMARK    1  A    between atoms: C3_4  and  N2_5 
REMARK    2  A    between atoms: N2_5  and  C4_7 
REMARK    3  A    between atoms: C4_7  and  C5_8 
REMARK    4  A    between atoms: C5_8  and  C6_9 
REMARK    5  A    between atoms: C12_17  and  N4_18 
REMARK    6  A    between atoms: N4_18  and  C13_20 
REMARK    7  A    between atoms: C13_20  and  C14_21 
REMARK    8  A    between atoms: C14_21  and  C15_22 
REMARK    9  A    between atoms: C15_22  and  O1_23 
ROOT
HETATM    1  C1  UNL     1      19.006 -22.901  45.030  1.00  0.00     0.177 C 
HETATM    2  N1  UNL     1      18.806 -21.657  44.311  1.00  0.00    -0.290 N 
HETATM    3  C2  UNL     1      19.848 -21.024  43.696  1.00  0.00     0.158 A 
HETATM    4  C3  UNL     1      19.674 -19.844  43.011  1.00  0.00     0.134 A 
HETATM    5  N3  UNL     1      18.425 -19.301  42.949  1.00  0.00    -0.174 N 
ATOM      6  H3  UNL     1      18.264 -18.428  42.448  1.00  0.00     0.186 HD
HETATM    7  C12 UNL     1      17.416 -19.932  43.554  1.00  0.00     0.694 A 
HETATM    8  N5  UNL     1      17.627 -21.080  44.213  1.00  0.00    -0.131 N 
ATOM      9  H5  UNL     1      16.830 -21.531  44.663  1.00  0.00     0.205 HD
ENDROOT
BRANCH   4  10
HETATM   10  N2  UNL     1      20.669 -19.283  42.453  1.00  0.00    -0.374 N 
ATOM     11  H2  UNL     1      21.181 -18.583  42.989  1.00  0.00     0.161 HD
BRANCH  10  12
HETATM   12  C4  UNL     1      21.121 -19.566  41.121  1.00  0.00     0.126 C 
BRANCH  12  13
HETATM   13  C5  UNL     1      20.674 -18.464  40.153  1.00  0.00     0.058 C 
BRANCH  13  14
HETATM   14  C6  UNL     1      19.552 -18.954  39.327  1.00  0.00    -0.057 A 
HETATM   15  C7  UNL     1      19.061 -18.123  38.320  1.00  0.00     0.007 A 
HETATM   16  C8  UNL     1      17.999 -18.562  37.521  1.00  0.00     0.001 A 
HETATM   17  C9  UNL     1      17.445 -19.806  37.733  1.00  0.00     0.000 A 
HETATM   18  C10 UNL     1      17.910 -20.642  38.717  1.00  0.00     0.001 A 
HETATM   19  C11 UNL     1      18.968 -20.188  39.502  1.00  0.00     0.007 A 
ENDBRANCH  13  14
ENDBRANCH  12  13
ENDBRANCH  10  12
ENDBRANCH   4  10
BRANCH   7  20
HETATM   20  N4  UNL     1      16.248 -19.373  43.465  1.00  0.00    -0.225 N 
ATOM     21  H4  UNL     1      15.912 -18.721  44.174  1.00  0.00     0.177 HD
BRANCH  20  22
HETATM   22  C13 UNL     1      15.442 -19.720  42.311  1.00  0.00     0.140 C 
BRANCH  22  23
HETATM   23  C14 UNL     1      14.950 -18.493  41.585  1.00  0.00     0.046 C 
BRANCH  23  24
HETATM   24  C15 UNL     1      16.095 -18.036  40.682  1.00  0.00     0.165 C 
BRANCH  24  25
HETATM   25  O1  UNL     1      16.944 -17.169  41.349  1.00  0.00    -0.401 OA
ATOM     26  H1  UNL     1      17.853 -17.347  41.136  1.00  0.00     0.209 HD
ENDBRANCH  24  25
ENDBRANCH  23  24
ENDBRANCH  22  23
ENDBRANCH  20  22
ENDBRANCH   7  20
TORSDOF 9
ENDMDL
MODEL 5
REMARK VINA RESULT: -6.173408386      2.123      4.167
REMARK  9 active torsions:
REMARK  status: ('A' for Active; 'I' for Inactive)
REMARK    1  A    between atoms: C3_4  and  N2_5 
REMARK    2  A    between atoms: N2_5  and  C4_7 
REMARK    3  A    between atoms: C4_7  and  C5_8 
REMARK    4  A    between atoms: C5_8  and  C6_9 
REMARK    5  A    between atoms: C12_17  and  N4_18 
REMARK    6  A    between atoms: N4_18  and  C13_20 
REMARK    7  A    between atoms: C13_20  and  C14_21 
REMARK    8  A    between atoms: C14_21  and  C15_22 
REMARK    9  A    between atoms: C15_22  and  O1_23 
ROOT
HETATM    1  C1  UNL     1      13.633 -19.344  42.147  1.00  0.00     0.177 C 
HETATM    2  N1  UNL     1      15.021 -18.943  42.026  1.00  0.00    -0.290 N 
HETATM    3  C2  UNL     1      15.449 -18.201  40.962  1.00  0.00     0.158 A 
HETATM    4  C3  UNL     1      16.763 -17.813  40.833  1.00  0.00     0.134 A 
HETATM    5  N3  UNL     1      17.652 -18.184  41.798  1.00  0.00    -0.174 N 
ATOM      6  H3  UNL     1      18.632 -17.912  41.730  1.00  0.00     0.186 HD
HETATM    7  C12 UNL     1      17.219 -18.909  42.831  1.00  0.00     0.694 A 
HETATM    8  N5  UNL     1      15.930 -19.267  42.920  1.00  0.00    -0.131 N 
ATOM      9  H5  UNL     1      15.638 -19.822  43.725  1.00  0.00     0.205 HD
ENDROOT
BRANCH   4  10
HETATM   10  N2  UNL     1      17.124 -17.124  39.828  1.00  0.00    -0.374 N 
ATOM     11  H2  UNL     1      17.445 -16.171  39.998  1.00  0.00     0.161 HD
BRANCH  10  12
HETATM   12  C4  UNL     1      17.111 -17.593  38.473  1.00  0.00     0.126 C 
BRANCH  12  13
HETATM   13  C5  UNL     1      18.522 -17.991  38.024  1.00  0.00     0.058 C 
BRANCH  13  14
HETATM   14  C6  UNL     1      18.951 -19.202  38.751  1.00  0.00    -0.057 A 
HETATM   15  C7  UNL     1      20.204 -19.196  39.366  1.00  0.00     0.007 A 
HETATM   16  C8  UNL     1      20.635 -20.331  40.062  1.00  0.00     0.001 A 
HETATM   17  C9  UNL     1      19.825 -21.443  40.138  1.00  0.00     0.000 A 
HETATM   18  C10 UNL     1      18.589 -21.474  39.542  1.00  0.00     0.001 A 
HETATM   19  C11 UNL     1      18.177 -20.336  38.853  1.00  0.00     0.007 A 
ENDBRANCH  13  14
ENDBRANCH  12  13
ENDBRANCH  10  12
ENDBRANCH   4  10
BRANCH   7  20
HETATM   20  N4  UNL     1      18.106 -19.235  43.722  1.00  0.00    -0.225 N 
ATOM     21  H4  UNL     1      18.229 -18.692  44.576  1.00  0.00     0.177 HD
BRANCH  20  22
HETATM   22  C13 UNL     1      18.912 -20.408  43.443  1.00  0.00     0.140 C 
BRANCH  22  23
HETATM   23  C14 UNL     1      20.370 -20.167  43.748  1.00  0.00     0.046 C 
BRANCH  23  24
HETATM   24  C15 UNL     1      20.508 -18.676  44.053  1.00  0.00     0.165 C 
BRANCH  24  25
HETATM   25  O1  UNL     1      20.583 -17.930  42.889  1.00  0.00    -0.401 OA
ATOM     26  H1  UNL     1      21.270 -17.275  42.943  1.00  0.00     0.209 HD
ENDBRANCH  24  25
ENDBRANCH  23  24
ENDBRANCH  22  23
ENDBRANCH  20  22
ENDBRANCH   7  20
TORSDOF 9
ENDMDL
