MODEL 1
REMARK VINA RESULT: -6.391588826      0.000      0.000
REMARK  8 active torsions:
REMARK  status: ('A' for Active; 'I' for Inactive)
REMARK    1  A    between atoms: N1_1  and  C1_5 
REMARK    2  A    between atoms: C1_5  and  C2_6 
REMARK    3  A    between atoms: C2_6  and  C3_7 
REMARK    4  A    between atoms: C3_7  and  C4_8 
REMARK    5  A    between atoms: C3_7  and  N2_15 
REMARK    6  A    between atoms: C4_8  and  C5_9 
REMARK    7  A    between atoms: C13_19  and  C14_20 
REMARK    8  A    between atoms: N3_22  and  N4_23 
ROOT
HETATM    1  C3  UNL     1      15.873 -18.992  41.653  1.00  0.00     0.088 C 
ENDROOT
BRANCH   1   2
HETATM    2  C2  UNL     1      14.674 -19.427  42.501  1.00  0.00     0.052 C 
BRANCH   2   3
HETATM    3  C1  UNL     1      15.054 -20.644  43.323  1.00  0.00     0.231 C 
BRANCH   3   4
HETATM    4  N1  UNL     1      15.113 -20.377  44.720  1.00  0.00    -0.079 N 
ATOM      5  H13 UNL     1      15.490 -19.446  44.896  1.00  0.00     0.274 HD
ATOM      6  H12 UNL     1      14.178 -20.255  45.108  1.00  0.00     0.274 HD
ATOM      7  H11 UNL     1      15.633 -21.084  45.240  1.00  0.00     0.274 HD
ENDBRANCH   3   4
ENDBRANCH   2   3
ENDBRANCH   1   2
BRANCH   1   8
HETATM    8  C4  UNL     1      15.438 -18.309  40.395  1.00  0.00     0.063 C 
BRANCH   8   9
HETATM    9  C5  UNL     1      16.426 -18.366  39.311  1.00  0.00    -0.056 A 
HETATM   10  C6  UNL     1      16.887 -19.573  38.832  1.00  0.00     0.007 A 
HETATM   11  C7  UNL     1      17.800 -19.703  37.832  1.00  0.00     0.001 A 
HETATM   12  C8  UNL     1      18.310 -18.566  37.247  1.00  0.00     0.000 A 
HETATM   13  C9  UNL     1      17.876 -17.337  37.697  1.00  0.00     0.001 A 
HETATM   14  C10 UNL     1      16.941 -17.228  38.721  1.00  0.00     0.007 A 
ENDBRANCH   8   9
ENDBRANCH   1   8
BRANCH   1  15
HETATM   15  N2  UNL     1      16.827 -18.262  42.428  1.00  0.00    -0.371 N 
HETATM   16  C11 UNL     1      17.994 -18.659  42.756  1.00  0.00     0.104 A 
HETATM   17  C12 UNL     1      18.540 -19.876  42.415  1.00  0.00     0.083 A 
HETATM   18  N5  UNL     1      18.769 -17.842  43.493  1.00  0.00    -0.337 N 
HETATM   19  C13 UNL     1      19.810 -20.235  42.808  1.00  0.00     0.098 A 
HETATM   20  N3  UNL     1      20.555 -19.380  43.550  1.00  0.00    -0.255 N 
HETATM   21  C15 UNL     1      19.994 -18.201  43.866  1.00  0.00     0.208 A 
ATOM     22  H5  UNL     1      18.410 -16.928  43.771  1.00  0.00     0.168 HD
ATOM     23  H2  UNL     1      16.547 -17.336  42.750  1.00  0.00     0.161 HD
BRANCH  19  24
HETATM   24  C14 UNL     1      20.393 -21.520  42.450  1.00  0.00     0.290 C 
HETATM   25  O1  UNL     1      21.324 -21.615  41.631  1.00  0.00    -0.300 OA
ENDBRANCH  19  24
BRANCH  20  26
HETATM   26  N4  UNL     1      21.848 -19.716  43.964  1.00  0.00    -0.337 N 
ATOM     27  H42 UNL     1      22.272 -20.612  43.726  1.00  0.00     0.177 HD
ATOM     28  H41 UNL     1      22.409 -19.072  44.521  1.00  0.00     0.177 HD
ENDBRANCH  20  26
ENDBRANCH   1  15
TORSDOF 8
ENDMDL
MODEL 2
REMARK VINA RESULT: -6.355142437      2.709      4.854
REMARK  8 active torsions:
REMARK  status: ('A' for Active; 'I' for Inactive)
REMARK    1  A    between atoms: N1_1  and  C1_5 
REMARK    2  A    between atoms: C1_5  and  C2_6 
REMARK    3  A    between atoms: C2_6  and  C3_7 
REMARK    4  A    between atoms: C3_7  and  C4_8 
REMARK    5  A    between atoms: C3_7  and  N2_15 
REMARK    6  A    between atoms: C4_8  and  C5_9 
REMARK    7  A    between atoms: C13_19  and  C14_20 
REMARK    8  A    between atoms: N3_22  and  N4_23 
ROOT
HETATM    1  C3  UNL     1      19.843 -20.335  42.170  1.00  0.00     0.088 C 
ENDROOT
BRANCH   1   2
HETATM    2  C2  UNL     1      20.747 -19.628  43.184  1.00  0.00     0.052 C 
BRANCH   2   3
HETATM    3  C1  UNL     1      20.010 -18.439  43.771  1.00  0.00     0.231 C 
BRANCH   3   4
HETATM    4  N1  UNL     1      20.844 -17.604  44.569  1.00  0.00    -0.079 N 
ATOM      5  H13 UNL     1      21.116 -18.078  45.429  1.00  0.00     0.274 HD
ATOM      6  H12 UNL     1      21.764 -17.494  44.142  1.00  0.00     0.274 HD
ATOM      7  H11 UNL     1      20.425 -16.696  44.769  1.00  0.00     0.274 HD
ENDBRANCH   3   4
ENDBRANCH   2   3
ENDBRANCH   1   2
BRANCH   1   8
HETATM    8  C4  UNL     1      20.443 -20.323  40.798  1.00  0.00     0.063 C 
BRANCH   8   9
HETATM    9  C5  UNL     1      19.547 -19.800  39.759  1.00  0.00    -0.056 A 
HETATM   10  C6  UNL     1      18.452 -20.521  39.335  1.00  0.00     0.007 A 
HETATM   11  C7  UNL     1      17.581 -20.100  38.380  1.00  0.00     0.001 A 
HETATM   12  C8  UNL     1      17.789 -18.878  37.783  1.00  0.00     0.000 A 
HETATM   13  C9  UNL     1      18.874 -18.123  38.177  1.00  0.00     0.001 A 
HETATM   14  C10 UNL     1      19.753 -18.573  39.158  1.00  0.00     0.007 A 
ENDBRANCH   8   9
ENDBRANCH   1   8
BRANCH   1  15
HETATM   15  N2  UNL     1      19.443 -21.626  42.634  1.00  0.00    -0.371 N 
HETATM   16  C11 UNL     1      18.291 -21.941  43.083  1.00  0.00     0.104 A 
HETATM   17  C12 UNL     1      17.224 -21.078  43.199  1.00  0.00     0.083 A 
HETATM   18  N5  UNL     1      18.079 -23.211  43.480  1.00  0.00    -0.337 N 
HETATM   19  C13 UNL     1      16.008 -21.495  43.695  1.00  0.00     0.098 A 
HETATM   20  N3  UNL     1      15.842 -22.781  44.084  1.00  0.00    -0.255 N 
HETATM   21  C15 UNL     1      16.901 -23.598  43.957  1.00  0.00     0.208 A 
ATOM     22  H5  UNL     1      18.839 -23.888  43.413  1.00  0.00     0.168 HD
ATOM     23  H2  UNL     1      20.144 -22.365  42.603  1.00  0.00     0.161 HD
BRANCH  19  24
HETATM   24  C14 UNL     1      14.877 -20.587  43.821  1.00  0.00     0.290 C 
HETATM   25  O1  UNL     1      14.291 -20.412  44.905  1.00  0.00    -0.300 OA
ENDBRANCH  19  24
BRANCH  20  26
HETATM   26  N4  UNL     1      14.619 -23.232  44.592  1.00  0.00    -0.337 N 
ATOM     27  H42 UNL     1      13.932 -22.592  44.989  1.00  0.00     0.177 HD
ATOM     28  H41 UNL     1      14.375 -24.223  44.581  1.00  0.00     0.177 HD
ENDBRANCH  20  26
ENDBRANCH   1  15
TORSDOF 8
ENDMDL
MODEL 3
REMARK VINA RESULT: -6.304604512      2.716      4.928
REMARK  8 active torsions:
REMARK  status: ('A' for Active; 'I' for Inactive)
REMARK    1  A    between atoms: N1_1  and  C1_5 
REMARK    2  A    between atoms: C1_5  and  C2_6 
REMARK    3  A    between atoms: C2_6  and  C3_7 
REMARK    4  A    between atoms: C3_7  and  C4_8 
REMARK    5  A    between atoms: C3_7  and  N2_15 
REMARK    6  A    between atoms: C4_8  and  C5_9 
REMARK    7  A    between atoms: C13_19  and  C14_20 
REMARK    8  A    between atoms: N3_22  and  N4_23 
ROOT
HETATM    1  C3  UNL     1      19.836 -20.339  42.165  1.00  0.00     0.088 C 
ENDROOT
BRANCH   1   2
HETATM    2  C2  UNL     1      20.755 -19.599  43.142  1.00  0.00     0.052 C 
BRANCH   2   3
HETATM    3  C1  UNL     1      20.026 -18.392  43.702  1.00  0.00     0.231 C 
BRANCH   3   4
HETATM    4  N1  UNL     1      20.807 -17.653  44.635  1.00  0.00    -0.079 N 
ATOM      5  H13 UNL     1      20.502 -17.836  45.591  1.00  0.00     0.274 HD
ATOM      6  H12 UNL     1      21.756 -18.023  44.690  1.00  0.00     0.274 HD
ATOM      7  H11 UNL     1      20.819 -16.651  44.442  1.00  0.00     0.274 HD
ENDBRANCH   3   4
ENDBRANCH   2   3
ENDBRANCH   1   2
BRANCH   1   8
HETATM    8  C4  UNL     1      20.399 -20.344  40.778  1.00  0.00     0.063 C 
BRANCH   8   9
HETATM    9  C5  UNL     1      19.500 -19.779  39.765  1.00  0.00    -0.056 A 
HETATM   10  C6  UNL     1      19.756 -18.553  39.190  1.00  0.00     0.007 A 
HETATM   11  C7  UNL     1      18.969 -17.969  38.248  1.00  0.00     0.001 A 
HETATM   12  C8  UNL     1      17.837 -18.628  37.827  1.00  0.00     0.000 A 
HETATM   13  C9  UNL     1      17.542 -19.858  38.376  1.00  0.00     0.001 A 
HETATM   14  C10 UNL     1      18.362 -20.437  39.339  1.00  0.00     0.007 A 
ENDBRANCH   8   9
ENDBRANCH   1   8
BRANCH   1  15
HETATM   15  N2  UNL     1      19.467 -21.626  42.663  1.00  0.00    -0.371 N 
HETATM   16  C11 UNL     1      18.325 -21.955  43.129  1.00  0.00     0.104 A 
HETATM   17  C12 UNL     1      17.241 -21.113  43.233  1.00  0.00     0.083 A 
HETATM   18  N5  UNL     1      18.144 -23.219  43.558  1.00  0.00    -0.337 N 
HETATM   19  C13 UNL     1      16.038 -21.543  43.748  1.00  0.00     0.098 A 
HETATM   20  N3  UNL     1      15.902 -22.823  44.169  1.00  0.00    -0.255 N 
HETATM   21  C15 UNL     1      16.978 -23.620  44.054  1.00  0.00     0.208 A 
ATOM     22  H5  UNL     1      18.918 -23.882  43.502  1.00  0.00     0.168 HD
ATOM     23  H2  UNL     1      20.184 -22.351  42.645  1.00  0.00     0.161 HD
BRANCH  19  24
HETATM   24  C14 UNL     1      14.888 -20.657  43.860  1.00  0.00     0.290 C 
HETATM   25  O1  UNL     1      14.366 -20.394  44.958  1.00  0.00    -0.300 OA
ENDBRANCH  19  24
BRANCH  20  26
HETATM   26  N4  UNL     1      14.693 -23.288  44.697  1.00  0.00    -0.337 N 
ATOM     27  H42 UNL     1      13.950 -22.650  44.981  1.00  0.00     0.177 HD
ATOM     28  H41 UNL     1      14.516 -24.286  44.815  1.00  0.00     0.177 HD
ENDBRANCH  20  26
ENDBRANCH   1  15
TORSDOF 8
ENDMDL
MODEL 4
REMARK VINA RESULT: -6.248465575      2.720      4.865
REMARK  8 active torsions:
REMARK  status: ('A' for Active; 'I' for Inactive)
REMARK    1  A    between atoms: N1_1  and  C1_5 
REMARK    2  A    between atoms: C1_5  and  C2_6 
REMARK    3  A    between atoms: C2_6  and  C3_7 
REMARK    4  A    between atoms: C3_7  and  C4_8 
REMARK    5  A    between atoms: C3_7  and  N2_15 
REMARK    6  A    between atoms: C4_8  and  C5_9 
REMARK    7  A    between atoms: C13_19  and  C14_20 
REMARK    8  A    between atoms: N3_22  and  N4_23 
ROOT
HETATM    1  C3  UNL     1      20.507 -20.896  41.605  1.00  0.00     0.088 C 
ENDROOT
BRANCH   1   2
HETATM    2  C2  UNL     1      21.837 -20.558  42.284  1.00  0.00     0.052 C 
BRANCH   2   3
HETATM    3  C1  UNL     1      21.612 -20.384  43.774  1.00  0.00     0.231 C 
BRANCH   3   4
HETATM    4  N1  UNL     1      21.073 -19.110  44.111  1.00  0.00    -0.079 N 
ATOM      5  H13 UNL     1      20.998 -19.003  45.123  1.00  0.00     0.274 HD
ATOM      6  H12 UNL     1      21.745 -18.367  43.915  1.00  0.00     0.274 HD
ATOM      7  H11 UNL     1      20.180 -18.921  43.658  1.00  0.00     0.274 HD
ENDBRANCH   3   4
ENDBRANCH   2   3
ENDBRANCH   1   2
BRANCH   1   8
HETATM    8  C4  UNL     1      20.604 -20.774  40.116  1.00  0.00     0.063 C 
BRANCH   8   9
HETATM    9  C5  UNL     1      19.551 -19.947  39.514  1.00  0.00    -0.056 A 
HETATM   10  C6  UNL     1      18.289 -20.454  39.291  1.00  0.00     0.007 A 
HETATM   11  C7  UNL     1      17.266 -19.749  38.739  1.00  0.00     0.001 A 
HETATM   12  C8  UNL     1      17.485 -18.441  38.370  1.00  0.00     0.000 A 
HETATM   13  C9  UNL     1      18.734 -17.894  38.574  1.00  0.00     0.001 A 
HETATM   14  C10 UNL     1      19.766 -18.635  39.142  1.00  0.00     0.007 A 
ENDBRANCH   8   9
ENDBRANCH   1   8
BRANCH   1  15
HETATM   15  N2  UNL     1      19.982 -22.141  42.068  1.00  0.00    -0.371 N 
HETATM   16  C11 UNL     1      18.904 -22.305  42.730  1.00  0.00     0.104 A 
HETATM   17  C12 UNL     1      18.052 -21.295  43.118  1.00  0.00     0.083 A 
HETATM   18  N5  UNL     1      18.551 -23.554  43.090  1.00  0.00    -0.337 N 
HETATM   19  C13 UNL     1      16.904 -21.551  43.833  1.00  0.00     0.098 A 
HETATM   20  N3  UNL     1      16.590 -22.824  44.174  1.00  0.00    -0.255 N 
HETATM   21  C15 UNL     1      17.440 -23.787  43.781  1.00  0.00     0.208 A 
ATOM     22  H5  UNL     1      19.149 -24.338  42.825  1.00  0.00     0.168 HD
ATOM     23  H2  UNL     1      20.520 -22.979  41.848  1.00  0.00     0.161 HD
BRANCH  19  24
HETATM   24  C14 UNL     1      16.000 -20.487  44.246  1.00  0.00     0.290 C 
HETATM   25  O1  UNL     1      15.869 -20.162  45.440  1.00  0.00    -0.300 OA
ENDBRANCH  19  24
BRANCH  20  26
HETATM   26  N4  UNL     1      15.431 -23.115  44.900  1.00  0.00    -0.337 N 
ATOM     27  H42 UNL     1      15.310 -22.808  45.865  1.00  0.00     0.177 HD
ATOM     28  H41 UNL     1      14.666 -23.648  44.485  1.00  0.00     0.177 HD
ENDBRANCH  20  26
ENDBRANCH   1  15
TORSDOF 8
ENDMDL
MODEL 5
REMARK VINA RESULT: -6.244575915      2.717      4.943
REMARK  8 active torsions:
REMARK  status: ('A' for Active; 'I' for Inactive)
REMARK    1  A    between atoms: N1_1  and  C1_5 
REMARK    2  A    between atoms: C1_5  and  C2_6 
REMARK    3  A    between atoms: C2_6  and  C3_7 
REMARK    4  A    between atoms: C3_7  and  C4_8 
REMARK    5  A    between atoms: C3_7  and  N2_15 
REMARK    6  A    between atoms: C4_8  and  C5_9 
REMARK    7  A    between atoms: C13_19  and  C14_20 
REMARK    8  A    between atoms: N3_22  and  N4_23 
ROOT
HETATM    1  C3  UNL     1      20.474 -20.870  41.627  1.00  0.00     0.088 C 
ENDROOT
BRANCH   1   2
HETATM    2  C2  UNL     1      21.786 -20.504  42.329  1.00  0.00     0.052 C 
BRANCH   2   3
HETATM    3  C1  UNL     1      21.526 -20.307  43.810  1.00  0.00     0.231 C 
BRANCH   3   4
HETATM    4  N1  UNL     1      21.059 -19.000  44.126  1.00  0.00    -0.079 N 
ATOM      5  H13 UNL     1      21.482 -18.305  43.512  1.00  0.00     0.274 HD
ATOM      6  H12 UNL     1      20.081 -18.887  43.856  1.00  0.00     0.274 HD
ATOM      7  H11 UNL     1      21.196 -18.752  45.106  1.00  0.00     0.274 HD
ENDBRANCH   3   4
ENDBRANCH   2   3
ENDBRANCH   1   2
BRANCH   1   8
HETATM    8  C4  UNL     1      20.597 -20.757  40.140  1.00  0.00     0.063 C 
BRANCH   8   9
HETATM    9  C5  UNL     1      19.523 -19.979  39.509  1.00  0.00    -0.056 A 
HETATM   10  C6  UNL     1      19.709 -18.657  39.166  1.00  0.00     0.007 A 
HETATM   11  C7  UNL     1      18.763 -17.877  38.581  1.00  0.00     0.001 A 
HETATM   12  C8  UNL     1      17.531 -18.423  38.303  1.00  0.00     0.000 A 
HETATM   13  C9  UNL     1      17.301 -19.743  38.630  1.00  0.00     0.001 A 
HETATM   14  C10 UNL     1      18.285 -20.523  39.229  1.00  0.00     0.007 A 
ENDBRANCH   8   9
ENDBRANCH   1   8
BRANCH   1  15
HETATM   15  N2  UNL     1      19.962 -22.121  42.090  1.00  0.00    -0.371 N 
HETATM   16  C11 UNL     1      18.885 -22.297  42.751  1.00  0.00     0.104 A 
HETATM   17  C12 UNL     1      18.022 -21.296  43.137  1.00  0.00     0.083 A 
HETATM   18  N5  UNL     1      18.547 -23.550  43.110  1.00  0.00    -0.337 N 
HETATM   19  C13 UNL     1      16.876 -21.566  43.851  1.00  0.00     0.098 A 
HETATM   20  N3  UNL     1      16.576 -22.842  44.191  1.00  0.00    -0.255 N 
HETATM   21  C15 UNL     1      17.437 -23.795  43.800  1.00  0.00     0.208 A 
ATOM     22  H5  UNL     1      19.154 -24.327  42.847  1.00  0.00     0.168 HD
ATOM     23  H2  UNL     1      20.510 -22.953  41.871  1.00  0.00     0.161 HD
BRANCH  19  24
HETATM   24  C14 UNL     1      15.959 -20.511  44.262  1.00  0.00     0.290 C 
HETATM   25  O1  UNL     1      15.855 -20.158  45.451  1.00  0.00    -0.300 OA
ENDBRANCH  19  24
BRANCH  20  26
HETATM   26  N4  UNL     1      15.419 -23.146  44.917  1.00  0.00    -0.337 N 
ATOM     27  H42 UNL     1      14.712 -23.787  44.557  1.00  0.00     0.177 HD
ATOM     28  H41 UNL     1      15.245 -22.732  45.833  1.00  0.00     0.177 HD
ENDBRANCH  20  26
ENDBRANCH   1  15
TORSDOF 8
ENDMDL
