MODEL 1
REMARK VINA RESULT: -6.730316558      0.000      0.000
REMARK  9 active torsions:
REMARK  status: ('A' for Active; 'I' for Inactive)
REMARK    1  A    between atoms: C2_2  and  C3_3 
REMARK    2  A    between atoms: C3_3  and  C4_4 
REMARK    3  A    between atoms: C4_4  and  N1_5 
REMARK    4  A    between atoms: C4_4  and  C5_9 
REMARK    5  A    between atoms: C4_4  and  C11_18 
REMARK    6  A    between atoms: C5_9  and  C6_10 
REMARK    7  A    between atoms: N2_14  and  O1_15 
REMARK    8  A    between atoms: C11_18  and  N3_19 
REMARK    9  A    between atoms: C14_22  and  N4_23 
ROOT
HETATM    1  C4  UNL     1      19.939 -19.333  40.369  1.00  0.00     0.143 C 
ENDROOT
BRANCH   1   2
HETATM    2  C3  UNL     1      18.919 -19.314  39.212  1.00  0.00     0.040 C 
BRANCH   2   3
HETATM    3  C2  UNL     1      19.182 -18.209  38.229  1.00  0.00    -0.002 C 
HETATM    4  C1  UNL     1      18.099 -18.313  37.140  1.00  0.00     0.005 C 
ENDBRANCH   2   3
ENDBRANCH   1   2
BRANCH   1   5
HETATM    5  N1  UNL     1      20.818 -18.117  40.143  1.00  0.00    -0.069 N 
ATOM      6  H13 UNL     1      20.919 -17.858  39.161  1.00  0.00     0.275 HD
ATOM      7  H12 UNL     1      20.397 -17.241  40.454  1.00  0.00     0.275 HD
ATOM      8  H11 UNL     1      21.700 -18.336  40.605  1.00  0.00     0.275 HD
ENDBRANCH   1   5
BRANCH   1   9
HETATM    9  C5  UNL     1      20.826 -20.482  40.219  1.00  0.00     0.080 C 
BRANCH   9  10
HETATM   10  C6  UNL     1      21.155 -21.278  41.419  1.00  0.00    -0.038 A 
HETATM   11  C7  UNL     1      20.613 -22.478  41.790  1.00  0.00     0.010 A 
HETATM   12  C8  UNL     1      20.975 -23.147  42.945  1.00  0.00     0.020 A 
HETATM   13  C9  UNL     1      21.932 -22.563  43.757  1.00  0.00     0.122 A 
HETATM   14  N2  UNL     1      22.480 -21.377  43.408  1.00  0.00    -0.247 N 
HETATM   15  C10 UNL     1      22.127 -20.732  42.287  1.00  0.00     0.129 A 
BRANCH  14  16
HETATM   16  O1  UNL     1      23.435 -20.849  44.269  1.00  0.00    -0.284 OA
ATOM     17  H1  UNL     1      24.344 -21.049  44.077  1.00  0.00     0.245 HD
ENDBRANCH  14  16
ENDBRANCH   9  10
ENDBRANCH   1   9
BRANCH   1  18
HETATM   18  C11 UNL     1      19.215 -19.024  41.611  1.00  0.00     0.168 C 
BRANCH  18  19
HETATM   19  N3  UNL     1      17.798 -18.862  41.579  1.00  0.00    -0.350 N 
HETATM   20  C12 UNL     1      16.892 -19.764  41.935  1.00  0.00     0.095 A 
HETATM   21  C13 UNL     1      15.506 -19.550  41.874  1.00  0.00     0.065 A 
HETATM   22  C14 UNL     1      15.057 -18.342  41.422  1.00  0.00     0.100 A 
HETATM   23  N5  UNL     1      15.969 -17.425  41.061  1.00  0.00    -0.339 N 
HETATM   24  C15 UNL     1      17.297 -17.678  41.138  1.00  0.00     0.184 A 
ATOM     25  H5  UNL     1      15.654 -16.516  40.722  1.00  0.00     0.168 HD
BRANCH  22  26
HETATM   26  N4  UNL     1      13.782 -18.111  41.352  1.00  0.00    -0.385 N 
ATOM     27  H42 UNL     1      13.121 -18.815  41.021  1.00  0.00     0.157 HD
ATOM     28  H41 UNL     1      13.414 -17.203  41.633  1.00  0.00     0.157 HD
ENDBRANCH  22  26
ENDBRANCH  18  19
ENDBRANCH   1  18
TORSDOF 9
ENDMDL
MODEL 2
REMARK VINA RESULT: -6.584767359      2.887      4.609
REMARK  9 active torsions:
REMARK  status: ('A' for Active; 'I' for Inactive)
REMARK    1  A    between atoms: C2_2  and  C3_3 
REMARK    2  A    between atoms: C3_3  and  C4_4 
REMARK    3  A    between atoms: C4_4  and  N1_5 
REMARK    4  A    between atoms: C4_4  and  C5_9 
REMARK    5  A    between atoms: C4_4  and  C11_18 
REMARK    6  A    between atoms: C5_9  and  C6_10 
REMARK    7  A    between atoms: N2_14  and  O1_15 
REMARK    8  A    between atoms: C11_18  and  N3_19 
REMARK    9  A    between atoms: C14_22  and  N4_23 
ROOT
HETATM    1  C4  UNL     1      20.109 -19.731  42.184  1.00  0.00     0.143 C 
ENDROOT
BRANCH   1   2
HETATM    2  C3  UNL     1      21.361 -20.604  42.404  1.00  0.00     0.040 C 
BRANCH   2   3
HETATM    3  C2  UNL     1      21.478 -21.710  41.394  1.00  0.00    -0.002 C 
HETATM    4  C1  UNL     1      22.568 -22.670  41.906  1.00  0.00     0.005 C 
ENDBRANCH   2   3
ENDBRANCH   1   2
BRANCH   1   5
HETATM    5  N1  UNL     1      20.641 -18.360  41.814  1.00  0.00    -0.069 N 
ATOM      6  H13 UNL     1      20.399 -17.629  42.484  1.00  0.00     0.275 HD
ATOM      7  H12 UNL     1      21.654 -18.272  41.905  1.00  0.00     0.275 HD
ATOM      8  H11 UNL     1      20.296 -18.185  40.870  1.00  0.00     0.275 HD
ENDBRANCH   1   5
BRANCH   1   9
HETATM    9  C5  UNL     1      19.414 -19.545  43.454  1.00  0.00     0.080 C 
BRANCH   9  10
HETATM   10  C6  UNL     1      18.325 -20.479  43.804  1.00  0.00    -0.038 A 
HETATM   11  C7  UNL     1      18.443 -21.803  44.128  1.00  0.00     0.010 A 
HETATM   12  C8  UNL     1      17.359 -22.608  44.429  1.00  0.00     0.020 A 
HETATM   13  C9  UNL     1      16.100 -22.034  44.398  1.00  0.00     0.122 A 
HETATM   14  N2  UNL     1      15.962 -20.726  44.080  1.00  0.00    -0.247 N 
HETATM   15  C10 UNL     1      17.015 -19.950  43.790  1.00  0.00     0.129 A 
BRANCH  14  16
HETATM   16  O1  UNL     1      14.669 -20.216  44.069  1.00  0.00    -0.284 OA
ATOM     17  H1  UNL     1      14.369 -19.826  43.255  1.00  0.00     0.245 HD
ENDBRANCH  14  16
ENDBRANCH   9  10
ENDBRANCH   1   9
BRANCH   1  18
HETATM   18  C11 UNL     1      19.445 -20.199  40.959  1.00  0.00     0.168 C 
BRANCH  18  19
HETATM   19  N3  UNL     1      18.855 -19.250  40.071  1.00  0.00    -0.350 N 
HETATM   20  C12 UNL     1      19.258 -18.965  38.839  1.00  0.00     0.095 A 
HETATM   21  C13 UNL     1      18.640 -18.013  38.013  1.00  0.00     0.065 A 
HETATM   22  C14 UNL     1      17.558 -17.337  38.501  1.00  0.00     0.100 A 
HETATM   23  N5  UNL     1      17.145 -17.623  39.746  1.00  0.00    -0.339 N 
HETATM   24  C15 UNL     1      17.774 -18.551  40.506  1.00  0.00     0.184 A 
ATOM     25  H5  UNL     1      16.338 -17.130  40.128  1.00  0.00     0.168 HD
BRANCH  22  26
HETATM   26  N4  UNL     1      16.964 -16.450  37.763  1.00  0.00    -0.385 N 
ATOM     27  H42 UNL     1      17.351 -15.517  37.619  1.00  0.00     0.157 HD
ATOM     28  H41 UNL     1      16.080 -16.678  37.308  1.00  0.00     0.157 HD
ENDBRANCH  22  26
ENDBRANCH  18  19
ENDBRANCH   1  18
TORSDOF 9
ENDMDL
MODEL 3
REMARK VINA RESULT: -6.459762892      2.062      3.437
REMARK  9 active torsions:
REMARK  status: ('A' for Active; 'I' for Inactive)
REMARK    1  A    between atoms: C2_2  and  C3_3 
REMARK    2  A    between atoms: C3_3  and  C4_4 
REMARK    3  A    between atoms: C4_4  and  N1_5 
REMARK    4  A    between atoms: C4_4  and  C5_9 
REMARK    5  A    between atoms: C4_4  and  C11_18 
REMARK    6  A    between atoms: C5_9  and  C6_10 
REMARK    7  A    between atoms: N2_14  and  O1_15 
REMARK    8  A    between atoms: C11_18  and  N3_19 
REMARK    9  A    between atoms: C14_22  and  N4_23 
ROOT
HETATM    1  C4  UNL     1      18.312 -21.113  40.145  1.00  0.00     0.143 C 
ENDROOT
BRANCH   1   2
HETATM    2  C3  UNL     1      18.276 -22.299  41.131  1.00  0.00     0.040 C 
BRANCH   2   3
HETATM    3  C2  UNL     1      17.489 -21.994  42.373  1.00  0.00    -0.002 C 
HETATM    4  C1  UNL     1      18.367 -22.399  43.571  1.00  0.00     0.005 C 
ENDBRANCH   2   3
ENDBRANCH   1   2
BRANCH   1   5
HETATM    5  N1  UNL     1      17.850 -21.687  38.818  1.00  0.00    -0.069 N 
ATOM      6  H13 UNL     1      18.515 -21.548  38.056  1.00  0.00     0.275 HD
ATOM      7  H12 UNL     1      17.847 -22.706  38.789  1.00  0.00     0.275 HD
ATOM      8  H11 UNL     1      16.936 -21.267  38.650  1.00  0.00     0.275 HD
ENDBRANCH   1   5
BRANCH   1   9
HETATM    9  C5  UNL     1      19.694 -20.701  39.926  1.00  0.00     0.080 C 
BRANCH   9  10
HETATM   10  C6  UNL     1      20.657 -20.852  41.037  1.00  0.00    -0.038 A 
HETATM   11  C7  UNL     1      21.597 -21.834  41.189  1.00  0.00     0.010 A 
HETATM   12  C8  UNL     1      22.450 -21.903  42.275  1.00  0.00     0.020 A 
HETATM   13  C9  UNL     1      22.338 -20.924  43.248  1.00  0.00     0.122 A 
HETATM   14  N2  UNL     1      21.416 -19.944  43.115  1.00  0.00    -0.247 N 
HETATM   15  C10 UNL     1      20.591 -19.881  42.061  1.00  0.00     0.129 A 
BRANCH  14  16
HETATM   16  O1  UNL     1      21.359 -18.994  44.129  1.00  0.00    -0.284 OA
ATOM     17  H1  UNL     1      21.686 -18.126  43.923  1.00  0.00     0.245 HD
ENDBRANCH  14  16
ENDBRANCH   9  10
ENDBRANCH   1   9
BRANCH   1  18
HETATM   18  C11 UNL     1      17.238 -20.183  40.524  1.00  0.00     0.168 C 
BRANCH  18  19
HETATM   19  N3  UNL     1      17.261 -18.843  40.033  1.00  0.00    -0.350 N 
HETATM   20  C12 UNL     1      17.632 -18.452  38.820  1.00  0.00     0.095 A 
HETATM   21  C13 UNL     1      17.641 -17.114  38.396  1.00  0.00     0.065 A 
HETATM   22  C14 UNL     1      17.244 -16.153  39.281  1.00  0.00     0.100 A 
HETATM   23  N5  UNL     1      16.866 -16.542  40.509  1.00  0.00    -0.339 N 
HETATM   24  C15 UNL     1      16.874 -17.846  40.872  1.00  0.00     0.184 A 
ATOM     25  H5  UNL     1      16.566 -15.839  41.184  1.00  0.00     0.168 HD
BRANCH  22  26
HETATM   26  N4  UNL     1      17.241 -14.905  38.921  1.00  0.00    -0.385 N 
ATOM     27  H42 UNL     1      16.700 -14.573  38.122  1.00  0.00     0.157 HD
ATOM     28  H41 UNL     1      17.792 -14.225  39.443  1.00  0.00     0.157 HD
ENDBRANCH  22  26
ENDBRANCH  18  19
ENDBRANCH   1  18
TORSDOF 9
ENDMDL
MODEL 4
REMARK VINA RESULT: -6.457806213      1.865      3.313
REMARK  9 active torsions:
REMARK  status: ('A' for Active; 'I' for Inactive)
REMARK    1  A    between atoms: C2_2  and  C3_3 
REMARK    2  A    between atoms: C3_3  and  C4_4 
REMARK    3  A    between atoms: C4_4  and  N1_5 
REMARK    4  A    between atoms: C4_4  and  C5_9 
REMARK    5  A    between atoms: C4_4  and  C11_18 
REMARK    6  A    between atoms: C5_9  and  C6_10 
REMARK    7  A    between atoms: N2_14  and  O1_15 
REMARK    8  A    between atoms: C11_18  and  N3_19 
REMARK    9  A    between atoms: C14_22  and  N4_23 
ROOT
HETATM    1  C4  UNL     1      20.055 -20.488  41.707  1.00  0.00     0.143 C 
ENDROOT
BRANCH   1   2
HETATM    2  C3  UNL     1      20.303 -19.073  42.268  1.00  0.00     0.040 C 
BRANCH   2   3
HETATM    3  C2  UNL     1      20.220 -19.023  43.767  1.00  0.00    -0.002 C 
HETATM    4  C1  UNL     1      20.167 -17.536  44.163  1.00  0.00     0.005 C 
ENDBRANCH   2   3
ENDBRANCH   1   2
BRANCH   1   5
HETATM    5  N1  UNL     1      19.925 -21.381  42.927  1.00  0.00    -0.069 N 
ATOM      6  H13 UNL     1      20.374 -21.005  43.762  1.00  0.00     0.275 HD
ATOM      7  H12 UNL     1      18.980 -21.422  43.308  1.00  0.00     0.275 HD
ATOM      8  H11 UNL     1      20.291 -22.287  42.634  1.00  0.00     0.275 HD
ENDBRANCH   1   5
BRANCH   1   9
HETATM    9  C5  UNL     1      21.252 -20.955  41.014  1.00  0.00     0.080 C 
BRANCH   9  10
HETATM   10  C6  UNL     1      22.195 -21.825  41.746  1.00  0.00    -0.038 A 
HETATM   11  C7  UNL     1      22.309 -23.185  41.653  1.00  0.00     0.010 A 
HETATM   12  C8  UNL     1      23.216 -23.921  42.392  1.00  0.00     0.020 A 
HETATM   13  C9  UNL     1      24.044 -23.237  43.266  1.00  0.00     0.122 A 
HETATM   14  N2  UNL     1      23.947 -21.891  43.373  1.00  0.00    -0.247 N 
HETATM   15  C10 UNL     1      23.066 -21.182  42.654  1.00  0.00     0.129 A 
BRANCH  14  16
HETATM   16  O1  UNL     1      24.809 -21.269  44.269  1.00  0.00    -0.284 OA
ATOM     17  H1  UNL     1      24.561 -20.403  44.571  1.00  0.00     0.245 HD
ENDBRANCH  14  16
ENDBRANCH   9  10
ENDBRANCH   1   9
BRANCH   1  18
HETATM   18  C11 UNL     1      18.713 -20.505  41.108  1.00  0.00     0.168 C 
BRANCH  18  19
HETATM   19  N3  UNL     1      18.338 -19.480  40.188  1.00  0.00    -0.350 N 
HETATM   20  C12 UNL     1      18.773 -19.340  38.942  1.00  0.00     0.095 A 
HETATM   21  C13 UNL     1      18.374 -18.303  38.084  1.00  0.00     0.065 A 
HETATM   22  C14 UNL     1      17.484 -17.381  38.555  1.00  0.00     0.100 A 
HETATM   23  N5  UNL     1      17.039 -17.518  39.814  1.00  0.00    -0.339 N 
HETATM   24  C15 UNL     1      17.454 -18.536  40.605  1.00  0.00     0.184 A 
ATOM     25  H5  UNL     1      16.374 -16.840  40.184  1.00  0.00     0.168 HD
BRANCH  22  26
HETATM   26  N4  UNL     1      17.094 -16.409  37.788  1.00  0.00    -0.385 N 
ATOM     27  H42 UNL     1      16.898 -15.476  38.152  1.00  0.00     0.157 HD
ATOM     28  H41 UNL     1      16.975 -16.568  36.788  1.00  0.00     0.157 HD
ENDBRANCH  22  26
ENDBRANCH  18  19
ENDBRANCH   1  18
TORSDOF 9
ENDMDL
MODEL 5
REMARK VINA RESULT: -6.429962053      1.491      1.762
REMARK  9 active torsions:
REMARK  status: ('A' for Active; 'I' for Inactive)
REMARK    1  A    between atoms: C2_2  and  C3_3 
REMARK    2  A    between atoms: C3_3  and  C4_4 
REMARK    3  A    between atoms: C4_4  and  N1_5 
REMARK    4  A    between atoms: C4_4  and  C5_9 
REMARK    5  A    between atoms: C4_4  and  C11_18 
REMARK    6  A    between atoms: C5_9  and  C6_10 
REMARK    7  A    between atoms: N2_14  and  O1_15 
REMARK    8  A    between atoms: C11_18  and  N3_19 
REMARK    9  A    between atoms: C14_22  and  N4_23 
ROOT
HETATM    1  C4  UNL     1      20.553 -19.752  41.549  1.00  0.00     0.143 C 
ENDROOT
BRANCH   1   2
HETATM    2  C3  UNL     1      20.570 -19.636  40.011  1.00  0.00     0.040 C 
BRANCH   2   3
HETATM    3  C2  UNL     1      20.633 -18.211  39.539  1.00  0.00    -0.002 C 
HETATM    4  C1  UNL     1      19.441 -18.001  38.589  1.00  0.00     0.005 C 
ENDBRANCH   2   3
ENDBRANCH   1   2
BRANCH   1   5
HETATM    5  N1  UNL     1      20.415 -18.328  42.052  1.00  0.00    -0.069 N 
ATOM      6  H13 UNL     1      20.272 -17.641  41.311  1.00  0.00     0.275 HD
ATOM      7  H12 UNL     1      19.542 -18.149  42.550  1.00  0.00     0.275 HD
ATOM      8  H11 UNL     1      21.250 -18.161  42.613  1.00  0.00     0.275 HD
ENDBRANCH   1   5
BRANCH   1   9
HETATM    9  C5  UNL     1      21.859 -20.202  42.019  1.00  0.00     0.080 C 
BRANCH   9  10
HETATM   10  C6  UNL     1      22.014 -21.614  42.422  1.00  0.00    -0.038 A 
HETATM   11  C7  UNL     1      22.098 -22.705  41.600  1.00  0.00     0.010 A 
HETATM   12  C8  UNL     1      22.228 -23.998  42.071  1.00  0.00     0.020 A 
HETATM   13  C9  UNL     1      22.274 -24.186  43.442  1.00  0.00     0.122 A 
HETATM   14  N2  UNL     1      22.192 -23.120  44.271  1.00  0.00    -0.247 N 
HETATM   15  C10 UNL     1      22.067 -21.868  43.811  1.00  0.00     0.129 A 
BRANCH  14  16
HETATM   16  O1  UNL     1      22.245 -23.382  45.636  1.00  0.00    -0.284 OA
ATOM     17  H1  UNL     1      22.898 -24.007  45.928  1.00  0.00     0.245 HD
ENDBRANCH  14  16
ENDBRANCH   9  10
ENDBRANCH   1   9
BRANCH   1  18
HETATM   18  C11 UNL     1      19.288 -20.392  41.937  1.00  0.00     0.168 C 
BRANCH  18  19
HETATM   19  N3  UNL     1      18.058 -19.693  41.748  1.00  0.00    -0.350 N 
HETATM   20  C12 UNL     1      17.317 -19.681  40.648  1.00  0.00     0.095 A 
HETATM   21  C13 UNL     1      16.116 -18.965  40.518  1.00  0.00     0.065 A 
HETATM   22  C14 UNL     1      15.679 -18.237  41.587  1.00  0.00     0.100 A 
HETATM   23  N5  UNL     1      16.423 -18.247  42.705  1.00  0.00    -0.339 N 
HETATM   24  C15 UNL     1      17.576 -18.954  42.782  1.00  0.00     0.184 A 
ATOM     25  H5  UNL     1      16.112 -17.711  43.514  1.00  0.00     0.168 HD
BRANCH  22  26
HETATM   26  N4  UNL     1      14.572 -17.564  41.501  1.00  0.00    -0.385 N 
ATOM     27  H42 UNL     1      14.387 -16.922  40.731  1.00  0.00     0.157 HD
ATOM     28  H41 UNL     1      13.856 -17.670  42.220  1.00  0.00     0.157 HD
ENDBRANCH  22  26
ENDBRANCH  18  19
ENDBRANCH   1  18
TORSDOF 9
ENDMDL
