MODEL 1
REMARK VINA RESULT: -8.328712783      0.000      0.000
REMARK  16 active torsions:
REMARK  status: ('A' for Active; 'I' for Inactive)
REMARK    1  A    between atoms: N1_1  and  C1_4 
REMARK    2  A    between atoms: C2_7  and  C3_8 
REMARK    3  A    between atoms: C3_8  and  O1_9 
REMARK    4  A    between atoms: C3_8  and  N3_11 
REMARK    5  A    between atoms: N3_11  and  N4_12 
REMARK    6  A    between atoms: C4_15  and  N5_16 
REMARK    7  A    between atoms: C5_18  and  C6_19 
REMARK    8  A    between atoms: C6_19  and  O2_20 
REMARK    9  A    between atoms: C6_19  and  N6_22 
REMARK   10  A    between atoms: N6_22  and  C7_24 
REMARK   11  A    between atoms: C11_29  and  C12_30 
REMARK   12  A    between atoms: C12_30  and  O4_31 
REMARK   13  A    between atoms: C12_30  and  O5_33 
REMARK   14  A    between atoms: C13_35  and  C14_36 
REMARK   15  A    between atoms: C14_36  and  O6_37 
REMARK   16  A    between atoms: C14_36  and  C15_39 
ROOT
HETATM    1  N6  UNL     1     -16.827  32.265  -7.129  1.00  0.00    -0.345 N 
ATOM      2  H6  UNL     1     -17.216  31.386  -7.471  1.00  0.00     0.164 HD
ENDROOT
BRANCH   1   3
HETATM    3  C6  UNL     1     -17.255  33.518  -7.729  1.00  0.00     0.259 C 
BRANCH   3   4
HETATM    4  C5  UNL     1     -18.317  33.237  -8.708  1.00  0.00     0.114 C 
HETATM    5  N5  UNL     1     -19.329  34.016  -8.950  1.00  0.00    -0.358 N 
ATOM      6  H5  UNL     1     -20.026  33.756  -9.647  1.00  0.00     0.165 HD
BRANCH   5   7
HETATM    7  C4  UNL     1     -19.455  35.259  -8.216  1.00  0.00     0.110 A 
HETATM    8  C2  UNL     1     -19.087  36.521  -8.538  1.00  0.00     0.136 A 
HETATM    9  N2  UNL     1     -19.287  37.467  -7.665  1.00  0.00    -0.330 N 
HETATM   10  C1  UNL     1     -19.849  37.156  -6.481  1.00  0.00     0.144 A 
ATOM     11  H2  UNL     1     -19.021  38.428  -7.875  1.00  0.00     0.168 HD
HETATM   12  S1  UNL     1     -20.095  35.468  -6.629  1.00  0.00    -0.034 SA
BRANCH   8  13
HETATM   13  C3  UNL     1     -18.425  36.763  -9.905  1.00  0.00     0.267 C 
BRANCH  13  14
HETATM   14  O1  UNL     1     -19.254  37.340 -10.733  1.00  0.00    -0.332 OA
ATOM     15  H1  UNL     1     -19.473  36.763 -11.455  1.00  0.00     0.220 HD
ENDBRANCH  13  14
BRANCH  13  16
HETATM   16  N3  UNL     1     -17.195  36.419 -10.168  1.00  0.00    -0.304 NA
BRANCH  16  17
HETATM   17  N4  UNL     1     -15.919  36.074 -10.470  1.00  0.00    -0.278 N 
ATOM     18  H42 UNL     1     -16.372  36.984 -10.557  1.00  0.00     0.191 HD
ATOM     19  H41 UNL     1     -14.964  35.792 -10.690  1.00  0.00     0.191 HD
ENDBRANCH  16  17
ENDBRANCH  13  16
ENDBRANCH   8  13
BRANCH  10  20
HETATM   20  N1  UNL     1     -20.132  37.945  -5.500  1.00  0.00    -0.380 N 
ATOM     21  H12 UNL     1     -19.510  38.403  -4.834  1.00  0.00     0.158 HD
ATOM     22  H11 UNL     1     -21.051  38.265  -5.192  1.00  0.00     0.158 HD
ENDBRANCH  10  20
ENDBRANCH   5   7
ENDBRANCH   3   4
BRANCH   3  23
HETATM   23  O2  UNL     1     -16.185  34.214  -8.296  1.00  0.00    -0.372 OA
ATOM     24  H2  UNL     1     -15.346  33.845  -8.049  1.00  0.00     0.212 HD
ENDBRANCH   3  23
ENDBRANCH   1   3
BRANCH   1  25
HETATM   25  C7  UNL     1     -15.874  32.245  -6.074  1.00  0.00     0.117 A 
HETATM   26  C8  UNL     1     -16.076  33.146  -5.126  1.00  0.00     0.052 A 
HETATM   27  C9  UNL     1     -15.299  33.398  -3.922  1.00  0.00     0.043 A 
HETATM   28  C10 UNL     1     -14.196  32.759  -3.526  1.00  0.00     0.104 A 
HETATM   29  O3  UNL     1     -13.540  33.035  -2.430  1.00  0.00    -0.307 OA
HETATM   30  C16 UNL     1     -13.534  31.720  -4.152  1.00  0.00     0.094 A 
HETATM   31  C11 UNL     1     -12.478  32.228  -2.308  1.00  0.00     0.119 A 
HETATM   32  C13 UNL     1     -12.420  31.374  -3.364  1.00  0.00     0.046 A 
HETATM   33  N7  UNL     1     -13.769  31.090  -5.235  1.00  0.00    -0.296 N 
HETATM   34  N8  UNL     1     -14.827  31.290  -6.144  1.00  0.00    -0.285 N 
ATOM     35  H7  UNL     1     -13.109  30.350  -5.472  1.00  0.00     0.187 HD
ATOM     36  H8  UNL     1     -14.842  30.670  -6.954  1.00  0.00     0.188 HD
BRANCH  31  37
HETATM   37  C12 UNL     1     -11.557  32.339  -1.141  1.00  0.00     0.313 C 
BRANCH  37  38
HETATM   38  O4  UNL     1     -12.227  32.868  -0.025  1.00  0.00    -0.365 OA
ATOM     39  H4  UNL     1     -11.706  32.763   0.762  1.00  0.00     0.213 HD
ENDBRANCH  37  38
BRANCH  37  40
HETATM   40  O5  UNL     1     -10.573  33.272  -1.519  1.00  0.00    -0.365 OA
ATOM     41  H5  UNL     1      -9.941  33.281  -0.810  1.00  0.00     0.213 HD
ENDBRANCH  37  40
ENDBRANCH  31  37
BRANCH  32  42
HETATM   42  C14 UNL     1     -11.460  30.292  -3.689  1.00  0.00     0.257 C 
BRANCH  42  43
HETATM   43  O6  UNL     1     -10.153  30.624  -3.277  1.00  0.00    -0.380 OA
ATOM     44  H6  UNL     1      -9.615  30.890  -4.014  1.00  0.00     0.211 HD
ENDBRANCH  42  43
BRANCH  42  45
HETATM   45  C15 UNL     1     -11.847  28.961  -3.205  1.00  0.00     0.207 C 
HETATM   46  O7  UNL     1     -11.136  28.313  -2.416  1.00  0.00    -0.646 OA
HETATM   47  O8  UNL     1     -13.039  28.404  -3.632  1.00  0.00    -0.646 OA
ENDBRANCH  42  45
ENDBRANCH  32  42
ENDBRANCH   1  25
TORSDOF 16
ENDMDL
MODEL 2
REMARK VINA RESULT: -7.564117559      2.352      4.023
REMARK  16 active torsions:
REMARK  status: ('A' for Active; 'I' for Inactive)
REMARK    1  A    between atoms: N1_1  and  C1_4 
REMARK    2  A    between atoms: C2_7  and  C3_8 
REMARK    3  A    between atoms: C3_8  and  O1_9 
REMARK    4  A    between atoms: C3_8  and  N3_11 
REMARK    5  A    between atoms: N3_11  and  N4_12 
REMARK    6  A    between atoms: C4_15  and  N5_16 
REMARK    7  A    between atoms: C5_18  and  C6_19 
REMARK    8  A    between atoms: C6_19  and  O2_20 
REMARK    9  A    between atoms: C6_19  and  N6_22 
REMARK   10  A    between atoms: N6_22  and  C7_24 
REMARK   11  A    between atoms: C11_29  and  C12_30 
REMARK   12  A    between atoms: C12_30  and  O4_31 
REMARK   13  A    between atoms: C12_30  and  O5_33 
REMARK   14  A    between atoms: C13_35  and  C14_36 
REMARK   15  A    between atoms: C14_36  and  O6_37 
REMARK   16  A    between atoms: C14_36  and  C15_39 
ROOT
HETATM    1  N6  UNL     1     -14.448  33.999  -4.153  1.00  0.00    -0.345 N 
ATOM      2  H6  UNL     1     -14.517  34.951  -3.794  1.00  0.00     0.164 HD
ENDROOT
BRANCH   1   3
HETATM    3  C6  UNL     1     -15.400  33.541  -5.152  1.00  0.00     0.259 C 
BRANCH   3   4
HETATM    4  C5  UNL     1     -16.575  32.980  -4.466  1.00  0.00     0.114 C 
HETATM    5  N5  UNL     1     -17.809  33.252  -4.766  1.00  0.00    -0.358 N 
ATOM      6  H5  UNL     1     -18.574  32.821  -4.247  1.00  0.00     0.165 HD
BRANCH   5   7
HETATM    7  C4  UNL     1     -18.087  34.176  -5.846  1.00  0.00     0.110 A 
HETATM    8  C2  UNL     1     -18.584  35.435  -5.832  1.00  0.00     0.136 A 
HETATM    9  N2  UNL     1     -18.773  36.040  -6.971  1.00  0.00    -0.330 N 
HETATM   10  C1  UNL     1     -18.468  35.395  -8.113  1.00  0.00     0.144 A 
ATOM     11  H2  UNL     1     -19.147  36.988  -6.996  1.00  0.00     0.168 HD
HETATM   12  S1  UNL     1     -17.898  33.887  -7.535  1.00  0.00    -0.034 SA
BRANCH   8  13
HETATM   13  C3  UNL     1     -18.929  36.070  -4.474  1.00  0.00     0.267 C 
BRANCH  13  14
HETATM   14  O1  UNL     1     -18.023  35.782  -3.578  1.00  0.00    -0.332 OA
ATOM     15  H1  UNL     1     -17.533  36.556  -3.327  1.00  0.00     0.220 HD
ENDBRANCH  13  14
BRANCH  13  16
HETATM   16  N3  UNL     1     -19.998  36.792  -4.280  1.00  0.00    -0.304 NA
BRANCH  16  17
HETATM   17  N4  UNL     1     -21.118  37.520  -4.056  1.00  0.00    -0.278 N 
ATOM     18  H42 UNL     1     -21.031  36.600  -4.489  1.00  0.00     0.191 HD
ATOM     19  H41 UNL     1     -21.948  38.086  -3.876  1.00  0.00     0.191 HD
ENDBRANCH  16  17
ENDBRANCH  13  16
ENDBRANCH   8  13
BRANCH  10  20
HETATM   20  N1  UNL     1     -18.576  35.823  -9.325  1.00  0.00    -0.380 N 
ATOM     21  H12 UNL     1     -17.962  35.672 -10.125  1.00  0.00     0.158 HD
ATOM     22  H11 UNL     1     -19.307  36.413  -9.723  1.00  0.00     0.158 HD
ENDBRANCH  10  20
ENDBRANCH   5   7
ENDBRANCH   3   4
BRANCH   3  23
HETATM   23  O2  UNL     1     -14.823  32.631  -6.040  1.00  0.00    -0.372 OA
ATOM     24  H2  UNL     1     -14.467  33.058  -6.810  1.00  0.00     0.212 HD
ENDBRANCH   3  23
ENDBRANCH   1   3
BRANCH   1  25
HETATM   25  C7  UNL     1     -13.422  33.141  -3.669  1.00  0.00     0.117 A 
HETATM   26  C8  UNL     1     -12.603  33.696  -2.791  1.00  0.00     0.052 A 
HETATM   27  C9  UNL     1     -11.459  33.110  -2.109  1.00  0.00     0.043 A 
HETATM   28  C10 UNL     1     -10.991  31.866  -2.241  1.00  0.00     0.104 A 
HETATM   29  O3  UNL     1      -9.954  31.399  -1.600  1.00  0.00    -0.307 OA
HETATM   30  C16 UNL     1     -11.472  30.851  -3.045  1.00  0.00     0.094 A 
HETATM   31  C11 UNL     1      -9.729  30.124  -1.945  1.00  0.00     0.119 A 
HETATM   32  C13 UNL     1     -10.655  29.720  -2.854  1.00  0.00     0.046 A 
HETATM   33  N7  UNL     1     -12.456  30.796  -3.852  1.00  0.00    -0.296 N 
HETATM   34  N8  UNL     1     -13.378  31.814  -4.168  1.00  0.00    -0.285 N 
ATOM     35  H7  UNL     1     -12.594  29.905  -4.329  1.00  0.00     0.187 HD
ATOM     36  H8  UNL     1     -14.104  31.566  -4.840  1.00  0.00     0.188 HD
BRANCH  31  37
HETATM   37  C12 UNL     1      -8.596  29.355  -1.355  1.00  0.00     0.313 C 
BRANCH  37  38
HETATM   38  O4  UNL     1      -8.002  30.071  -0.303  1.00  0.00    -0.365 OA
ATOM     39  H4  UNL     1      -7.405  30.730  -0.637  1.00  0.00     0.213 HD
ENDBRANCH  37  38
BRANCH  37  40
HETATM   40  O5  UNL     1      -7.636  29.246  -2.379  1.00  0.00    -0.365 OA
ATOM     41  H5  UNL     1      -6.800  29.428  -1.968  1.00  0.00     0.213 HD
ENDBRANCH  37  40
ENDBRANCH  31  37
BRANCH  32  42
HETATM   42  C14 UNL     1     -10.850  28.414  -3.529  1.00  0.00     0.257 C 
BRANCH  42  43
HETATM   43  O6  UNL     1      -9.617  27.777  -3.779  1.00  0.00    -0.380 OA
ATOM     44  H6  UNL     1      -9.299  27.323  -3.007  1.00  0.00     0.211 HD
ENDBRANCH  42  43
BRANCH  42  45
HETATM   45  C15 UNL     1     -11.790  27.509  -2.857  1.00  0.00     0.207 C 
HETATM   46  O7  UNL     1     -11.411  26.660  -2.029  1.00  0.00    -0.646 OA
HETATM   47  O8  UNL     1     -13.140  27.597  -3.143  1.00  0.00    -0.646 OA
ENDBRANCH  42  45
ENDBRANCH  32  42
ENDBRANCH   1  25
TORSDOF 16
ENDMDL
MODEL 3
REMARK VINA RESULT: -7.518683118      1.562      2.035
REMARK  16 active torsions:
REMARK  status: ('A' for Active; 'I' for Inactive)
REMARK    1  A    between atoms: N1_1  and  C1_4 
REMARK    2  A    between atoms: C2_7  and  C3_8 
REMARK    3  A    between atoms: C3_8  and  O1_9 
REMARK    4  A    between atoms: C3_8  and  N3_11 
REMARK    5  A    between atoms: N3_11  and  N4_12 
REMARK    6  A    between atoms: C4_15  and  N5_16 
REMARK    7  A    between atoms: C5_18  and  C6_19 
REMARK    8  A    between atoms: C6_19  and  O2_20 
REMARK    9  A    between atoms: C6_19  and  N6_22 
REMARK   10  A    between atoms: N6_22  and  C7_24 
REMARK   11  A    between atoms: C11_29  and  C12_30 
REMARK   12  A    between atoms: C12_30  and  O4_31 
REMARK   13  A    between atoms: C12_30  and  O5_33 
REMARK   14  A    between atoms: C13_35  and  C14_36 
REMARK   15  A    between atoms: C14_36  and  O6_37 
REMARK   16  A    between atoms: C14_36  and  C15_39 
ROOT
HETATM    1  N6  UNL     1     -16.630  32.204  -5.682  1.00  0.00    -0.345 N 
ATOM      2  H6  UNL     1     -17.498  31.793  -5.339  1.00  0.00     0.164 HD
ENDROOT
BRANCH   1   3
HETATM    3  C6  UNL     1     -16.639  32.968  -6.918  1.00  0.00     0.259 C 
BRANCH   3   4
HETATM    4  C5  UNL     1     -17.388  32.215  -7.937  1.00  0.00     0.114 C 
HETATM    5  N5  UNL     1     -18.149  32.748  -8.844  1.00  0.00    -0.358 N 
ATOM      6  H5  UNL     1     -18.635  32.161  -9.521  1.00  0.00     0.165 HD
BRANCH   5   7
HETATM    7  C4  UNL     1     -18.298  34.189  -8.884  1.00  0.00     0.110 A 
HETATM    8  C2  UNL     1     -17.612  35.134  -9.569  1.00  0.00     0.136 A 
HETATM    9  N2  UNL     1     -17.934  36.384  -9.391  1.00  0.00    -0.330 N 
HETATM   10  C1  UNL     1     -18.932  36.688  -8.539  1.00  0.00     0.144 A 
ATOM     11  H2  UNL     1     -17.437  37.121  -9.890  1.00  0.00     0.168 HD
HETATM   12  S1  UNL     1     -19.415  35.142  -7.982  1.00  0.00    -0.034 SA
BRANCH   8  13
HETATM   13  C3  UNL     1     -16.470  34.682 -10.494  1.00  0.00     0.267 C 
BRANCH  13  14
HETATM   14  O1  UNL     1     -16.803  33.611 -11.163  1.00  0.00    -0.332 OA
ATOM     15  H1  UNL     1     -16.214  32.891 -10.971  1.00  0.00     0.220 HD
ENDBRANCH  13  14
BRANCH  13  16
HETATM   16  N3  UNL     1     -15.329  35.309 -10.569  1.00  0.00    -0.304 NA
BRANCH  16  17
HETATM   17  N4  UNL     1     -14.142  35.962 -10.615  1.00  0.00    -0.278 N 
ATOM     18  H42 UNL     1     -14.839  35.957  -9.870  1.00  0.00     0.191 HD
ATOM     19  H41 UNL     1     -13.244  36.444 -10.671  1.00  0.00     0.191 HD
ENDBRANCH  16  17
ENDBRANCH  13  16
ENDBRANCH   8  13
BRANCH  10  20
HETATM   20  N1  UNL     1     -19.397  37.853  -8.238  1.00  0.00    -0.380 N 
ATOM     21  H12 UNL     1     -19.358  38.725  -8.766  1.00  0.00     0.158 HD
ATOM     22  H11 UNL     1     -19.897  38.134  -7.394  1.00  0.00     0.158 HD
ENDBRANCH  10  20
ENDBRANCH   5   7
ENDBRANCH   3   4
BRANCH   3  23
HETATM   23  O2  UNL     1     -15.346  33.286  -7.342  1.00  0.00    -0.372 OA
ATOM     24  H2  UNL     1     -14.681  32.875  -6.802  1.00  0.00     0.212 HD
ENDBRANCH   3  23
ENDBRANCH   1   3
BRANCH   1  25
HETATM   25  C7  UNL     1     -15.429  32.020  -4.941  1.00  0.00     0.117 A 
HETATM   26  C8  UNL     1     -15.133  33.007  -4.111  1.00  0.00     0.052 A 
HETATM   27  C9  UNL     1     -13.992  33.140  -3.218  1.00  0.00     0.043 A 
HETATM   28  C10 UNL     1     -12.986  32.275  -3.060  1.00  0.00     0.104 A 
HETATM   29  O3  UNL     1     -11.985  32.455  -2.240  1.00  0.00    -0.307 OA
HETATM   30  C16 UNL     1     -12.789  31.064  -3.695  1.00  0.00     0.094 A 
HETATM   31  C11 UNL     1     -11.137  31.419  -2.308  1.00  0.00     0.119 A 
HETATM   32  C13 UNL     1     -11.590  30.507  -3.208  1.00  0.00     0.046 A 
HETATM   33  N7  UNL     1     -13.472  30.440  -4.570  1.00  0.00    -0.296 N 
HETATM   34  N8  UNL     1     -14.686  30.833  -5.166  1.00  0.00    -0.285 N 
ATOM     35  H7  UNL     1     -13.093  29.543  -4.876  1.00  0.00     0.187 HD
ATOM     36  H8  UNL     1     -15.081  30.182  -5.846  1.00  0.00     0.188 HD
BRANCH  31  37
HETATM   37  C12 UNL     1      -9.905  31.378  -1.471  1.00  0.00     0.313 C 
BRANCH  37  38
HETATM   38  O4  UNL     1      -8.755  31.337  -2.278  1.00  0.00    -0.365 OA
ATOM     39  H4  UNL     1      -7.971  31.266  -1.745  1.00  0.00     0.213 HD
ENDBRANCH  37  38
BRANCH  37  40
HETATM   40  O5  UNL     1      -9.963  30.160  -0.766  1.00  0.00    -0.365 OA
ATOM     41  H5  UNL     1      -9.078  29.815  -0.776  1.00  0.00     0.213 HD
ENDBRANCH  37  40
ENDBRANCH  31  37
BRANCH  32  42
HETATM   42  C14 UNL     1     -11.033  29.201  -3.633  1.00  0.00     0.257 C 
BRANCH  42  43
HETATM   43  O6  UNL     1      -9.630  29.256  -3.755  1.00  0.00    -0.380 OA
ATOM     44  H6  UNL     1      -9.232  28.414  -3.565  1.00  0.00     0.211 HD
ENDBRANCH  42  43
BRANCH  42  45
HETATM   45  C15 UNL     1     -11.451  28.058  -2.812  1.00  0.00     0.207 C 
HETATM   46  O7  UNL     1     -10.733  27.602  -1.903  1.00  0.00    -0.646 OA
HETATM   47  O8  UNL     1     -12.679  27.466  -3.045  1.00  0.00    -0.646 OA
ENDBRANCH  42  45
ENDBRANCH  32  42
ENDBRANCH   1  25
TORSDOF 16
ENDMDL
MODEL 4
REMARK VINA RESULT: -7.458579723      2.391      3.741
REMARK  16 active torsions:
REMARK  status: ('A' for Active; 'I' for Inactive)
REMARK    1  A    between atoms: N1_1  and  C1_4 
REMARK    2  A    between atoms: C2_7  and  C3_8 
REMARK    3  A    between atoms: C3_8  and  O1_9 
REMARK    4  A    between atoms: C3_8  and  N3_11 
REMARK    5  A    between atoms: N3_11  and  N4_12 
REMARK    6  A    between atoms: C4_15  and  N5_16 
REMARK    7  A    between atoms: C5_18  and  C6_19 
REMARK    8  A    between atoms: C6_19  and  O2_20 
REMARK    9  A    between atoms: C6_19  and  N6_22 
REMARK   10  A    between atoms: N6_22  and  C7_24 
REMARK   11  A    between atoms: C11_29  and  C12_30 
REMARK   12  A    between atoms: C12_30  and  O4_31 
REMARK   13  A    between atoms: C12_30  and  O5_33 
REMARK   14  A    between atoms: C13_35  and  C14_36 
REMARK   15  A    between atoms: C14_36  and  O6_37 
REMARK   16  A    between atoms: C14_36  and  C15_39 
ROOT
HETATM    1  N6  UNL     1     -14.585  32.663  -4.014  1.00  0.00    -0.345 N 
ATOM      2  H6  UNL     1     -15.389  32.741  -3.391  1.00  0.00     0.164 HD
ENDROOT
BRANCH   1   3
HETATM    3  C6  UNL     1     -14.737  32.988  -5.423  1.00  0.00     0.259 C 
BRANCH   3   4
HETATM    4  C5  UNL     1     -15.497  31.912  -6.079  1.00  0.00     0.114 C 
HETATM    5  N5  UNL     1     -16.689  32.045  -6.579  1.00  0.00    -0.358 N 
ATOM      6  H5  UNL     1     -17.153  31.253  -7.023  1.00  0.00     0.165 HD
BRANCH   5   7
HETATM    7  C4  UNL     1     -17.350  33.331  -6.499  1.00  0.00     0.110 A 
HETATM    8  C2  UNL     1     -17.601  34.261  -7.450  1.00  0.00     0.136 A 
HETATM    9  N2  UNL     1     -18.191  35.367  -7.095  1.00  0.00    -0.330 N 
HETATM   10  C1  UNL     1     -18.528  35.543  -5.803  1.00  0.00     0.144 A 
ATOM     11  H2  UNL     1     -18.394  36.089  -7.786  1.00  0.00     0.168 HD
HETATM   12  S1  UNL     1     -17.985  34.086  -5.086  1.00  0.00    -0.034 SA
BRANCH   8  13
HETATM   13  C3  UNL     1     -17.147  33.974  -8.891  1.00  0.00     0.267 C 
BRANCH  13  14
HETATM   14  O1  UNL     1     -17.553  32.798  -9.287  1.00  0.00    -0.332 OA
ATOM     15  H1  UNL     1     -17.932  32.841 -10.157  1.00  0.00     0.220 HD
ENDBRANCH  13  14
BRANCH  13  16
HETATM   16  N3  UNL     1     -16.443  34.818  -9.594  1.00  0.00    -0.304 NA
BRANCH  16  17
HETATM   17  N4  UNL     1     -15.694  35.670 -10.335  1.00  0.00    -0.278 N 
ATOM     18  H42 UNL     1     -15.510  34.693 -10.105  1.00  0.00     0.191 HD
ATOM     19  H41 UNL     1     -15.146  36.329 -10.888  1.00  0.00     0.191 HD
ENDBRANCH  16  17
ENDBRANCH  13  16
ENDBRANCH   8  13
BRANCH  10  20
HETATM   20  N1  UNL     1     -19.119  36.555  -5.263  1.00  0.00    -0.380 N 
ATOM     21  H12 UNL     1     -18.746  37.474  -5.024  1.00  0.00     0.158 HD
ATOM     22  H11 UNL     1     -20.090  36.631  -4.960  1.00  0.00     0.158 HD
ENDBRANCH  10  20
ENDBRANCH   5   7
ENDBRANCH   3   4
BRANCH   3  23
HETATM   23  O2  UNL     1     -13.504  33.214  -6.039  1.00  0.00    -0.372 OA
ATOM     24  H2  UNL     1     -13.189  32.448  -6.504  1.00  0.00     0.212 HD
ENDBRANCH   3  23
ENDBRANCH   1   3
BRANCH   1  25
HETATM   25  C7  UNL     1     -13.332  32.239  -3.490  1.00  0.00     0.117 A 
HETATM   26  C8  UNL     1     -12.842  33.009  -2.532  1.00  0.00     0.052 A 
HETATM   27  C9  UNL     1     -11.598  32.868  -1.792  1.00  0.00     0.043 A 
HETATM   28  C10 UNL     1     -10.676  31.913  -1.938  1.00  0.00     0.104 A 
HETATM   29  O3  UNL     1      -9.573  31.843  -1.240  1.00  0.00    -0.307 OA
HETATM   30  C16 UNL     1     -10.679  30.845  -2.814  1.00  0.00     0.094 A 
HETATM   31  C11 UNL     1      -8.851  30.779  -1.618  1.00  0.00     0.119 A 
HETATM   32  C13 UNL     1      -9.497  30.108  -2.608  1.00  0.00     0.046 A 
HETATM   33  N7  UNL     1     -11.520  30.467  -3.693  1.00  0.00    -0.296 N 
HETATM   34  N8  UNL     1     -12.747  31.068  -4.036  1.00  0.00    -0.285 N 
ATOM     35  H7  UNL     1     -11.274  29.625  -4.214  1.00  0.00     0.187 HD
ATOM     36  H8  UNL     1     -13.283  30.602  -4.769  1.00  0.00     0.188 HD
BRANCH  31  37
HETATM   37  C12 UNL     1      -7.541  30.471  -0.977  1.00  0.00     0.313 C 
BRANCH  37  38
HETATM   38  O4  UNL     1      -6.476  30.900  -1.788  1.00  0.00    -0.365 OA
ATOM     39  H4  UNL     1      -5.643  30.754  -1.355  1.00  0.00     0.213 HD
ENDBRANCH  37  38
BRANCH  37  40
HETATM   40  O5  UNL     1      -7.472  29.067  -0.906  1.00  0.00    -0.365 OA
ATOM     41  H5  UNL     1      -8.129  28.747  -1.513  1.00  0.00     0.213 HD
ENDBRANCH  37  40
ENDBRANCH  31  37
BRANCH  32  42
HETATM   42  C14 UNL     1      -9.131  28.876  -3.347  1.00  0.00     0.257 C 
BRANCH  42  43
HETATM   43  O6  UNL     1     -10.260  28.278  -3.942  1.00  0.00    -0.380 OA
ATOM     44  H6  UNL     1     -10.900  28.020  -3.288  1.00  0.00     0.211 HD
ENDBRANCH  42  43
BRANCH  42  45
HETATM   45  C15 UNL     1      -8.043  29.042  -4.319  1.00  0.00     0.207 C 
HETATM   46  O7  UNL     1      -7.590  30.163  -4.616  1.00  0.00    -0.646 OA
HETATM   47  O8  UNL     1      -7.499  27.926  -4.927  1.00  0.00    -0.646 OA
ENDBRANCH  42  45
ENDBRANCH  32  42
ENDBRANCH   1  25
TORSDOF 16
ENDMDL
MODEL 5
REMARK VINA RESULT: -7.418015830      2.559      4.265
REMARK  16 active torsions:
REMARK  status: ('A' for Active; 'I' for Inactive)
REMARK    1  A    between atoms: N1_1  and  C1_4 
REMARK    2  A    between atoms: C2_7  and  C3_8 
REMARK    3  A    between atoms: C3_8  and  O1_9 
REMARK    4  A    between atoms: C3_8  and  N3_11 
REMARK    5  A    between atoms: N3_11  and  N4_12 
REMARK    6  A    between atoms: C4_15  and  N5_16 
REMARK    7  A    between atoms: C5_18  and  C6_19 
REMARK    8  A    between atoms: C6_19  and  O2_20 
REMARK    9  A    between atoms: C6_19  and  N6_22 
REMARK   10  A    between atoms: N6_22  and  C7_24 
REMARK   11  A    between atoms: C11_29  and  C12_30 
REMARK   12  A    between atoms: C12_30  and  O4_31 
REMARK   13  A    between atoms: C12_30  and  O5_33 
REMARK   14  A    between atoms: C13_35  and  C14_36 
REMARK   15  A    between atoms: C14_36  and  O6_37 
REMARK   16  A    between atoms: C14_36  and  C15_39 
ROOT
HETATM    1  N6  UNL     1     -16.897  34.448  -5.727  1.00  0.00    -0.345 N 
ATOM      2  H6  UNL     1     -16.727  35.017  -6.556  1.00  0.00     0.164 HD
ENDROOT
BRANCH   1   3
HETATM    3  C6  UNL     1     -18.195  34.502  -5.075  1.00  0.00     0.259 C 
BRANCH   3   4
HETATM    4  C5  UNL     1     -18.304  35.770  -4.337  1.00  0.00     0.114 C 
HETATM    5  N5  UNL     1     -19.127  36.731  -4.630  1.00  0.00    -0.358 N 
ATOM      6  H5  UNL     1     -19.148  37.582  -4.069  1.00  0.00     0.165 HD
BRANCH   5   7
HETATM    7  C4  UNL     1     -20.015  36.580  -5.764  1.00  0.00     0.110 A 
HETATM    8  C2  UNL     1     -21.138  37.253  -6.109  1.00  0.00     0.136 A 
HETATM    9  N2  UNL     1     -21.778  36.883  -7.182  1.00  0.00    -0.330 N 
HETATM   10  C1  UNL     1     -21.302  35.851  -7.904  1.00  0.00     0.144 A 
ATOM     11  H2  UNL     1     -22.627  37.368  -7.470  1.00  0.00     0.168 HD
HETATM   12  S1  UNL     1     -19.905  35.405  -7.021  1.00  0.00    -0.034 SA
BRANCH   8  13
HETATM   13  C3  UNL     1     -21.612  38.398  -5.198  1.00  0.00     0.267 C 
BRANCH  13  14
HETATM   14  O1  UNL     1     -20.823  39.434  -5.294  1.00  0.00    -0.332 OA
ATOM     15  H1  UNL     1     -21.202  40.193  -4.869  1.00  0.00     0.220 HD
ENDBRANCH  13  14
BRANCH  13  16
HETATM   16  N3  UNL     1     -22.668  38.307  -4.438  1.00  0.00    -0.304 NA
BRANCH  16  17
HETATM   17  N4  UNL     1     -23.746  38.217  -3.621  1.00  0.00    -0.278 N 
ATOM     18  H42 UNL     1     -22.820  38.592  -3.416  1.00  0.00     0.191 HD
ATOM     19  H41 UNL     1     -24.571  38.139  -3.025  1.00  0.00     0.191 HD
ENDBRANCH  16  17
ENDBRANCH  13  16
ENDBRANCH   8  13
BRANCH  10  20
HETATM   20  N1  UNL     1     -21.785  35.346  -8.989  1.00  0.00    -0.380 N 
ATOM     21  H12 UNL     1     -22.682  35.518  -9.443  1.00  0.00     0.158 HD
ATOM     22  H11 UNL     1     -21.357  34.660  -9.611  1.00  0.00     0.158 HD
ENDBRANCH  10  20
ENDBRANCH   5   7
ENDBRANCH   3   4
BRANCH   3  23
HETATM   23  O2  UNL     1     -18.410  33.393  -4.254  1.00  0.00    -0.372 OA
ATOM     24  H2  UNL     1     -18.770  32.656  -4.733  1.00  0.00     0.212 HD
ENDBRANCH   3  23
ENDBRANCH   1   3
BRANCH   1  25
HETATM   25  C7  UNL     1     -15.858  33.614  -5.226  1.00  0.00     0.117 A 
HETATM   26  C8  UNL     1     -15.706  32.469  -5.873  1.00  0.00     0.052 A 
HETATM   27  C9  UNL     1     -14.753  31.399  -5.624  1.00  0.00     0.043 A 
HETATM   28  C10 UNL     1     -13.824  31.351  -4.666  1.00  0.00     0.104 A 
HETATM   29  O3  UNL     1     -12.997  30.355  -4.493  1.00  0.00    -0.307 OA
HETATM   30  C16 UNL     1     -13.547  32.293  -3.694  1.00  0.00     0.094 A 
HETATM   31  C11 UNL     1     -12.189  30.597  -3.451  1.00  0.00     0.119 A 
HETATM   32  C13 UNL     1     -12.487  31.806  -2.905  1.00  0.00     0.046 A 
HETATM   33  N7  UNL     1     -14.061  33.430  -3.437  1.00  0.00    -0.296 N 
HETATM   34  N8  UNL     1     -15.116  34.077  -4.111  1.00  0.00    -0.285 N 
ATOM     35  H7  UNL     1     -13.660  33.933  -2.646  1.00  0.00     0.187 HD
ATOM     36  H8  UNL     1     -15.377  34.995  -3.751  1.00  0.00     0.188 HD
BRANCH  31  37
HETATM   37  C12 UNL     1     -11.150  29.612  -3.038  1.00  0.00     0.313 C 
BRANCH  37  38
HETATM   38  O4  UNL     1      -9.995  29.744  -3.828  1.00  0.00    -0.365 OA
ATOM     39  H4  UNL     1     -10.028  29.155  -4.573  1.00  0.00     0.213 HD
ENDBRANCH  37  38
BRANCH  37  40
HETATM   40  O5  UNL     1     -11.698  28.344  -3.309  1.00  0.00    -0.365 OA
ATOM     41  H5  UNL     1     -11.546  28.190  -4.234  1.00  0.00     0.213 HD
ENDBRANCH  37  40
ENDBRANCH  31  37
BRANCH  32  42
HETATM   42  C14 UNL     1     -11.884  32.531  -1.760  1.00  0.00     0.257 C 
BRANCH  42  43
HETATM   43  O6  UNL     1     -12.709  32.466  -0.619  1.00  0.00    -0.380 OA
ATOM     44  H6  UNL     1     -12.326  32.937   0.112  1.00  0.00     0.211 HD
ENDBRANCH  42  43
BRANCH  42  45
HETATM   45  C15 UNL     1     -10.505  32.139  -1.443  1.00  0.00     0.207 C 
HETATM   46  O7  UNL     1      -9.538  32.893  -1.660  1.00  0.00    -0.646 OA
HETATM   47  O8  UNL     1     -10.263  30.898  -0.883  1.00  0.00    -0.646 OA
ENDBRANCH  42  45
ENDBRANCH  32  42
ENDBRANCH   1  25
TORSDOF 16
ENDMDL
