MODEL 1
REMARK VINA RESULT: -6.810685795      0.000      0.000
REMARK  16 active torsions:
REMARK  status: ('A' for Active; 'I' for Inactive)
REMARK    1  A    between atoms: N1_2  and  C3_5 
REMARK    2  A    between atoms: C4_6  and  O1_7 
REMARK    3  A    between atoms: C5_9  and  C6_10 
REMARK    4  A    between atoms: C6_10  and  O2_11 
REMARK    5  A    between atoms: C6_10  and  O3_13 
REMARK    6  A    between atoms: C7_17  and  N4_18 
REMARK    7  A    between atoms: N4_18  and  C8_19 
REMARK    8  A    between atoms: N4_18  and  C15_40 
REMARK    9  A    between atoms: C8_19  and  C9_20 
REMARK   10  A    between atoms: C12_27  and  N7_28 
REMARK   11  A    between atoms: C13_33  and  N9_34 
REMARK   12  A    between atoms: C15_40  and  C16_41 
REMARK   13  A    between atoms: C16_41  and  O4_42 
REMARK   14  A    between atoms: C16_41  and  C17_44 
REMARK   15  A    between atoms: C17_44  and  O5_45 
REMARK   16  A    between atoms: C18_47  and  O6_48 
ROOT
HETATM    1  C1  UNL     1     -22.334  38.389  -7.808  1.00  0.00     0.169 C 
HETATM    2  N1  UNL     1     -22.350  37.156  -7.026  1.00  0.00    -0.284 N 
HETATM    3  C2  UNL     1     -23.591  36.550  -6.788  1.00  0.00     0.184 C 
HETATM    4  N2  UNL     1     -24.615  36.033  -6.598  1.00  0.00    -0.172 NA
ENDROOT
BRANCH   2   5
HETATM    5  C3  UNL     1     -21.128  36.581  -6.519  1.00  0.00     0.116 A 
HETATM    6  C4  UNL     1     -20.694  36.893  -5.262  1.00  0.00     0.124 A 
HETATM    7  C5  UNL     1     -19.518  36.312  -4.829  1.00  0.00     0.102 A 
HETATM    8  N3  UNL     1     -18.825  35.479  -5.603  1.00  0.00    -0.337 N 
HETATM    9  C7  UNL     1     -19.209  35.129  -6.874  1.00  0.00     0.140 A 
ATOM     10  H3  UNL     1     -17.963  35.080  -5.233  1.00  0.00     0.167 HD
HETATM   11  C18 UNL     1     -20.382  35.711  -7.294  1.00  0.00     0.140 A 
BRANCH   6  12
HETATM   12  O1  UNL     1     -21.428  37.762  -4.469  1.00  0.00    -0.356 OA
ATOM     13  H1  UNL     1     -22.209  38.178  -4.817  1.00  0.00     0.218 HD
ENDBRANCH   6  12
BRANCH   7  14
HETATM   14  C6  UNL     1     -19.024  36.644  -3.445  1.00  0.00     0.308 C 
BRANCH  14  15
HETATM   15  O2  UNL     1     -17.976  35.765  -3.153  1.00  0.00    -0.366 OA
ATOM     16  H2  UNL     1     -17.493  36.132  -2.423  1.00  0.00     0.213 HD
ENDBRANCH  14  15
BRANCH  14  17
HETATM   17  O3  UNL     1     -20.073  36.483  -2.536  1.00  0.00    -0.366 OA
ATOM     18  H3  UNL     1     -20.562  37.295  -2.480  1.00  0.00     0.213 HD
ENDBRANCH  14  17
ENDBRANCH   7  14
BRANCH   9  19
HETATM   19  N4  UNL     1     -18.392  34.261  -7.624  1.00  0.00    -0.357 N 
BRANCH  19  20
HETATM   20  C8  UNL     1     -18.161  34.268  -9.020  1.00  0.00     0.183 C 
BRANCH  20  21
HETATM   21  C9  UNL     1     -17.542  35.439  -9.629  1.00  0.00     0.043 A 
HETATM   22  C10 UNL     1     -16.211  35.428 -10.026  1.00  0.00     0.116 A 
HETATM   23  N5  UNL     1     -15.595  36.460 -10.601  1.00  0.00    -0.348 N 
HETATM   24  C11 UNL     1     -16.288  37.587 -10.818  1.00  0.00     0.151 A 
ATOM     25  H5  UNL     1     -14.613  36.394 -10.872  1.00  0.00     0.167 HD
HETATM   26  N6  UNL     1     -15.682  38.645 -11.400  1.00  0.00    -0.174 N 
HETATM   27  C14 UNL     1     -17.613  37.638 -10.438  1.00  0.00     0.122 A 
HETATM   28  C12 UNL     1     -16.362  39.779 -11.624  1.00  0.00     0.679 A 
ATOM     29  H6  UNL     1     -14.701  38.581 -11.671  1.00  0.00     0.186 HD
HETATM   30  N8  UNL     1     -17.670  39.881 -11.268  1.00  0.00    -0.175 N 
HETATM   31  C13 UNL     1     -18.273  38.830 -10.690  1.00  0.00     0.145 A 
ATOM     32  H8  UNL     1     -18.187  40.743 -11.439  1.00  0.00     0.186 HD
HETATM   33  N10 UNL     1     -18.221  36.590  -9.858  1.00  0.00    -0.351 N 
ATOM     34  H10 UNL     1     -19.203  36.660  -9.588  1.00  0.00     0.166 HD
BRANCH  28  35
HETATM   35  N7  UNL     1     -15.797  40.790 -12.178  1.00  0.00    -0.234 N 
ATOM     36  H72 UNL     1     -15.440  40.689 -13.128  1.00  0.00     0.174 HD
ATOM     37  H71 UNL     1     -15.704  41.677 -11.682  1.00  0.00     0.174 HD
ENDBRANCH  28  35
BRANCH  31  38
HETATM   38  N9  UNL     1     -19.506  38.927 -10.355  1.00  0.00    -0.383 N 
ATOM     39  H92 UNL     1     -20.147  38.189 -10.646  1.00  0.00     0.157 HD
ATOM     40  H91 UNL     1     -19.810  39.734  -9.809  1.00  0.00     0.157 HD
ENDBRANCH  31  38
ENDBRANCH  20  21
ENDBRANCH  19  20
BRANCH  19  41
HETATM   41  C15 UNL     1     -17.701  33.219  -6.842  1.00  0.00     0.158 C 
BRANCH  41  42
HETATM   42  C16 UNL     1     -16.301  33.625  -6.490  1.00  0.00     0.159 C 
BRANCH  42  43
HETATM   43  O4  UNL     1     -16.222  34.429  -5.371  1.00  0.00    -0.392 OA
ATOM     44  H4  UNL     1     -15.344  34.508  -5.018  1.00  0.00     0.210 HD
ENDBRANCH  42  43
BRANCH  42  45
HETATM   45  C17 UNL     1     -15.512  32.350  -6.241  1.00  0.00     0.197 C 
BRANCH  45  46
HETATM   46  O5  UNL     1     -14.182  32.609  -6.559  1.00  0.00    -0.398 OA
ATOM     47  H5  UNL     1     -14.107  32.605  -7.506  1.00  0.00     0.209 HD
ENDBRANCH  45  46
ENDBRANCH  42  45
ENDBRANCH  41  42
ENDBRANCH  19  41
ENDBRANCH   9  19
BRANCH  11  48
HETATM   48  O6  UNL     1     -20.854  35.421  -8.546  1.00  0.00    -0.355 OA
ATOM     49  H6  UNL     1     -20.328  34.846  -9.088  1.00  0.00     0.218 HD
ENDBRANCH  11  48
ENDBRANCH   2   5
TORSDOF 16
ENDMDL
MODEL 2
REMARK VINA RESULT: -6.782699611      2.430      3.914
REMARK  16 active torsions:
REMARK  status: ('A' for Active; 'I' for Inactive)
REMARK    1  A    between atoms: N1_2  and  C3_5 
REMARK    2  A    between atoms: C4_6  and  O1_7 
REMARK    3  A    between atoms: C5_9  and  C6_10 
REMARK    4  A    between atoms: C6_10  and  O2_11 
REMARK    5  A    between atoms: C6_10  and  O3_13 
REMARK    6  A    between atoms: C7_17  and  N4_18 
REMARK    7  A    between atoms: N4_18  and  C8_19 
REMARK    8  A    between atoms: N4_18  and  C15_40 
REMARK    9  A    between atoms: C8_19  and  C9_20 
REMARK   10  A    between atoms: C12_27  and  N7_28 
REMARK   11  A    between atoms: C13_33  and  N9_34 
REMARK   12  A    between atoms: C15_40  and  C16_41 
REMARK   13  A    between atoms: C16_41  and  O4_42 
REMARK   14  A    between atoms: C16_41  and  C17_44 
REMARK   15  A    between atoms: C17_44  and  O5_45 
REMARK   16  A    between atoms: C18_47  and  O6_48 
ROOT
HETATM    1  C1  UNL     1     -22.635  40.605  -5.322  1.00  0.00     0.169 C 
HETATM    2  N1  UNL     1     -22.918  39.173  -5.345  1.00  0.00    -0.284 N 
HETATM    3  C2  UNL     1     -24.013  38.712  -4.604  1.00  0.00     0.184 C 
HETATM    4  N2  UNL     1     -24.929  38.323  -4.003  1.00  0.00    -0.172 NA
ENDROOT
BRANCH   2   5
HETATM    5  C3  UNL     1     -22.096  38.266  -6.107  1.00  0.00     0.116 A 
HETATM    6  C4  UNL     1     -21.111  37.547  -5.489  1.00  0.00     0.124 A 
HETATM    7  C5  UNL     1     -20.357  36.693  -6.269  1.00  0.00     0.102 A 
HETATM    8  N3  UNL     1     -20.572  36.569  -7.578  1.00  0.00    -0.337 N 
HETATM    9  C7  UNL     1     -21.543  37.264  -8.255  1.00  0.00     0.140 A 
ATOM     10  H3  UNL     1     -19.984  35.925  -8.105  1.00  0.00     0.167 HD
HETATM   11  C18 UNL     1     -22.290  38.110  -7.468  1.00  0.00     0.140 A 
BRANCH   6  12
HETATM   12  O1  UNL     1     -20.901  37.688  -4.126  1.00  0.00    -0.356 OA
ATOM     13  H1  UNL     1     -21.603  38.001  -3.566  1.00  0.00     0.218 HD
ENDBRANCH   6  12
BRANCH   7  14
HETATM   14  C6  UNL     1     -19.268  35.893  -5.604  1.00  0.00     0.308 C 
BRANCH  14  15
HETATM   15  O2  UNL     1     -19.888  34.923  -4.808  1.00  0.00    -0.366 OA
ATOM     16  H2  UNL     1     -20.018  35.303  -3.947  1.00  0.00     0.213 HD
ENDBRANCH  14  15
BRANCH  14  17
HETATM   17  O3  UNL     1     -18.485  36.748  -4.823  1.00  0.00    -0.366 OA
ATOM     18  H3  UNL     1     -18.109  37.419  -5.380  1.00  0.00     0.213 HD
ENDBRANCH  14  17
ENDBRANCH   7  14
BRANCH   9  19
HETATM   19  N4  UNL     1     -21.673  37.084  -9.645  1.00  0.00    -0.357 N 
BRANCH  19  20
HETATM   20  C8  UNL     1     -21.413  38.019 -10.675  1.00  0.00     0.183 C 
BRANCH  20  21
HETATM   21  C9  UNL     1     -20.053  38.510 -10.858  1.00  0.00     0.043 A 
HETATM   22  C10 UNL     1     -19.801  39.839 -11.174  1.00  0.00     0.116 A 
HETATM   23  N5  UNL     1     -18.581  40.350 -11.338  1.00  0.00    -0.348 N 
HETATM   24  C11 UNL     1     -17.519  39.545 -11.194  1.00  0.00     0.151 A 
ATOM     25  H5  UNL     1     -18.458  41.336 -11.570  1.00  0.00     0.167 HD
HETATM   26  N6  UNL     1     -16.274  40.042 -11.356  1.00  0.00    -0.174 N 
HETATM   27  C14 UNL     1     -17.727  38.218 -10.880  1.00  0.00     0.122 A 
HETATM   28  C12 UNL     1     -15.201  39.250 -11.215  1.00  0.00     0.679 A 
ATOM     29  H6  UNL     1     -16.149  41.027 -11.589  1.00  0.00     0.186 HD
HETATM   30  N8  UNL     1     -15.352  37.934 -10.906  1.00  0.00    -0.175 N 
HETATM   31  C13 UNL     1     -16.589  37.438 -10.745  1.00  0.00     0.145 A 
ATOM     32  H8  UNL     1     -14.536  37.332 -10.799  1.00  0.00     0.186 HD
HETATM   33  N10 UNL     1     -18.963  37.716 -10.718  1.00  0.00    -0.351 N 
ATOM     34  H10 UNL     1     -19.082  36.729 -10.487  1.00  0.00     0.166 HD
BRANCH  28  35
HETATM   35  N7  UNL     1     -14.013  39.712 -11.366  1.00  0.00    -0.234 N 
ATOM     36  H72 UNL     1     -13.230  39.174 -10.995  1.00  0.00     0.174 HD
ATOM     37  H71 UNL     1     -13.850  40.598 -11.845  1.00  0.00     0.174 HD
ENDBRANCH  28  35
BRANCH  31  38
HETATM   38  N9  UNL     1     -16.729  36.199 -10.454  1.00  0.00    -0.383 N 
ATOM     39  H92 UNL     1     -15.892  35.626 -10.351  1.00  0.00     0.157 HD
ATOM     40  H91 UNL     1     -17.670  35.821 -10.334  1.00  0.00     0.157 HD
ENDBRANCH  31  38
ENDBRANCH  20  21
ENDBRANCH  19  20
BRANCH  19  41
HETATM   41  C15 UNL     1     -22.143  35.750 -10.063  1.00  0.00     0.158 C 
BRANCH  41  42
HETATM   42  C16 UNL     1     -21.068  34.978 -10.768  1.00  0.00     0.159 C 
BRANCH  42  43
HETATM   43  O4  UNL     1     -19.843  35.025 -10.133  1.00  0.00    -0.392 OA
ATOM     44  H4  UNL     1     -19.842  34.616  -9.276  1.00  0.00     0.210 HD
ENDBRANCH  42  43
BRANCH  42  45
HETATM   45  C17 UNL     1     -21.531  33.532 -10.847  1.00  0.00     0.197 C 
BRANCH  45  46
HETATM   46  O5  UNL     1     -21.154  32.905  -9.663  1.00  0.00    -0.398 OA
ATOM     47  H5  UNL     1     -20.319  32.478  -9.817  1.00  0.00     0.209 HD
ENDBRANCH  45  46
ENDBRANCH  42  45
ENDBRANCH  41  42
ENDBRANCH  19  41
ENDBRANCH   9  19
BRANCH  11  48
HETATM   48  O6  UNL     1     -23.289  38.845  -8.049  1.00  0.00    -0.355 OA
ATOM     49  H6  UNL     1     -24.137  38.429  -8.144  1.00  0.00     0.218 HD
ENDBRANCH  11  48
ENDBRANCH   2   5
TORSDOF 16
ENDMDL
MODEL 3
REMARK VINA RESULT: -6.761937339      2.215      4.658
REMARK  16 active torsions:
REMARK  status: ('A' for Active; 'I' for Inactive)
REMARK    1  A    between atoms: N1_2  and  C3_5 
REMARK    2  A    between atoms: C4_6  and  O1_7 
REMARK    3  A    between atoms: C5_9  and  C6_10 
REMARK    4  A    between atoms: C6_10  and  O2_11 
REMARK    5  A    between atoms: C6_10  and  O3_13 
REMARK    6  A    between atoms: C7_17  and  N4_18 
REMARK    7  A    between atoms: N4_18  and  C8_19 
REMARK    8  A    between atoms: N4_18  and  C15_40 
REMARK    9  A    between atoms: C8_19  and  C9_20 
REMARK   10  A    between atoms: C12_27  and  N7_28 
REMARK   11  A    between atoms: C13_33  and  N9_34 
REMARK   12  A    between atoms: C15_40  and  C16_41 
REMARK   13  A    between atoms: C16_41  and  O4_42 
REMARK   14  A    between atoms: C16_41  and  C17_44 
REMARK   15  A    between atoms: C17_44  and  O5_45 
REMARK   16  A    between atoms: C18_47  and  O6_48 
ROOT
HETATM    1  C1  UNL     1     -20.450  32.929 -11.870  1.00  0.00     0.169 C 
HETATM    2  N1  UNL     1     -20.818  32.798 -10.464  1.00  0.00    -0.284 N 
HETATM    3  C2  UNL     1     -21.745  31.804 -10.121  1.00  0.00     0.184 C 
HETATM    4  N2  UNL     1     -22.503  30.973  -9.827  1.00  0.00    -0.172 NA
ENDROOT
BRANCH   2   5
HETATM    5  C3  UNL     1     -20.245  33.662  -9.461  1.00  0.00     0.116 A 
HETATM    6  C4  UNL     1     -19.031  33.363  -8.911  1.00  0.00     0.124 A 
HETATM    7  C5  UNL     1     -18.531  34.226  -7.957  1.00  0.00     0.102 A 
HETATM    8  N3  UNL     1     -19.202  35.314  -7.579  1.00  0.00    -0.337 N 
HETATM    9  C7  UNL     1     -20.425  35.666  -8.094  1.00  0.00     0.140 A 
ATOM     10  H3  UNL     1     -18.785  35.916  -6.869  1.00  0.00     0.167 HD
HETATM   11  C18 UNL     1     -20.912  34.799  -9.044  1.00  0.00     0.140 A 
BRANCH   6  12
HETATM   12  O1  UNL     1     -18.345  32.227  -9.315  1.00  0.00    -0.356 OA
ATOM     13  H1  UNL     1     -18.513  31.394  -8.889  1.00  0.00     0.218 HD
ENDBRANCH   6  12
BRANCH   7  14
HETATM   14  C6  UNL     1     -17.193  33.913  -7.340  1.00  0.00     0.308 C 
BRANCH  14  15
HETATM   15  O2  UNL     1     -17.053  34.726  -6.210  1.00  0.00    -0.366 OA
ATOM     16  H2  UNL     1     -16.144  34.997  -6.166  1.00  0.00     0.213 HD
ENDBRANCH  14  15
BRANCH  14  17
HETATM   17  O3  UNL     1     -16.187  34.183  -8.271  1.00  0.00    -0.366 OA
ATOM     18  H3  UNL     1     -15.871  35.069  -8.139  1.00  0.00     0.213 HD
ENDBRANCH  14  17
ENDBRANCH   7  14
BRANCH   9  19
HETATM   19  N4  UNL     1     -21.067  36.821  -7.609  1.00  0.00    -0.357 N 
BRANCH  19  20
HETATM   20  C8  UNL     1     -21.375  38.009  -8.312  1.00  0.00     0.183 C 
BRANCH  20  21
HETATM   21  C9  UNL     1     -20.313  38.706  -9.026  1.00  0.00     0.043 A 
HETATM   22  C10 UNL     1     -20.074  40.060  -8.825  1.00  0.00     0.116 A 
HETATM   23  N5  UNL     1     -19.109  40.747  -9.435  1.00  0.00    -0.348 N 
HETATM   24  C11 UNL     1     -18.309  40.108 -10.301  1.00  0.00     0.151 A 
ATOM     25  H5  UNL     1     -18.982  41.742  -9.248  1.00  0.00     0.167 HD
HETATM   26  N6  UNL     1     -17.325  40.785 -10.930  1.00  0.00    -0.174 N 
HETATM   27  C14 UNL     1     -18.514  38.763 -10.528  1.00  0.00     0.122 A 
HETATM   28  C12 UNL     1     -16.516  40.161 -11.798  1.00  0.00     0.679 A 
ATOM     29  H6  UNL     1     -17.197  41.780 -10.744  1.00  0.00     0.186 HD
HETATM   30  N8  UNL     1     -16.675  38.835 -12.057  1.00  0.00    -0.175 N 
HETATM   31  C13 UNL     1     -17.653  38.160 -11.433  1.00  0.00     0.145 A 
ATOM     32  H8  UNL     1     -16.060  38.360 -12.717  1.00  0.00     0.186 HD
HETATM   33  N10 UNL     1     -19.491  38.082  -9.906  1.00  0.00    -0.351 N 
ATOM     34  H10 UNL     1     -19.616  37.088 -10.097  1.00  0.00     0.166 HD
BRANCH  28  35
HETATM   35  N7  UNL     1     -15.577  40.795 -12.401  1.00  0.00    -0.234 N 
ATOM     36  H72 UNL     1     -15.697  41.792 -12.578  1.00  0.00     0.174 HD
ATOM     37  H71 UNL     1     -14.727  40.316 -12.699  1.00  0.00     0.174 HD
ENDBRANCH  28  35
BRANCH  31  38
HETATM   38  N9  UNL     1     -17.803  36.912 -11.678  1.00  0.00    -0.383 N 
ATOM     39  H92 UNL     1     -16.968  36.338 -11.798  1.00  0.00     0.157 HD
ATOM     40  H91 UNL     1     -18.746  36.529 -11.744  1.00  0.00     0.157 HD
ENDBRANCH  31  38
ENDBRANCH  20  21
ENDBRANCH  19  20
BRANCH  19  41
HETATM   41  C15 UNL     1     -21.459  36.771  -6.188  1.00  0.00     0.158 C 
BRANCH  41  42
HETATM   42  C16 UNL     1     -20.549  37.598  -5.330  1.00  0.00     0.159 C 
BRANCH  42  43
HETATM   43  O4  UNL     1     -21.211  38.526  -4.553  1.00  0.00    -0.392 OA
ATOM     44  H4  UNL     1     -20.631  39.083  -4.047  1.00  0.00     0.210 HD
ENDBRANCH  42  43
BRANCH  42  45
HETATM   45  C17 UNL     1     -19.793  36.640  -4.423  1.00  0.00     0.197 C 
BRANCH  45  46
HETATM   46  O5  UNL     1     -18.456  36.662  -4.809  1.00  0.00    -0.398 OA
ATOM     47  H5  UNL     1     -18.101  35.792  -4.666  1.00  0.00     0.209 HD
ENDBRANCH  45  46
ENDBRANCH  42  45
ENDBRANCH  41  42
ENDBRANCH  19  41
ENDBRANCH   9  19
BRANCH  11  48
HETATM   48  O6  UNL     1     -22.124  35.066  -9.624  1.00  0.00    -0.355 OA
ATOM     49  H6  UNL     1     -22.125  35.303 -10.544  1.00  0.00     0.218 HD
ENDBRANCH  11  48
ENDBRANCH   2   5
TORSDOF 16
ENDMDL
MODEL 4
REMARK VINA RESULT: -6.701379828      2.832      6.433
REMARK  16 active torsions:
REMARK  status: ('A' for Active; 'I' for Inactive)
REMARK    1  A    between atoms: N1_2  and  C3_5 
REMARK    2  A    between atoms: C4_6  and  O1_7 
REMARK    3  A    between atoms: C5_9  and  C6_10 
REMARK    4  A    between atoms: C6_10  and  O2_11 
REMARK    5  A    between atoms: C6_10  and  O3_13 
REMARK    6  A    between atoms: C7_17  and  N4_18 
REMARK    7  A    between atoms: N4_18  and  C8_19 
REMARK    8  A    between atoms: N4_18  and  C15_40 
REMARK    9  A    between atoms: C8_19  and  C9_20 
REMARK   10  A    between atoms: C12_27  and  N7_28 
REMARK   11  A    between atoms: C13_33  and  N9_34 
REMARK   12  A    between atoms: C15_40  and  C16_41 
REMARK   13  A    between atoms: C16_41  and  O4_42 
REMARK   14  A    between atoms: C16_41  and  C17_44 
REMARK   15  A    between atoms: C17_44  and  O5_45 
REMARK   16  A    between atoms: C18_47  and  O6_48 
ROOT
HETATM    1  C1  UNL     1     -18.956  32.303 -12.349  1.00  0.00     0.169 C 
HETATM    2  N1  UNL     1     -17.694  32.837 -11.845  1.00  0.00    -0.284 N 
HETATM    3  C2  UNL     1     -16.508  32.356 -12.414  1.00  0.00     0.184 C 
HETATM    4  N2  UNL     1     -15.519  31.972 -12.891  1.00  0.00    -0.172 NA
ENDROOT
BRANCH   2   5
HETATM    5  C3  UNL     1     -17.671  33.828 -10.797  1.00  0.00     0.116 A 
HETATM    6  C4  UNL     1     -17.679  35.158 -11.109  1.00  0.00     0.124 A 
HETATM    7  C5  UNL     1     -17.657  36.060 -10.065  1.00  0.00     0.102 A 
HETATM    8  N3  UNL     1     -17.628  35.658  -8.795  1.00  0.00    -0.337 N 
HETATM    9  C7  UNL     1     -17.618  34.338  -8.418  1.00  0.00     0.140 A 
ATOM     10  H3  UNL     1     -17.612  36.369  -8.064  1.00  0.00     0.167 HD
HETATM   11  C18 UNL     1     -17.641  33.448  -9.467  1.00  0.00     0.140 A 
BRANCH   6  12
HETATM   12  O1  UNL     1     -17.709  35.559 -12.437  1.00  0.00    -0.356 OA
ATOM     13  H1  UNL     1     -17.784  36.481 -12.653  1.00  0.00     0.218 HD
ENDBRANCH   6  12
BRANCH   7  14
HETATM   14  C6  UNL     1     -17.666  37.531 -10.391  1.00  0.00     0.308 C 
BRANCH  14  15
HETATM   15  O2  UNL     1     -18.768  37.769 -11.219  1.00  0.00    -0.366 OA
ATOM     16  H2  UNL     1     -19.535  37.825 -10.662  1.00  0.00     0.213 HD
ENDBRANCH  14  15
BRANCH  14  17
HETATM   17  O3  UNL     1     -16.475  37.860 -11.044  1.00  0.00    -0.366 OA
ATOM     18  H3  UNL     1     -16.251  38.761 -10.844  1.00  0.00     0.213 HD
ENDBRANCH  14  17
ENDBRANCH   7  14
BRANCH   9  19
HETATM   19  N4  UNL     1     -17.558  34.015  -7.049  1.00  0.00    -0.357 N 
BRANCH  19  20
HETATM   20  C8  UNL     1     -18.622  33.963  -6.118  1.00  0.00     0.183 C 
BRANCH  20  21
HETATM   21  C9  UNL     1     -19.369  35.180  -5.827  1.00  0.00     0.043 A 
HETATM   22  C10 UNL     1     -19.138  35.910  -4.667  1.00  0.00     0.116 A 
HETATM   23  N5  UNL     1     -19.776  37.037  -4.354  1.00  0.00    -0.348 N 
HETATM   24  C11 UNL     1     -20.703  37.510  -5.199  1.00  0.00     0.151 A 
ATOM     25  H5  UNL     1     -19.564  37.530  -3.486  1.00  0.00     0.167 HD
HETATM   26  N6  UNL     1     -21.362  38.651  -4.900  1.00  0.00    -0.174 N 
HETATM   27  C14 UNL     1     -20.962  36.814  -6.361  1.00  0.00     0.122 A 
HETATM   28  C12 UNL     1     -22.292  39.138  -5.735  1.00  0.00     0.679 A 
ATOM     29  H6  UNL     1     -21.152  39.145  -4.033  1.00  0.00     0.186 HD
HETATM   30  N8  UNL     1     -22.585  38.490  -6.894  1.00  0.00    -0.175 N 
HETATM   31  C13 UNL     1     -21.931  37.356  -7.192  1.00  0.00     0.145 A 
ATOM     32  H8  UNL     1     -23.292  38.861  -7.529  1.00  0.00     0.186 HD
HETATM   33  N10 UNL     1     -20.311  35.679  -6.665  1.00  0.00    -0.351 N 
ATOM     34  H10 UNL     1     -20.527  35.188  -7.533  1.00  0.00     0.166 HD
BRANCH  28  35
HETATM   35  N7  UNL     1     -22.924  40.221  -5.462  1.00  0.00    -0.234 N 
ATOM     36  H72 UNL     1     -23.726  40.173  -4.835  1.00  0.00     0.174 HD
ATOM     37  H71 UNL     1     -22.634  41.114  -5.861  1.00  0.00     0.174 HD
ENDBRANCH  28  35
BRANCH  31  38
HETATM   38  N9  UNL     1     -22.207  36.747  -8.285  1.00  0.00    -0.383 N 
ATOM     39  H92 UNL     1     -22.919  37.146  -8.896  1.00  0.00     0.157 HD
ATOM     40  H91 UNL     1     -21.711  35.885  -8.511  1.00  0.00     0.157 HD
ENDBRANCH  31  38
ENDBRANCH  20  21
ENDBRANCH  19  20
BRANCH  19  41
HETATM   41  C15 UNL     1     -16.212  33.696  -6.539  1.00  0.00     0.158 C 
BRANCH  41  42
HETATM   42  C16 UNL     1     -16.270  32.767  -5.363  1.00  0.00     0.159 C 
BRANCH  42  43
HETATM   43  O4  UNL     1     -15.858  31.481  -5.650  1.00  0.00    -0.392 OA
ATOM     44  H4  UNL     1     -14.920  31.356  -5.578  1.00  0.00     0.210 HD
ENDBRANCH  42  43
BRANCH  42  45
HETATM   45  C17 UNL     1     -15.367  33.348  -4.287  1.00  0.00     0.197 C 
BRANCH  45  46
HETATM   46  O5  UNL     1     -15.175  34.695  -4.580  1.00  0.00    -0.398 OA
ATOM     47  H5  UNL     1     -14.507  35.025  -3.991  1.00  0.00     0.209 HD
ENDBRANCH  45  46
ENDBRANCH  42  45
ENDBRANCH  41  42
ENDBRANCH  19  41
ENDBRANCH   9  19
BRANCH  11  48
HETATM   48  O6  UNL     1     -17.639  32.106  -9.196  1.00  0.00    -0.355 OA
ATOM     49  H6  UNL     1     -17.193  31.821  -8.407  1.00  0.00     0.218 HD
ENDBRANCH  11  48
ENDBRANCH   2   5
TORSDOF 16
ENDMDL
MODEL 5
REMARK VINA RESULT: -6.642071682      3.105      6.967
REMARK  16 active torsions:
REMARK  status: ('A' for Active; 'I' for Inactive)
REMARK    1  A    between atoms: N1_2  and  C3_5 
REMARK    2  A    between atoms: C4_6  and  O1_7 
REMARK    3  A    between atoms: C5_9  and  C6_10 
REMARK    4  A    between atoms: C6_10  and  O2_11 
REMARK    5  A    between atoms: C6_10  and  O3_13 
REMARK    6  A    between atoms: C7_17  and  N4_18 
REMARK    7  A    between atoms: N4_18  and  C8_19 
REMARK    8  A    between atoms: N4_18  and  C15_40 
REMARK    9  A    between atoms: C8_19  and  C9_20 
REMARK   10  A    between atoms: C12_27  and  N7_28 
REMARK   11  A    between atoms: C13_33  and  N9_34 
REMARK   12  A    between atoms: C15_40  and  C16_41 
REMARK   13  A    between atoms: C16_41  and  O4_42 
REMARK   14  A    between atoms: C16_41  and  C17_44 
REMARK   15  A    between atoms: C17_44  and  O5_45 
REMARK   16  A    between atoms: C18_47  and  O6_48 
ROOT
HETATM    1  C1  UNL     1     -16.274  35.172 -10.311  1.00  0.00     0.169 C 
HETATM    2  N1  UNL     1     -17.341  34.378  -9.710  1.00  0.00    -0.284 N 
HETATM    3  C2  UNL     1     -17.826  33.281 -10.435  1.00  0.00     0.184 C 
HETATM    4  N2  UNL     1     -18.225  32.361 -11.023  1.00  0.00    -0.172 NA
ENDROOT
BRANCH   2   5
HETATM    5  C3  UNL     1     -17.876  34.711  -8.413  1.00  0.00     0.116 A 
HETATM    6  C4  UNL     1     -17.295  34.212  -7.281  1.00  0.00     0.124 A 
HETATM    7  C5  UNL     1     -17.849  34.566  -6.068  1.00  0.00     0.102 A 
HETATM    8  N3  UNL     1     -18.914  35.364  -5.992  1.00  0.00    -0.337 N 
HETATM    9  C7  UNL     1     -19.542  35.895  -7.091  1.00  0.00     0.140 A 
ATOM     10  H3  UNL     1     -19.282  35.592  -5.069  1.00  0.00     0.167 HD
HETATM   11  C18 UNL     1     -18.980  35.537  -8.295  1.00  0.00     0.140 A 
BRANCH   6  12
HETATM   12  O1  UNL     1     -16.187  33.383  -7.378  1.00  0.00    -0.356 OA
ATOM     13  H1  UNL     1     -15.788  33.030  -6.591  1.00  0.00     0.218 HD
ENDBRANCH   6  12
BRANCH   7  14
HETATM   14  C6  UNL     1     -17.220  34.026  -4.810  1.00  0.00     0.308 C 
BRANCH  14  15
HETATM   15  O2  UNL     1     -15.915  34.525  -4.747  1.00  0.00    -0.366 OA
ATOM     16  H2  UNL     1     -15.575  34.323  -3.883  1.00  0.00     0.213 HD
ENDBRANCH  14  15
BRANCH  14  17
HETATM   17  O3  UNL     1     -17.215  32.630  -4.866  1.00  0.00    -0.366 OA
ATOM     18  H3  UNL     1     -17.690  32.287  -4.118  1.00  0.00     0.213 HD
ENDBRANCH  14  17
ENDBRANCH   7  14
BRANCH   9  19
HETATM   19  N4  UNL     1     -20.678  36.706  -6.908  1.00  0.00    -0.357 N 
BRANCH  19  20
HETATM   20  C8  UNL     1     -22.031  36.303  -6.813  1.00  0.00     0.183 C 
BRANCH  20  21
HETATM   21  C9  UNL     1     -22.448  35.062  -7.452  1.00  0.00     0.043 A 
HETATM   22  C10 UNL     1     -23.366  34.211  -6.849  1.00  0.00     0.116 A 
HETATM   23  N5  UNL     1     -23.796  33.072  -7.390  1.00  0.00    -0.348 N 
HETATM   24  C11 UNL     1     -23.324  32.708  -8.591  1.00  0.00     0.151 A 
ATOM     25  H5  UNL     1     -24.472  32.486  -6.899  1.00  0.00     0.167 HD
HETATM   26  N6  UNL     1     -23.747  31.558  -9.158  1.00  0.00    -0.174 N 
HETATM   27  C14 UNL     1     -22.411  33.526  -9.223  1.00  0.00     0.122 A 
HETATM   28  C12 UNL     1     -23.286  31.181 -10.359  1.00  0.00     0.679 A 
ATOM     29  H6  UNL     1     -24.423  30.971  -8.668  1.00  0.00     0.186 HD
HETATM   30  N8  UNL     1     -22.384  31.952 -11.024  1.00  0.00    -0.175 N 
HETATM   31  C13 UNL     1     -21.962  33.095 -10.462  1.00  0.00     0.145 A 
ATOM     32  H8  UNL     1     -22.033  31.664 -11.937  1.00  0.00     0.186 HD
HETATM   33  N10 UNL     1     -21.985  34.672  -8.666  1.00  0.00    -0.351 N 
ATOM     34  H10 UNL     1     -21.308  35.254  -9.159  1.00  0.00     0.166 HD
BRANCH  28  35
HETATM   35  N7  UNL     1     -23.681  30.090 -10.907  1.00  0.00    -0.234 N 
ATOM     36  H72 UNL     1     -23.523  29.961 -11.907  1.00  0.00     0.174 HD
ATOM     37  H71 UNL     1     -24.145  29.364 -10.360  1.00  0.00     0.174 HD
ENDBRANCH  28  35
BRANCH  31  38
HETATM   38  N9  UNL     1     -21.113  33.821 -11.089  1.00  0.00    -0.383 N 
ATOM     39  H92 UNL     1     -20.348  33.358 -11.580  1.00  0.00     0.157 HD
ATOM     40  H91 UNL     1     -21.225  34.835 -11.081  1.00  0.00     0.157 HD
ENDBRANCH  31  38
ENDBRANCH  20  21
ENDBRANCH  19  20
BRANCH  19  41
HETATM   41  C15 UNL     1     -20.407  38.152  -6.808  1.00  0.00     0.158 C 
BRANCH  41  42
HETATM   42  C16 UNL     1     -21.410  38.846  -5.935  1.00  0.00     0.159 C 
BRANCH  42  43
HETATM   43  O4  UNL     1     -21.201  38.650  -4.585  1.00  0.00    -0.392 OA
ATOM     44  H4  UNL     1     -21.584  39.325  -4.038  1.00  0.00     0.210 HD
ENDBRANCH  42  43
BRANCH  42  45
HETATM   45  C17 UNL     1     -21.319  40.332  -6.241  1.00  0.00     0.197 C 
BRANCH  45  46
HETATM   46  O5  UNL     1     -20.110  40.794  -5.727  1.00  0.00    -0.398 OA
ATOM     47  H5  UNL     1     -19.811  41.501  -6.287  1.00  0.00     0.209 HD
ENDBRANCH  45  46
ENDBRANCH  42  45
ENDBRANCH  41  42
ENDBRANCH  19  41
ENDBRANCH   9  19
BRANCH  11  48
HETATM   48  O6  UNL     1     -19.530  36.020  -9.452  1.00  0.00    -0.355 OA
ATOM     49  H6  UNL     1     -20.402  36.394  -9.398  1.00  0.00     0.218 HD
ENDBRANCH  11  48
ENDBRANCH   2   5
TORSDOF 16
ENDMDL
