MODEL 1
REMARK VINA RESULT: -8.339383205      0.000      0.000
REMARK  16 active torsions:
REMARK  status: ('A' for Active; 'I' for Inactive)
REMARK    1  A    between atoms: C2_2  and  N1_3 
REMARK    2  A    between atoms: C2_2  and  C14_34 
REMARK    3  A    between atoms: C6_12  and  O1_13 
REMARK    4  A    between atoms: C7_15  and  C8_16 
REMARK    5  A    between atoms: C8_16  and  O2_17 
REMARK    6  A    between atoms: C8_16  and  N5_19 
REMARK    7  A    between atoms: N5_19  and  C9_21 
REMARK    8  A    between atoms: C9_21  and  O3_22 
REMARK    9  A    between atoms: C9_21  and  C10_24 
REMARK   10  A    between atoms: C12_26  and  C13_27 
REMARK       I    between atoms: C14_34  and  N8_36 
REMARK   11  A    between atoms: N8_36  and  C15_38 
REMARK   12  A    between atoms: C15_38  and  O6_39 
REMARK   13  A    between atoms: C15_38  and  C16_41 
REMARK   14  A    between atoms: C16_41  and  O7_42 
REMARK   15  A    between atoms: C16_41  and  C17_44 
REMARK   16  A    between atoms: C17_44  and  O8_46 
ROOT
HETATM    1  N1  UNL     1     -18.095  34.248  -7.760  1.00  0.00    -0.362 N 
ATOM      2  H1  UNL     1     -18.856  34.875  -7.497  1.00  0.00     0.162 HD
HETATM    3  C3  UNL     1     -17.384  33.876  -6.788  1.00  0.00     0.120 A 
HETATM    4  N2  UNL     1     -16.336  33.055  -6.910  1.00  0.00    -0.329 N 
ATOM      5  H2  UNL     1     -16.108  32.717  -7.845  1.00  0.00     0.168 HD
HETATM    6  C4  UNL     1     -15.558  32.642  -5.892  1.00  0.00     0.145 A 
HETATM    7  N3  UNL     1     -14.460  31.765  -6.128  1.00  0.00    -0.081 NA
HETATM    8  C5  UNL     1     -15.878  33.107  -4.642  1.00  0.00     0.121 A 
HETATM    9  N4  UNL     1     -15.095  32.707  -3.526  1.00  0.00    -0.096 NA
HETATM   10  C6  UNL     1     -16.973  33.974  -4.461  1.00  0.00     0.111 A 
HETATM   11  C7  UNL     1     -17.749  34.381  -5.514  1.00  0.00     0.093 A 
ENDROOT
BRANCH   1  12
HETATM   12  C2  UNL     1     -18.043  33.966  -9.140  1.00  0.00     0.171 C 
HETATM   13  C1  UNL     1     -19.346  33.819  -9.851  1.00  0.00     0.042 C 
BRANCH  12  14
HETATM   14  C14 UNL     1     -17.154  34.926  -9.917  1.00  0.00     0.246 C 
HETATM   15  O5  UNL     1     -16.146  34.475 -10.477  1.00  0.00    -0.271 OA
HETATM   16  N8  UNL     1     -17.550  36.250  -9.938  1.00  0.00    -0.304 N 
ATOM     17  H8  UNL     1     -18.405  36.450  -9.420  1.00  0.00     0.171 HD
BRANCH  16  18
HETATM   18  C15 UNL     1     -16.974  37.344 -10.547  1.00  0.00     0.180 C 
BRANCH  18  19
HETATM   19  O6  UNL     1     -15.689  37.229 -10.819  1.00  0.00    -0.344 OA
ATOM     20  H6  UNL     1     -15.472  37.166 -11.742  1.00  0.00     0.219 HD
ENDBRANCH  18  19
BRANCH  18  21
HETATM   21  C16 UNL     1     -17.529  38.591 -10.939  1.00  0.00     0.165 C 
BRANCH  21  22
HETATM   22  O7  UNL     1     -18.808  39.014 -10.665  1.00  0.00    -0.354 OA
ATOM     23  H7  UNL     1     -19.042  39.862 -10.306  1.00  0.00     0.218 HD
ENDBRANCH  21  22
BRANCH  21  24
HETATM   24  C17 UNL     1     -16.773  39.460 -11.638  1.00  0.00     0.187 C 
HETATM   25  N9  UNL     1     -16.079  40.500 -10.962  1.00  0.00    -0.072 NA
BRANCH  24  26
HETATM   26  O8  UNL     1     -16.624  39.404 -13.014  1.00  0.00    -0.346 OA
ATOM     27  H8  UNL     1     -15.933  39.857 -13.483  1.00  0.00     0.219 HD
ENDBRANCH  24  26
ENDBRANCH  21  24
ENDBRANCH  18  21
ENDBRANCH  16  18
ENDBRANCH  12  14
ENDBRANCH   1  12
BRANCH  11  28
HETATM   28  C8  UNL     1     -18.891  35.273  -5.410  1.00  0.00     0.155 C 
BRANCH  28  29
HETATM   29  O2  UNL     1     -19.994  34.776  -4.918  1.00  0.00    -0.345 OA
ATOM     30  H2  UNL     1     -20.770  35.321  -4.957  1.00  0.00     0.219 HD
ENDBRANCH  28  29
BRANCH  28  31
HETATM   31  N5  UNL     1     -18.897  36.615  -5.797  1.00  0.00    -0.339 N 
ATOM     32  H5  UNL     1     -18.217  37.278  -5.424  1.00  0.00     0.164 HD
BRANCH  31  33
HETATM   33  C9  UNL     1     -19.936  37.038  -6.775  1.00  0.00     0.272 C 
BRANCH  33  34
HETATM   34  O3  UNL     1     -19.299  37.636  -7.869  1.00  0.00    -0.371 OA
ATOM     35  H3  UNL     1     -19.962  38.017  -8.433  1.00  0.00     0.212 HD
ENDBRANCH  33  34
BRANCH  33  36
HETATM   36  C10 UNL     1     -20.870  37.981  -6.111  1.00  0.00     0.083 A 
HETATM   37  C11 UNL     1     -22.120  37.750  -5.580  1.00  0.00     0.072 A 
HETATM   38  C12 UNL     1     -22.585  38.952  -5.078  1.00  0.00     0.115 A 
HETATM   39  O4  UNL     1     -21.654  39.834  -5.306  1.00  0.00    -0.236 OA
HETATM   40  N7  UNL     1     -20.625  39.292  -5.917  1.00  0.00    -0.260 N 
ATOM     41  H7  UNL     1     -19.776  39.784  -6.199  1.00  0.00     0.194 HD
BRANCH  38  42
HETATM   42  C13 UNL     1     -23.877  39.165  -4.422  1.00  0.00     0.120 C 
HETATM   43  N6  UNL     1     -24.118  38.494  -3.347  1.00  0.00    -0.406 N 
ATOM     44  H62 UNL     1     -23.424  37.842  -2.980  1.00  0.00     0.155 HD
ATOM     45  H61 UNL     1     -25.018  38.642  -2.890  1.00  0.00     0.155 HD
ENDBRANCH  38  42
ENDBRANCH  33  36
ENDBRANCH  31  33
ENDBRANCH  28  31
ENDBRANCH  11  28
BRANCH  10  46
HETATM   46  O1  UNL     1     -17.228  34.396  -3.176  1.00  0.00    -0.358 OA
ATOM     47  H1  UNL     1     -17.707  35.211  -3.078  1.00  0.00     0.217 HD
ENDBRANCH  10  46
TORSDOF 16
ENDMDL
MODEL 2
REMARK VINA RESULT: -8.282981380      2.601      6.801
REMARK  16 active torsions:
REMARK  status: ('A' for Active; 'I' for Inactive)
REMARK    1  A    between atoms: C2_2  and  N1_3 
REMARK    2  A    between atoms: C2_2  and  C14_34 
REMARK    3  A    between atoms: C6_12  and  O1_13 
REMARK    4  A    between atoms: C7_15  and  C8_16 
REMARK    5  A    between atoms: C8_16  and  O2_17 
REMARK    6  A    between atoms: C8_16  and  N5_19 
REMARK    7  A    between atoms: N5_19  and  C9_21 
REMARK    8  A    between atoms: C9_21  and  O3_22 
REMARK    9  A    between atoms: C9_21  and  C10_24 
REMARK   10  A    between atoms: C12_26  and  C13_27 
REMARK       I    between atoms: C14_34  and  N8_36 
REMARK   11  A    between atoms: N8_36  and  C15_38 
REMARK   12  A    between atoms: C15_38  and  O6_39 
REMARK   13  A    between atoms: C15_38  and  C16_41 
REMARK   14  A    between atoms: C16_41  and  O7_42 
REMARK   15  A    between atoms: C16_41  and  C17_44 
REMARK   16  A    between atoms: C17_44  and  O8_46 
ROOT
HETATM    1  N1  UNL     1     -17.309  33.923  -8.079  1.00  0.00    -0.362 N 
ATOM      2  H1  UNL     1     -16.621  33.198  -7.875  1.00  0.00     0.162 HD
HETATM    3  C3  UNL     1     -17.781  34.478  -7.051  1.00  0.00     0.120 A 
HETATM    4  N2  UNL     1     -18.696  35.452  -7.091  1.00  0.00    -0.329 N 
ATOM      5  H2  UNL     1     -19.023  35.755  -8.008  1.00  0.00     0.168 HD
HETATM    6  C4  UNL     1     -19.220  36.062  -6.011  1.00  0.00     0.145 A 
HETATM    7  N3  UNL     1     -20.194  37.092  -6.161  1.00  0.00    -0.081 NA
HETATM    8  C5  UNL     1     -18.770  35.642  -4.785  1.00  0.00     0.121 A 
HETATM    9  N4  UNL     1     -19.284  36.248  -3.607  1.00  0.00    -0.096 NA
HETATM   10  C6  UNL     1     -17.806  34.619  -4.690  1.00  0.00     0.111 A 
HETATM   11  C7  UNL     1     -17.290  34.013  -5.805  1.00  0.00     0.093 A 
ENDROOT
BRANCH   1  12
HETATM   12  C2  UNL     1     -17.548  34.108  -9.455  1.00  0.00     0.171 C 
HETATM   13  C1  UNL     1     -18.956  34.378  -9.868  1.00  0.00     0.042 C 
BRANCH  12  14
HETATM   14  C14 UNL     1     -16.634  35.145 -10.090  1.00  0.00     0.246 C 
HETATM   15  O5  UNL     1     -15.505  34.791 -10.456  1.00  0.00    -0.271 OA
HETATM   16  N8  UNL     1     -17.144  36.423 -10.213  1.00  0.00    -0.304 N 
ATOM     17  H8  UNL     1     -18.092  36.542  -9.856  1.00  0.00     0.171 HD
BRANCH  16  18
HETATM   18  C15 UNL     1     -16.578  37.564 -10.740  1.00  0.00     0.180 C 
BRANCH  18  19
HETATM   19  O6  UNL     1     -15.265  37.539 -10.863  1.00  0.00    -0.344 OA
ATOM     20  H6  UNL     1     -14.834  38.383 -10.802  1.00  0.00     0.219 HD
ENDBRANCH  18  19
BRANCH  18  21
HETATM   21  C16 UNL     1     -17.168  38.778 -11.181  1.00  0.00     0.165 C 
BRANCH  21  22
HETATM   22  O7  UNL     1     -18.509  39.075 -11.132  1.00  0.00    -0.354 OA
ATOM     23  H7  UNL     1     -18.882  39.879 -10.789  1.00  0.00     0.218 HD
ENDBRANCH  21  22
BRANCH  21  24
HETATM   24  C17 UNL     1     -16.383  39.745 -11.696  1.00  0.00     0.187 C 
HETATM   25  N9  UNL     1     -15.911  40.795 -10.862  1.00  0.00    -0.072 NA
BRANCH  24  26
HETATM   26  O8  UNL     1     -15.995  39.783 -13.025  1.00  0.00    -0.346 OA
ATOM     27  H8  UNL     1     -16.143  40.531 -13.591  1.00  0.00     0.219 HD
ENDBRANCH  24  26
ENDBRANCH  21  24
ENDBRANCH  18  21
ENDBRANCH  16  18
ENDBRANCH  12  14
ENDBRANCH   1  12
BRANCH  11  28
HETATM   28  C8  UNL     1     -16.297  32.952  -5.790  1.00  0.00     0.155 C 
BRANCH  28  29
HETATM   29  O2  UNL     1     -16.258  32.157  -6.825  1.00  0.00    -0.345 OA
ATOM     30  H2  UNL     1     -16.926  31.483  -6.880  1.00  0.00     0.219 HD
ENDBRANCH  28  29
BRANCH  28  31
HETATM   31  N5  UNL     1     -15.387  32.720  -4.756  1.00  0.00    -0.339 N 
ATOM     32  H5  UNL     1     -15.518  33.131  -3.831  1.00  0.00     0.164 HD
BRANCH  31  33
HETATM   33  C9  UNL     1     -14.219  31.850  -5.060  1.00  0.00     0.272 C 
BRANCH  33  34
HETATM   34  O3  UNL     1     -14.687  30.563  -5.352  1.00  0.00    -0.371 OA
ATOM     35  H3  UNL     1     -14.236  29.943  -4.790  1.00  0.00     0.212 HD
ENDBRANCH  33  34
BRANCH  33  36
HETATM   36  C10 UNL     1     -13.307  31.840  -3.889  1.00  0.00     0.083 A 
HETATM   37  C11 UNL     1     -12.025  31.345  -3.779  1.00  0.00     0.072 A 
HETATM   38  C12 UNL     1     -11.603  31.573  -2.482  1.00  0.00     0.115 A 
HETATM   39  O4  UNL     1     -12.587  32.169  -1.872  1.00  0.00    -0.236 OA
HETATM   40  N7  UNL     1     -13.611  32.341  -2.676  1.00  0.00    -0.260 N 
ATOM     41  H7  UNL     1     -14.495  32.784  -2.423  1.00  0.00     0.194 HD
BRANCH  38  42
HETATM   42  C13 UNL     1     -10.298  31.207  -1.929  1.00  0.00     0.120 C 
HETATM   43  N6  UNL     1      -9.979  29.956  -1.930  1.00  0.00    -0.406 N 
ATOM     44  H62 UNL     1     -10.624  29.261  -2.306  1.00  0.00     0.155 HD
ATOM     45  H61 UNL     1      -9.070  29.701  -1.544  1.00  0.00     0.155 HD
ENDBRANCH  38  42
ENDBRANCH  33  36
ENDBRANCH  31  33
ENDBRANCH  28  31
ENDBRANCH  11  28
BRANCH  10  46
HETATM   46  O1  UNL     1     -17.407  34.255  -3.425  1.00  0.00    -0.358 OA
ATOM     47  H1  UNL     1     -16.722  33.599  -3.361  1.00  0.00     0.217 HD
ENDBRANCH  10  46
TORSDOF 16
ENDMDL
MODEL 3
REMARK VINA RESULT: -8.234882029      0.906      1.024
REMARK  16 active torsions:
REMARK  status: ('A' for Active; 'I' for Inactive)
REMARK    1  A    between atoms: C2_2  and  N1_3 
REMARK    2  A    between atoms: C2_2  and  C14_34 
REMARK    3  A    between atoms: C6_12  and  O1_13 
REMARK    4  A    between atoms: C7_15  and  C8_16 
REMARK    5  A    between atoms: C8_16  and  O2_17 
REMARK    6  A    between atoms: C8_16  and  N5_19 
REMARK    7  A    between atoms: N5_19  and  C9_21 
REMARK    8  A    between atoms: C9_21  and  O3_22 
REMARK    9  A    between atoms: C9_21  and  C10_24 
REMARK   10  A    between atoms: C12_26  and  C13_27 
REMARK       I    between atoms: C14_34  and  N8_36 
REMARK   11  A    between atoms: N8_36  and  C15_38 
REMARK   12  A    between atoms: C15_38  and  O6_39 
REMARK   13  A    between atoms: C15_38  and  C16_41 
REMARK   14  A    between atoms: C16_41  and  O7_42 
REMARK   15  A    between atoms: C16_41  and  C17_44 
REMARK   16  A    between atoms: C17_44  and  O8_46 
ROOT
HETATM    1  N1  UNL     1     -18.083  34.353  -7.675  1.00  0.00    -0.362 N 
ATOM      2  H1  UNL     1     -18.847  34.971  -7.397  1.00  0.00     0.162 HD
HETATM    3  C3  UNL     1     -17.368  33.964  -6.712  1.00  0.00     0.120 A 
HETATM    4  N2  UNL     1     -16.317  33.151  -6.854  1.00  0.00    -0.329 N 
ATOM      5  H2  UNL     1     -16.090  32.833  -7.796  1.00  0.00     0.168 HD
HETATM    6  C4  UNL     1     -15.535  32.721  -5.846  1.00  0.00     0.145 A 
HETATM    7  N3  UNL     1     -14.433  31.854  -6.102  1.00  0.00    -0.081 NA
HETATM    8  C5  UNL     1     -15.854  33.160  -4.586  1.00  0.00     0.121 A 
HETATM    9  N4  UNL     1     -15.066  32.741  -3.480  1.00  0.00    -0.096 NA
HETATM   10  C6  UNL     1     -16.952  34.018  -4.384  1.00  0.00     0.111 A 
HETATM   11  C7  UNL     1     -17.733  34.442  -5.428  1.00  0.00     0.093 A 
ENDROOT
BRANCH   1  12
HETATM   12  C2  UNL     1     -18.033  34.099  -9.060  1.00  0.00     0.171 C 
HETATM   13  C1  UNL     1     -19.337  33.981  -9.775  1.00  0.00     0.042 C 
BRANCH  12  14
HETATM   14  C14 UNL     1     -17.134  35.066  -9.817  1.00  0.00     0.246 C 
HETATM   15  O5  UNL     1     -16.000  34.687 -10.139  1.00  0.00    -0.271 OA
HETATM   16  N8  UNL     1     -17.664  36.313 -10.091  1.00  0.00    -0.304 N 
ATOM     17  H8  UNL     1     -18.613  36.459  -9.749  1.00  0.00     0.171 HD
BRANCH  16  18
HETATM   18  C15 UNL     1     -17.114  37.389 -10.752  1.00  0.00     0.180 C 
BRANCH  18  19
HETATM   19  O6  UNL     1     -15.799  37.469 -10.709  1.00  0.00    -0.344 OA
ATOM     20  H6  UNL     1     -15.424  38.241 -11.117  1.00  0.00     0.219 HD
ENDBRANCH  18  19
BRANCH  18  21
HETATM   21  C16 UNL     1     -17.724  38.444 -11.483  1.00  0.00     0.165 C 
BRANCH  21  22
HETATM   22  O7  UNL     1     -17.840  38.500 -12.852  1.00  0.00    -0.354 OA
ATOM     23  H7  UNL     1     -18.579  38.861 -13.326  1.00  0.00     0.218 HD
ENDBRANCH  21  22
BRANCH  21  24
HETATM   24  C17 UNL     1     -18.244  39.494 -10.818  1.00  0.00     0.187 C 
HETATM   25  N9  UNL     1     -19.341  39.302  -9.935  1.00  0.00    -0.072 NA
BRANCH  24  26
HETATM   26  O8  UNL     1     -17.764  40.787 -10.943  1.00  0.00    -0.346 OA
ATOM     27  H8  UNL     1     -16.950  41.082 -10.552  1.00  0.00     0.219 HD
ENDBRANCH  24  26
ENDBRANCH  21  24
ENDBRANCH  18  21
ENDBRANCH  16  18
ENDBRANCH  12  14
ENDBRANCH   1  12
BRANCH  11  28
HETATM   28  C8  UNL     1     -18.879  35.327  -5.303  1.00  0.00     0.155 C 
BRANCH  28  29
HETATM   29  O2  UNL     1     -19.983  34.810  -4.836  1.00  0.00    -0.345 OA
ATOM     30  H2  UNL     1     -20.531  35.370  -4.299  1.00  0.00     0.219 HD
ENDBRANCH  28  29
BRANCH  28  31
HETATM   31  N5  UNL     1     -18.886  36.681  -5.645  1.00  0.00    -0.339 N 
ATOM     32  H5  UNL     1     -18.263  37.347  -5.188  1.00  0.00     0.164 HD
BRANCH  31  33
HETATM   33  C9  UNL     1     -19.840  37.111  -6.703  1.00  0.00     0.272 C 
BRANCH  33  34
HETATM   34  O3  UNL     1     -19.111  37.435  -7.854  1.00  0.00    -0.371 OA
ATOM     35  H3  UNL     1     -18.415  36.796  -7.961  1.00  0.00     0.212 HD
ENDBRANCH  33  34
BRANCH  33  36
HETATM   36  C10 UNL     1     -20.616  38.276  -6.210  1.00  0.00     0.083 A 
HETATM   37  C11 UNL     1     -21.917  38.336  -5.758  1.00  0.00     0.072 A 
HETATM   38  C12 UNL     1     -22.175  39.650  -5.414  1.00  0.00     0.115 A 
HETATM   39  O4  UNL     1     -21.083  40.317  -5.654  1.00  0.00    -0.236 OA
HETATM   40  N7  UNL     1     -20.140  39.533  -6.126  1.00  0.00    -0.260 N 
ATOM     41  H7  UNL     1     -19.199  39.829  -6.387  1.00  0.00     0.194 HD
BRANCH  38  42
HETATM   42  C13 UNL     1     -23.440  40.165  -4.885  1.00  0.00     0.120 C 
HETATM   43  N6  UNL     1     -24.016  39.486  -3.951  1.00  0.00    -0.406 N 
ATOM     44  H62 UNL     1     -23.593  38.625  -3.604  1.00  0.00     0.155 HD
ATOM     45  H61 UNL     1     -24.897  39.845  -3.583  1.00  0.00     0.155 HD
ENDBRANCH  38  42
ENDBRANCH  33  36
ENDBRANCH  31  33
ENDBRANCH  28  31
ENDBRANCH  11  28
BRANCH  10  46
HETATM   46  O1  UNL     1     -17.206  34.412  -3.091  1.00  0.00    -0.358 OA
ATOM     47  H1  UNL     1     -17.874  33.930  -2.618  1.00  0.00     0.217 HD
ENDBRANCH  10  46
TORSDOF 16
ENDMDL
MODEL 4
REMARK VINA RESULT: -8.196154169      2.658      6.889
REMARK  16 active torsions:
REMARK  status: ('A' for Active; 'I' for Inactive)
REMARK    1  A    between atoms: C2_2  and  N1_3 
REMARK    2  A    between atoms: C2_2  and  C14_34 
REMARK    3  A    between atoms: C6_12  and  O1_13 
REMARK    4  A    between atoms: C7_15  and  C8_16 
REMARK    5  A    between atoms: C8_16  and  O2_17 
REMARK    6  A    between atoms: C8_16  and  N5_19 
REMARK    7  A    between atoms: N5_19  and  C9_21 
REMARK    8  A    between atoms: C9_21  and  O3_22 
REMARK    9  A    between atoms: C9_21  and  C10_24 
REMARK   10  A    between atoms: C12_26  and  C13_27 
REMARK       I    between atoms: C14_34  and  N8_36 
REMARK   11  A    between atoms: N8_36  and  C15_38 
REMARK   12  A    between atoms: C15_38  and  O6_39 
REMARK   13  A    between atoms: C15_38  and  C16_41 
REMARK   14  A    between atoms: C16_41  and  O7_42 
REMARK   15  A    between atoms: C16_41  and  C17_44 
REMARK   16  A    between atoms: C17_44  and  O8_46 
ROOT
HETATM    1  N1  UNL     1     -17.226  33.653  -7.434  1.00  0.00    -0.362 N 
ATOM      2  H1  UNL     1     -16.509  33.007  -7.103  1.00  0.00     0.162 HD
HETATM    3  C3  UNL     1     -17.758  34.334  -6.516  1.00  0.00     0.120 A 
HETATM    4  N2  UNL     1     -18.719  35.239  -6.730  1.00  0.00    -0.329 N 
ATOM      5  H2  UNL     1     -19.029  35.379  -7.691  1.00  0.00     0.168 HD
HETATM    6  C4  UNL     1     -19.307  35.980  -5.772  1.00  0.00     0.145 A 
HETATM    7  N3  UNL     1     -20.325  36.920  -6.104  1.00  0.00    -0.081 NA
HETATM    8  C5  UNL     1     -18.877  35.778  -4.485  1.00  0.00     0.121 A 
HETATM    9  N4  UNL     1     -19.459  36.529  -3.428  1.00  0.00    -0.096 NA
HETATM   10  C6  UNL     1     -17.868  34.835  -4.207  1.00  0.00     0.111 A 
HETATM   11  C7  UNL     1     -17.286  34.093  -5.201  1.00  0.00     0.093 A 
ENDROOT
BRANCH   1  12
HETATM   12  C2  UNL     1     -17.428  33.612  -8.827  1.00  0.00     0.171 C 
HETATM   13  C1  UNL     1     -18.832  33.445  -9.304  1.00  0.00     0.042 C 
BRANCH  12  14
HETATM   14  C14 UNL     1     -16.785  34.777  -9.564  1.00  0.00     0.246 C 
HETATM   15  O5  UNL     1     -15.572  34.726  -9.805  1.00  0.00    -0.271 OA
HETATM   16  N8  UNL     1     -17.622  35.821  -9.913  1.00  0.00    -0.304 N 
ATOM     17  H8  UNL     1     -18.595  35.702  -9.633  1.00  0.00     0.171 HD
BRANCH  16  18
HETATM   18  C15 UNL     1     -17.351  36.997 -10.579  1.00  0.00     0.180 C 
BRANCH  18  19
HETATM   19  O6  UNL     1     -16.072  37.277 -10.735  1.00  0.00    -0.344 OA
ATOM     20  H6  UNL     1     -15.723  37.118 -11.604  1.00  0.00     0.219 HD
ENDBRANCH  18  19
BRANCH  18  21
HETATM   21  C16 UNL     1     -18.219  37.974 -11.135  1.00  0.00     0.165 C 
BRANCH  21  22
HETATM   22  O7  UNL     1     -19.592  37.902 -11.148  1.00  0.00    -0.354 OA
ATOM     23  H7  UNL     1     -20.164  38.416 -11.705  1.00  0.00     0.218 HD
ENDBRANCH  21  22
BRANCH  21  24
HETATM   24  C17 UNL     1     -17.695  39.076 -11.706  1.00  0.00     0.187 C 
HETATM   25  N9  UNL     1     -17.556  40.269 -10.946  1.00  0.00    -0.072 NA
BRANCH  24  26
HETATM   26  O8  UNL     1     -17.271  39.122 -13.023  1.00  0.00    -0.346 OA
ATOM     27  H8  UNL     1     -16.462  38.725 -13.325  1.00  0.00     0.219 HD
ENDBRANCH  24  26
ENDBRANCH  21  24
ENDBRANCH  18  21
ENDBRANCH  16  18
ENDBRANCH  12  14
ENDBRANCH   1  12
BRANCH  11  28
HETATM   28  C8  UNL     1     -16.243  33.102  -4.997  1.00  0.00     0.155 C 
BRANCH  28  29
HETATM   29  O2  UNL     1     -16.499  31.879  -5.377  1.00  0.00    -0.345 OA
ATOM     30  H2  UNL     1     -16.800  31.273  -4.711  1.00  0.00     0.219 HD
ENDBRANCH  28  29
BRANCH  28  31
HETATM   31  N5  UNL     1     -14.994  33.359  -4.428  1.00  0.00    -0.339 N 
ATOM     32  H5  UNL     1     -14.908  33.818  -3.520  1.00  0.00     0.164 HD
BRANCH  31  33
HETATM   33  C9  UNL     1     -13.794  32.937  -5.200  1.00  0.00     0.272 C 
BRANCH  33  34
HETATM   34  O3  UNL     1     -14.184  32.666  -6.516  1.00  0.00    -0.371 OA
ATOM     35  H3  UNL     1     -13.624  31.980  -6.863  1.00  0.00     0.212 HD
ENDBRANCH  33  34
BRANCH  33  36
HETATM   36  C10 UNL     1     -13.202  31.738  -4.555  1.00  0.00     0.083 A 
HETATM   37  C11 UNL     1     -11.988  31.593  -3.919  1.00  0.00     0.072 A 
HETATM   38  C12 UNL     1     -11.900  30.281  -3.490  1.00  0.00     0.115 A 
HETATM   39  O4  UNL     1     -13.003  29.696  -3.858  1.00  0.00    -0.236 OA
HETATM   40  N7  UNL     1     -13.796  30.530  -4.491  1.00  0.00    -0.260 N 
ATOM     41  H7  UNL     1     -14.714  30.301  -4.873  1.00  0.00     0.194 HD
BRANCH  38  42
HETATM   42  C13 UNL     1     -10.772  29.690  -2.765  1.00  0.00     0.120 C 
HETATM   43  N6  UNL     1     -10.836  28.432  -2.487  1.00  0.00    -0.406 N 
ATOM     44  H62 UNL     1     -11.648  27.882  -2.769  1.00  0.00     0.155 HD
ATOM     45  H61 UNL     1     -10.051  28.020  -1.982  1.00  0.00     0.155 HD
ENDBRANCH  38  42
ENDBRANCH  33  36
ENDBRANCH  31  33
ENDBRANCH  28  31
ENDBRANCH  11  28
BRANCH  10  46
HETATM   46  O1  UNL     1     -17.494  34.692  -2.891  1.00  0.00    -0.358 OA
ATOM     47  H1  UNL     1     -17.610  33.833  -2.502  1.00  0.00     0.217 HD
ENDBRANCH  10  46
TORSDOF 16
ENDMDL
MODEL 5
REMARK VINA RESULT: -8.142664435      1.639      2.146
REMARK  16 active torsions:
REMARK  status: ('A' for Active; 'I' for Inactive)
REMARK    1  A    between atoms: C2_2  and  N1_3 
REMARK    2  A    between atoms: C2_2  and  C14_34 
REMARK    3  A    between atoms: C6_12  and  O1_13 
REMARK    4  A    between atoms: C7_15  and  C8_16 
REMARK    5  A    between atoms: C8_16  and  O2_17 
REMARK    6  A    between atoms: C8_16  and  N5_19 
REMARK    7  A    between atoms: N5_19  and  C9_21 
REMARK    8  A    between atoms: C9_21  and  O3_22 
REMARK    9  A    between atoms: C9_21  and  C10_24 
REMARK   10  A    between atoms: C12_26  and  C13_27 
REMARK       I    between atoms: C14_34  and  N8_36 
REMARK   11  A    between atoms: N8_36  and  C15_38 
REMARK   12  A    between atoms: C15_38  and  O6_39 
REMARK   13  A    between atoms: C15_38  and  C16_41 
REMARK   14  A    between atoms: C16_41  and  O7_42 
REMARK   15  A    between atoms: C16_41  and  C17_44 
REMARK   16  A    between atoms: C17_44  and  O8_46 
ROOT
HETATM    1  N1  UNL     1     -18.081  33.949  -7.767  1.00  0.00    -0.362 N 
ATOM      2  H1  UNL     1     -18.846  34.579  -7.523  1.00  0.00     0.162 HD
HETATM    3  C3  UNL     1     -17.343  33.646  -6.791  1.00  0.00     0.120 A 
HETATM    4  N2  UNL     1     -16.284  32.835  -6.889  1.00  0.00    -0.329 N 
ATOM      5  H2  UNL     1     -16.072  32.445  -7.807  1.00  0.00     0.168 HD
HETATM    6  C4  UNL     1     -15.477  32.495  -5.866  1.00  0.00     0.145 A 
HETATM    7  N3  UNL     1     -14.371  31.622  -6.075  1.00  0.00    -0.081 NA
HETATM    8  C5  UNL     1     -15.777  33.029  -4.639  1.00  0.00     0.121 A 
HETATM    9  N4  UNL     1     -14.963  32.708  -3.520  1.00  0.00    -0.096 NA
HETATM   10  C6  UNL     1     -16.882  33.889  -4.484  1.00  0.00     0.111 A 
HETATM   11  C7  UNL     1     -17.688  34.220  -5.542  1.00  0.00     0.093 A 
ENDROOT
BRANCH   1  12
HETATM   12  C2  UNL     1     -18.055  33.587  -9.128  1.00  0.00     0.171 C 
HETATM   13  C1  UNL     1     -19.364  33.278  -9.773  1.00  0.00     0.042 C 
BRANCH  12  14
HETATM   14  C14 UNL     1     -17.289  34.571  -9.999  1.00  0.00     0.246 C 
HETATM   15  O5  UNL     1     -16.367  34.142 -10.705  1.00  0.00    -0.271 OA
HETATM   16  N8  UNL     1     -17.690  35.892  -9.932  1.00  0.00    -0.304 N 
ATOM     17  H8  UNL     1     -18.465  36.073  -9.295  1.00  0.00     0.171 HD
BRANCH  16  18
HETATM   18  C15 UNL     1     -17.210  37.004 -10.590  1.00  0.00     0.180 C 
BRANCH  18  19
HETATM   19  O6  UNL     1     -15.899  37.063 -10.720  1.00  0.00    -0.344 OA
ATOM     20  H6  UNL     1     -15.508  36.363 -11.230  1.00  0.00     0.219 HD
ENDBRANCH  18  19
BRANCH  18  21
HETATM   21  C16 UNL     1     -17.889  38.114 -11.160  1.00  0.00     0.165 C 
BRANCH  21  22
HETATM   22  O7  UNL     1     -19.234  38.167 -11.437  1.00  0.00    -0.354 OA
ATOM     23  H7  UNL     1     -19.633  38.683 -12.127  1.00  0.00     0.218 HD
ENDBRANCH  21  22
BRANCH  21  24
HETATM   24  C17 UNL     1     -17.193  39.226 -11.469  1.00  0.00     0.187 C 
HETATM   25  N9  UNL     1     -17.390  40.417 -10.719  1.00  0.00    -0.072 NA
BRANCH  24  26
HETATM   26  O8  UNL     1     -16.272  39.285 -12.501  1.00  0.00    -0.346 OA
ATOM     27  H8  UNL     1     -15.332  39.312 -12.361  1.00  0.00     0.219 HD
ENDBRANCH  24  26
ENDBRANCH  21  24
ENDBRANCH  18  21
ENDBRANCH  16  18
ENDBRANCH  12  14
ENDBRANCH   1  12
BRANCH  11  28
HETATM   28  C8  UNL     1     -18.842  35.100  -5.464  1.00  0.00     0.155 C 
BRANCH  28  29
HETATM   29  O2  UNL     1     -19.820  34.734  -4.680  1.00  0.00    -0.345 OA
ATOM     30  H2  UNL     1     -20.542  35.342  -4.575  1.00  0.00     0.219 HD
ENDBRANCH  28  29
BRANCH  28  31
HETATM   31  N5  UNL     1     -18.981  36.301  -6.163  1.00  0.00    -0.339 N 
ATOM     32  H5  UNL     1     -18.182  36.911  -6.337  1.00  0.00     0.164 HD
BRANCH  31  33
HETATM   33  C9  UNL     1     -20.345  36.655  -6.643  1.00  0.00     0.272 C 
BRANCH  33  34
HETATM   34  O3  UNL     1     -20.730  35.724  -7.615  1.00  0.00    -0.371 OA
ATOM     35  H3  UNL     1     -21.654  35.845  -7.800  1.00  0.00     0.212 HD
ENDBRANCH  33  34
BRANCH  33  36
HETATM   36  C10 UNL     1     -20.321  38.032  -7.195  1.00  0.00     0.083 A 
HETATM   37  C11 UNL     1     -20.909  38.531  -8.337  1.00  0.00     0.072 A 
HETATM   38  C12 UNL     1     -20.590  39.874  -8.415  1.00  0.00     0.115 A 
HETATM   39  O4  UNL     1     -19.855  40.141  -7.374  1.00  0.00    -0.236 OA
HETATM   40  N7  UNL     1     -19.676  39.073  -6.631  1.00  0.00    -0.260 N 
ATOM     41  H7  UNL     1     -19.137  39.036  -5.766  1.00  0.00     0.194 HD
BRANCH  38  42
HETATM   42  C13 UNL     1     -21.009  40.795  -9.474  1.00  0.00     0.120 C 
HETATM   43  N6  UNL     1     -20.360  40.758 -10.588  1.00  0.00    -0.406 N 
ATOM     44  H62 UNL     1     -19.585  40.106 -10.712  1.00  0.00     0.155 HD
ATOM     45  H61 UNL     1     -20.652  41.399 -11.326  1.00  0.00     0.155 HD
ENDBRANCH  38  42
ENDBRANCH  33  36
ENDBRANCH  31  33
ENDBRANCH  28  31
ENDBRANCH  11  28
BRANCH  10  46
HETATM   46  O1  UNL     1     -17.115  34.383  -3.221  1.00  0.00    -0.358 OA
ATOM     47  H1  UNL     1     -17.987  34.715  -3.043  1.00  0.00     0.217 HD
ENDBRANCH  10  46
TORSDOF 16
ENDMDL
