MODEL 1
REMARK VINA RESULT: -6.205410830      0.000      0.000
REMARK  14 active torsions:
REMARK  status: ('A' for Active; 'I' for Inactive)
REMARK       I    between atoms: C2_2  and  N1_4 
REMARK    1  A    between atoms: N1_4  and  C3_6 
REMARK    2  A    between atoms: C4_7  and  O2_8 
REMARK    3  A    between atoms: C5_10  and  N2_11 
REMARK    4  A    between atoms: N2_11  and  C6_12 
REMARK    5  A    between atoms: N2_11  and  C7_14 
REMARK       I    between atoms: N3_15  and  C8_17 
REMARK       I    between atoms: C8_17  and  N4_18 
REMARK       I    between atoms: C8_17  and  N5_22 
REMARK    6  A    between atoms: C10_27  and  O4_28 
REMARK    7  A    between atoms: C11_30  and  N6_31 
REMARK       I    between atoms: N6_31  and  C12_33 
REMARK    8  A    between atoms: N7_36  and  C14_37 
REMARK    9  A    between atoms: C14_37  and  O6_38 
REMARK   10  A    between atoms: C14_37  and  C15_40 
REMARK   11  A    between atoms: C15_40  and  N8_41 
REMARK   12  A    between atoms: C15_40  and  C16_45 
REMARK   13  A    between atoms: C16_45  and  O7_46 
REMARK   14  A    between atoms: C18_49  and  O8_50 
ROOT
HETATM    1  C3  UNL     1     -17.174  32.974  -6.610  1.00  0.00     0.106 A 
HETATM    2  C4  UNL     1     -17.565  32.503  -7.824  1.00  0.00     0.124 A 
HETATM    3  C5  UNL     1     -18.462  33.202  -8.628  1.00  0.00     0.093 A 
HETATM    4  C9  UNL     1     -18.980  34.398  -8.206  1.00  0.00     0.061 A 
HETATM    5  C10 UNL     1     -19.863  35.304  -8.761  1.00  0.00     0.125 A 
HETATM    6  C11 UNL     1     -20.026  36.365  -7.870  1.00  0.00     0.147 A 
HETATM    7  N7  UNL     1     -19.255  36.101  -6.798  1.00  0.00    -0.298 N 
HETATM    8  C17 UNL     1     -18.603  34.927  -6.952  1.00  0.00     0.089 A 
HETATM    9  C18 UNL     1     -17.716  34.198  -6.200  1.00  0.00     0.123 A 
ENDROOT
BRANCH   3  10
HETATM   10  N2  UNL     1     -18.828  32.647  -9.890  1.00  0.00    -0.282 N 
BRANCH  10  11
HETATM   11  C6  UNL     1     -17.956  32.885 -10.957  1.00  0.00     0.361 C 
HETATM   12  O3  UNL     1     -17.050  32.055 -11.315  1.00  0.00    -0.283 OA
ENDBRANCH  10  11
BRANCH  10  13
HETATM   13  C7  UNL     1     -20.035  31.932 -10.069  1.00  0.00     0.189 C 
HETATM   14  N3  UNL     1     -20.856  31.992 -10.967  1.00  0.00    -0.337 N 
HETATM   15  C8  UNL     1     -21.252  32.554 -12.153  1.00  0.00     0.481 C 
ATOM     16  H3  UNL     1     -21.579  31.315 -10.727  1.00  0.00     0.164 HD
HETATM   17  N4  UNL     1     -21.906  33.858 -12.049  1.00  0.00    -0.033 N 
HETATM   18  N5  UNL     1     -22.294  31.683 -12.761  1.00  0.00    -0.033 N 
ATOM     19  H43 UNL     1     -22.699  33.800 -11.409  1.00  0.00     0.278 HD
ATOM     20  H42 UNL     1     -21.308  34.508 -11.538  1.00  0.00     0.278 HD
ATOM     21  H41 UNL     1     -22.201  34.277 -12.931  1.00  0.00     0.278 HD
ATOM     22  H53 UNL     1     -21.984  30.718 -12.869  1.00  0.00     0.278 HD
ATOM     23  H52 UNL     1     -23.075  31.509 -12.130  1.00  0.00     0.278 HD
ATOM     24  H51 UNL     1     -22.589  32.102 -13.643  1.00  0.00     0.278 HD
ENDBRANCH  10  13
ENDBRANCH   3  10
BRANCH   2  25
HETATM   25  O2  UNL     1     -17.091  31.304  -8.326  1.00  0.00    -0.356 OA
ATOM     26  H2  UNL     1     -16.681  31.247  -9.182  1.00  0.00     0.218 HD
ENDBRANCH   2  25
BRANCH   1  27
HETATM   27  N1  UNL     1     -16.253  32.271  -5.769  1.00  0.00    -0.323 N 
HETATM   28  C2  UNL     1     -14.864  32.313  -5.952  1.00  0.00     0.218 C 
HETATM   29  C1  UNL     1     -13.967  31.559  -5.042  1.00  0.00     0.117 C 
HETATM   30  O1  UNL     1     -14.334  32.977  -6.874  1.00  0.00    -0.274 OA
ATOM     31  H1  UNL     1     -16.625  31.714  -5.001  1.00  0.00     0.169 HD
ENDBRANCH   1  27
BRANCH   5  32
HETATM   32  O4  UNL     1     -20.461  35.197  -9.940  1.00  0.00    -0.356 OA
ATOM     33  H4  UNL     1     -21.353  34.909 -10.095  1.00  0.00     0.218 HD
ENDBRANCH   5  32
BRANCH   9  34
HETATM   34  O8  UNL     1     -17.301  34.656  -4.960  1.00  0.00    -0.356 OA
ATOM     35  H8  UNL     1     -17.904  35.236  -4.510  1.00  0.00     0.218 HD
ENDBRANCH   9  34
BRANCH   6  36
HETATM   36  N6  UNL     1     -20.821  37.530  -7.985  1.00  0.00    -0.311 N 
HETATM   37  C12 UNL     1     -22.173  37.716  -7.718  1.00  0.00     0.219 C 
HETATM   38  C13 UNL     1     -22.783  39.085  -7.945  1.00  0.00     0.117 C 
HETATM   39  O5  UNL     1     -22.959  36.874  -7.306  1.00  0.00    -0.274 OA
ATOM     40  H6  UNL     1     -20.328  38.360  -8.314  1.00  0.00     0.170 HD
ENDBRANCH   6  36
BRANCH   7  41
HETATM   41  C14 UNL     1     -19.105  36.900  -5.619  1.00  0.00     0.259 C 
BRANCH  41  42
HETATM   42  O6  UNL     1     -19.130  38.266  -5.993  1.00  0.00    -0.374 OA
ATOM     43  H6  UNL     1     -19.799  38.707  -5.482  1.00  0.00     0.212 HD
ENDBRANCH  41  42
BRANCH  41  44
HETATM   44  C15 UNL     1     -20.201  36.664  -4.615  1.00  0.00     0.255 C 
BRANCH  44  45
HETATM   45  N8  UNL     1     -21.201  37.724  -4.657  1.00  0.00    -0.069 N 
ATOM     46  H83 UNL     1     -20.769  38.641  -4.774  1.00  0.00     0.275 HD
ATOM     47  H82 UNL     1     -21.742  37.693  -5.522  1.00  0.00     0.275 HD
ATOM     48  H81 UNL     1     -21.807  37.698  -3.837  1.00  0.00     0.275 HD
ENDBRANCH  44  45
BRANCH  44  49
HETATM   49  C16 UNL     1     -19.703  36.568  -3.186  1.00  0.00     0.201 C 
BRANCH  49  50
HETATM   50  O7  UNL     1     -18.341  36.329  -3.141  1.00  0.00    -0.399 OA
ATOM     51  H7  UNL     1     -17.879  37.035  -2.704  1.00  0.00     0.209 HD
ENDBRANCH  49  50
ENDBRANCH  44  49
ENDBRANCH  41  44
ENDBRANCH   7  41
TORSDOF 14
ENDMDL
MODEL 2
REMARK VINA RESULT: -6.180676943      2.284      3.208
REMARK  14 active torsions:
REMARK  status: ('A' for Active; 'I' for Inactive)
REMARK       I    between atoms: C2_2  and  N1_4 
REMARK    1  A    between atoms: N1_4  and  C3_6 
REMARK    2  A    between atoms: C4_7  and  O2_8 
REMARK    3  A    between atoms: C5_10  and  N2_11 
REMARK    4  A    between atoms: N2_11  and  C6_12 
REMARK    5  A    between atoms: N2_11  and  C7_14 
REMARK       I    between atoms: N3_15  and  C8_17 
REMARK       I    between atoms: C8_17  and  N4_18 
REMARK       I    between atoms: C8_17  and  N5_22 
REMARK    6  A    between atoms: C10_27  and  O4_28 
REMARK    7  A    between atoms: C11_30  and  N6_31 
REMARK       I    between atoms: N6_31  and  C12_33 
REMARK    8  A    between atoms: N7_36  and  C14_37 
REMARK    9  A    between atoms: C14_37  and  O6_38 
REMARK   10  A    between atoms: C14_37  and  C15_40 
REMARK   11  A    between atoms: C15_40  and  N8_41 
REMARK   12  A    between atoms: C15_40  and  C16_45 
REMARK   13  A    between atoms: C16_45  and  O7_46 
REMARK   14  A    between atoms: C18_49  and  O8_50 
ROOT
HETATM    1  C3  UNL     1     -17.627  33.531  -7.033  1.00  0.00     0.106 A 
HETATM    2  C4  UNL     1     -17.644  33.198  -8.350  1.00  0.00     0.124 A 
HETATM    3  C5  UNL     1     -18.230  34.022  -9.308  1.00  0.00     0.093 A 
HETATM    4  C9  UNL     1     -18.813  35.205  -8.936  1.00  0.00     0.061 A 
HETATM    5  C10 UNL     1     -19.455  36.212  -9.632  1.00  0.00     0.125 A 
HETATM    6  C11 UNL     1     -19.849  37.195  -8.725  1.00  0.00     0.147 A 
HETATM    7  N7  UNL     1     -19.450  36.786  -7.505  1.00  0.00    -0.298 N 
HETATM    8  C17 UNL     1     -18.820  35.593  -7.579  1.00  0.00     0.089 A 
HETATM    9  C18 UNL     1     -18.229  34.743  -6.677  1.00  0.00     0.123 A 
ENDROOT
BRANCH   3  10
HETATM   10  N2  UNL     1     -18.211  33.609 -10.673  1.00  0.00    -0.282 N 
BRANCH  10  11
HETATM   11  C6  UNL     1     -19.325  32.897 -11.129  1.00  0.00     0.361 C 
HETATM   12  O3  UNL     1     -19.715  31.800 -10.601  1.00  0.00    -0.283 OA
ENDBRANCH  10  11
BRANCH  10  13
HETATM   13  C7  UNL     1     -17.103  33.863 -11.514  1.00  0.00     0.189 C 
HETATM   14  N3  UNL     1     -16.141  34.592 -11.347  1.00  0.00    -0.337 N 
HETATM   15  C8  UNL     1     -15.478  35.486 -10.548  1.00  0.00     0.481 C 
ATOM     16  H3  UNL     1     -15.569  34.492 -12.185  1.00  0.00     0.164 HD
HETATM   17  N4  UNL     1     -15.971  36.862 -10.590  1.00  0.00    -0.033 N 
HETATM   18  N5  UNL     1     -14.075  35.598 -11.031  1.00  0.00    -0.033 N 
ATOM     19  H43 UNL     1     -15.982  37.198 -11.553  1.00  0.00     0.278 HD
ATOM     20  H42 UNL     1     -16.969  36.881 -10.379  1.00  0.00     0.278 HD
ATOM     21  H41 UNL     1     -15.477  37.527  -9.995  1.00  0.00     0.278 HD
ATOM     22  H53 UNL     1     -13.606  34.694 -11.083  1.00  0.00     0.278 HD
ATOM     23  H52 UNL     1     -14.020  35.841 -12.020  1.00  0.00     0.278 HD
ATOM     24  H51 UNL     1     -13.582  36.263 -10.436  1.00  0.00     0.278 HD
ENDBRANCH  10  13
ENDBRANCH   3  10
BRANCH   2  25
HETATM   25  O2  UNL     1     -17.078  32.022  -8.811  1.00  0.00    -0.356 OA
ATOM     26  H2  UNL     1     -17.149  31.209  -8.324  1.00  0.00     0.218 HD
ENDBRANCH   2  25
BRANCH   1  27
HETATM   27  N1  UNL     1     -17.029  32.698  -6.033  1.00  0.00    -0.323 N 
HETATM   28  C2  UNL     1     -15.648  32.475  -5.948  1.00  0.00     0.218 C 
HETATM   29  C1  UNL     1     -15.097  31.599  -4.885  1.00  0.00     0.117 C 
HETATM   30  O1  UNL     1     -14.839  32.998  -6.750  1.00  0.00    -0.274 OA
ATOM     31  H1  UNL     1     -17.637  32.245  -5.352  1.00  0.00     0.169 HD
ENDBRANCH   1  27
BRANCH   5  32
HETATM   32  O4  UNL     1     -19.668  36.251 -10.941  1.00  0.00    -0.356 OA
ATOM     33  H4  UNL     1     -20.345  36.747 -11.386  1.00  0.00     0.218 HD
ENDBRANCH   5  32
BRANCH   9  34
HETATM   34  O8  UNL     1     -18.197  35.060  -5.328  1.00  0.00    -0.356 OA
ATOM     35  H8  UNL     1     -17.558  35.714  -5.072  1.00  0.00     0.218 HD
ENDBRANCH   9  34
BRANCH   6  36
HETATM   36  N6  UNL     1     -20.533  38.413  -8.949  1.00  0.00    -0.311 N 
HETATM   37  C12 UNL     1     -20.273  39.425  -9.867  1.00  0.00     0.219 C 
HETATM   38  C13 UNL     1     -21.170  40.647  -9.883  1.00  0.00     0.117 C 
HETATM   39  O5  UNL     1     -19.373  39.445 -10.696  1.00  0.00    -0.274 OA
ATOM     40  H6  UNL     1     -21.338  38.575  -8.345  1.00  0.00     0.170 HD
ENDBRANCH   6  36
BRANCH   7  41
HETATM   41  C14 UNL     1     -19.642  37.463  -6.257  1.00  0.00     0.259 C 
BRANCH  41  42
HETATM   42  O6  UNL     1     -19.459  38.852  -6.464  1.00  0.00    -0.374 OA
ATOM     43  H6  UNL     1     -20.198  39.314  -6.086  1.00  0.00     0.212 HD
ENDBRANCH  41  42
BRANCH  41  44
HETATM   44  C15 UNL     1     -21.017  37.247  -5.685  1.00  0.00     0.255 C 
BRANCH  44  45
HETATM   45  N8  UNL     1     -21.697  36.134  -6.335  1.00  0.00    -0.069 N 
ATOM     46  H83 UNL     1     -21.041  35.541  -6.844  1.00  0.00     0.275 HD
ATOM     47  H82 UNL     1     -22.032  35.451  -5.655  1.00  0.00     0.275 HD
ATOM     48  H81 UNL     1     -22.452  36.459  -6.940  1.00  0.00     0.275 HD
ENDBRANCH  44  45
BRANCH  44  49
HETATM   49  C16 UNL     1     -21.919  38.459  -5.802  1.00  0.00     0.201 C 
BRANCH  49  50
HETATM   50  O7  UNL     1     -21.575  39.437  -4.885  1.00  0.00    -0.399 OA
ATOM     51  H7  UNL     1     -22.236  40.117  -4.839  1.00  0.00     0.209 HD
ENDBRANCH  49  50
ENDBRANCH  44  49
ENDBRANCH  41  44
ENDBRANCH   7  41
TORSDOF 14
ENDMDL
MODEL 3
REMARK VINA RESULT: -6.145014380      1.371      1.777
REMARK  14 active torsions:
REMARK  status: ('A' for Active; 'I' for Inactive)
REMARK       I    between atoms: C2_2  and  N1_4 
REMARK    1  A    between atoms: N1_4  and  C3_6 
REMARK    2  A    between atoms: C4_7  and  O2_8 
REMARK    3  A    between atoms: C5_10  and  N2_11 
REMARK    4  A    between atoms: N2_11  and  C6_12 
REMARK    5  A    between atoms: N2_11  and  C7_14 
REMARK       I    between atoms: N3_15  and  C8_17 
REMARK       I    between atoms: C8_17  and  N4_18 
REMARK       I    between atoms: C8_17  and  N5_22 
REMARK    6  A    between atoms: C10_27  and  O4_28 
REMARK    7  A    between atoms: C11_30  and  N6_31 
REMARK       I    between atoms: N6_31  and  C12_33 
REMARK    8  A    between atoms: N7_36  and  C14_37 
REMARK    9  A    between atoms: C14_37  and  O6_38 
REMARK   10  A    between atoms: C14_37  and  C15_40 
REMARK   11  A    between atoms: C15_40  and  N8_41 
REMARK   12  A    between atoms: C15_40  and  C16_45 
REMARK   13  A    between atoms: C16_45  and  O7_46 
REMARK   14  A    between atoms: C18_49  and  O8_50 
ROOT
HETATM    1  C3  UNL     1     -17.196  33.014  -6.636  1.00  0.00     0.106 A 
HETATM    2  C4  UNL     1     -17.578  32.563  -7.859  1.00  0.00     0.124 A 
HETATM    3  C5  UNL     1     -18.465  33.277  -8.661  1.00  0.00     0.093 A 
HETATM    4  C9  UNL     1     -18.981  34.470  -8.225  1.00  0.00     0.061 A 
HETATM    5  C10 UNL     1     -19.855  35.388  -8.775  1.00  0.00     0.125 A 
HETATM    6  C11 UNL     1     -20.021  36.436  -7.870  1.00  0.00     0.147 A 
HETATM    7  N7  UNL     1     -19.261  36.153  -6.795  1.00  0.00    -0.298 N 
HETATM    8  C17 UNL     1     -18.612  34.978  -6.961  1.00  0.00     0.089 A 
HETATM    9  C18 UNL     1     -17.735  34.234  -6.212  1.00  0.00     0.123 A 
ENDROOT
BRANCH   3  10
HETATM   10  N2  UNL     1     -18.823  32.743  -9.934  1.00  0.00    -0.282 N 
BRANCH  10  11
HETATM   11  C6  UNL     1     -20.032  32.043 -10.004  1.00  0.00     0.361 C 
HETATM   12  O3  UNL     1     -20.980  32.369 -10.798  1.00  0.00    -0.283 OA
ENDBRANCH  10  11
BRANCH  10  13
HETATM   13  C7  UNL     1     -17.978  32.871 -11.061  1.00  0.00     0.189 C 
HETATM   14  N3  UNL     1     -18.129  33.514 -12.085  1.00  0.00    -0.337 N 
HETATM   15  C8  UNL     1     -18.907  34.362 -12.828  1.00  0.00     0.481 C 
ATOM     16  H3  UNL     1     -17.294  33.341 -12.645  1.00  0.00     0.164 HD
HETATM   17  N4  UNL     1     -19.997  33.733 -13.573  1.00  0.00    -0.033 N 
HETATM   18  N5  UNL     1     -18.059  34.970 -13.889  1.00  0.00    -0.033 N 
ATOM     19  H43 UNL     1     -19.630  32.988 -14.166  1.00  0.00     0.278 HD
ATOM     20  H42 UNL     1     -20.583  33.189 -12.939  1.00  0.00     0.278 HD
ATOM     21  H41 UNL     1     -20.576  34.364 -14.126  1.00  0.00     0.278 HD
ATOM     22  H53 UNL     1     -17.229  35.427 -13.512  1.00  0.00     0.278 HD
ATOM     23  H52 UNL     1     -17.585  34.271 -14.460  1.00  0.00     0.278 HD
ATOM     24  H51 UNL     1     -18.638  35.601 -14.442  1.00  0.00     0.278 HD
ENDBRANCH  10  13
ENDBRANCH   3  10
BRANCH   2  25
HETATM   25  O2  UNL     1     -17.105  31.369  -8.375  1.00  0.00    -0.356 OA
ATOM     26  H2  UNL     1     -17.614  30.854  -8.992  1.00  0.00     0.218 HD
ENDBRANCH   2  25
BRANCH   1  27
HETATM   27  N1  UNL     1     -16.284  32.294  -5.797  1.00  0.00    -0.323 N 
HETATM   28  C2  UNL     1     -14.895  32.318  -5.979  1.00  0.00     0.218 C 
HETATM   29  C1  UNL     1     -14.009  31.547  -5.071  1.00  0.00     0.117 C 
HETATM   30  O1  UNL     1     -14.356  32.979  -6.897  1.00  0.00    -0.274 OA
ATOM     31  H1  UNL     1     -16.665  31.738  -5.032  1.00  0.00     0.169 HD
ENDBRANCH   1  27
BRANCH   5  32
HETATM   32  O4  UNL     1     -20.444  35.301  -9.960  1.00  0.00    -0.356 OA
ATOM     33  H4  UNL     1     -21.361  35.462 -10.146  1.00  0.00     0.218 HD
ENDBRANCH   5  32
BRANCH   9  34
HETATM   34  O8  UNL     1     -17.328  34.672  -4.962  1.00  0.00    -0.356 OA
ATOM     35  H8  UNL     1     -17.713  34.221  -4.220  1.00  0.00     0.218 HD
ENDBRANCH   9  34
BRANCH   6  36
HETATM   36  N6  UNL     1     -20.810  37.607  -7.974  1.00  0.00    -0.311 N 
HETATM   37  C12 UNL     1     -20.920  38.516  -9.021  1.00  0.00     0.219 C 
HETATM   38  C13 UNL     1     -21.842  39.709  -8.860  1.00  0.00     0.117 C 
HETATM   39  O5  UNL     1     -20.339  38.466 -10.097  1.00  0.00    -0.274 OA
ATOM     40  H6  UNL     1     -21.384  37.816  -7.158  1.00  0.00     0.170 HD
ENDBRANCH   6  36
BRANCH   7  41
HETATM   41  C14 UNL     1     -19.117  36.934  -5.603  1.00  0.00     0.259 C 
BRANCH  41  42
HETATM   42  O6  UNL     1     -19.136  38.305  -5.957  1.00  0.00    -0.374 OA
ATOM     43  H6  UNL     1     -18.690  38.409  -6.789  1.00  0.00     0.212 HD
ENDBRANCH  41  42
BRANCH  41  44
HETATM   44  C15 UNL     1     -20.221  36.685  -4.610  1.00  0.00     0.255 C 
BRANCH  44  45
HETATM   45  N8  UNL     1     -21.239  37.726  -4.673  1.00  0.00    -0.069 N 
ATOM     46  H83 UNL     1     -22.033  37.439  -5.245  1.00  0.00     0.275 HD
ATOM     47  H82 UNL     1     -21.719  37.834  -3.779  1.00  0.00     0.275 HD
ATOM     48  H81 UNL     1     -20.847  38.612  -4.995  1.00  0.00     0.275 HD
ENDBRANCH  44  45
BRANCH  44  49
HETATM   49  C16 UNL     1     -19.739  36.609  -3.175  1.00  0.00     0.201 C 
BRANCH  49  50
HETATM   50  O7  UNL     1     -18.387  36.321  -3.111  1.00  0.00    -0.399 OA
ATOM     51  H7  UNL     1     -18.188  35.493  -3.533  1.00  0.00     0.209 HD
ENDBRANCH  49  50
ENDBRANCH  44  49
ENDBRANCH  41  44
ENDBRANCH   7  41
TORSDOF 14
ENDMDL
MODEL 4
REMARK VINA RESULT: -6.134971037      2.506      5.736
REMARK  14 active torsions:
REMARK  status: ('A' for Active; 'I' for Inactive)
REMARK       I    between atoms: C2_2  and  N1_4 
REMARK    1  A    between atoms: N1_4  and  C3_6 
REMARK    2  A    between atoms: C4_7  and  O2_8 
REMARK    3  A    between atoms: C5_10  and  N2_11 
REMARK    4  A    between atoms: N2_11  and  C6_12 
REMARK    5  A    between atoms: N2_11  and  C7_14 
REMARK       I    between atoms: N3_15  and  C8_17 
REMARK       I    between atoms: C8_17  and  N4_18 
REMARK       I    between atoms: C8_17  and  N5_22 
REMARK    6  A    between atoms: C10_27  and  O4_28 
REMARK    7  A    between atoms: C11_30  and  N6_31 
REMARK       I    between atoms: N6_31  and  C12_33 
REMARK    8  A    between atoms: N7_36  and  C14_37 
REMARK    9  A    between atoms: C14_37  and  O6_38 
REMARK   10  A    between atoms: C14_37  and  C15_40 
REMARK   11  A    between atoms: C15_40  and  N8_41 
REMARK   12  A    between atoms: C15_40  and  C16_45 
REMARK   13  A    between atoms: C16_45  and  O7_46 
REMARK   14  A    between atoms: C18_49  and  O8_50 
ROOT
HETATM    1  C3  UNL     1     -17.550  34.715  -9.186  1.00  0.00     0.106 A 
HETATM    2  C4  UNL     1     -17.111  34.174  -8.019  1.00  0.00     0.124 A 
HETATM    3  C5  UNL     1     -17.791  34.367  -6.819  1.00  0.00     0.093 A 
HETATM    4  C9  UNL     1     -18.936  35.120  -6.789  1.00  0.00     0.061 A 
HETATM    5  C10 UNL     1     -19.813  35.481  -5.784  1.00  0.00     0.125 A 
HETATM    6  C11 UNL     1     -20.822  36.267  -6.339  1.00  0.00     0.147 A 
HETATM    7  N7  UNL     1     -20.557  36.376  -7.655  1.00  0.00    -0.298 N 
HETATM    8  C17 UNL     1     -19.431  35.701  -7.976  1.00  0.00     0.089 A 
HETATM    9  C18 UNL     1     -18.721  35.479  -9.130  1.00  0.00     0.123 A 
ENDROOT
BRANCH   3  10
HETATM   10  N2  UNL     1     -17.272  33.770  -5.633  1.00  0.00    -0.282 N 
BRANCH  10  11
HETATM   11  C6  UNL     1     -17.727  32.483  -5.326  1.00  0.00     0.361 C 
HETATM   12  O3  UNL     1     -16.983  31.445  -5.401  1.00  0.00    -0.283 OA
ENDBRANCH  10  11
BRANCH  10  13
HETATM   13  C7  UNL     1     -16.379  34.459  -4.779  1.00  0.00     0.189 C 
HETATM   14  N3  UNL     1     -15.267  34.147  -4.392  1.00  0.00    -0.337 N 
HETATM   15  C8  UNL     1     -14.242  33.237  -4.391  1.00  0.00     0.481 C 
ATOM     16  H3  UNL     1     -14.957  34.913  -3.795  1.00  0.00     0.164 HD
HETATM   17  N4  UNL     1     -14.407  32.098  -3.489  1.00  0.00    -0.033 N 
HETATM   18  N5  UNL     1     -13.015  33.911  -3.889  1.00  0.00    -0.033 N 
ATOM     19  H43 UNL     1     -14.580  32.428  -2.539  1.00  0.00     0.278 HD
ATOM     20  H42 UNL     1     -15.291  31.626  -3.681  1.00  0.00     0.278 HD
ATOM     21  H41 UNL     1     -13.644  31.420  -3.488  1.00  0.00     0.278 HD
ATOM     22  H53 UNL     1     -12.789  34.756  -4.414  1.00  0.00     0.278 HD
ATOM     23  H52 UNL     1     -13.152  34.347  -2.978  1.00  0.00     0.278 HD
ATOM     24  H51 UNL     1     -12.252  33.234  -3.888  1.00  0.00     0.278 HD
ENDBRANCH  10  13
ENDBRANCH   3  10
BRANCH   2  25
HETATM   25  O2  UNL     1     -15.964  33.402  -7.961  1.00  0.00    -0.356 OA
ATOM     26  H2  UNL     1     -15.930  32.595  -7.459  1.00  0.00     0.218 HD
ENDBRANCH   2  25
BRANCH   1  27
HETATM   27  N1  UNL     1     -16.866  34.527 -10.430  1.00  0.00    -0.323 N 
HETATM   28  C2  UNL     1     -17.094  33.430 -11.272  1.00  0.00     0.218 C 
HETATM   29  C1  UNL     1     -16.347  33.300 -12.548  1.00  0.00     0.117 C 
HETATM   30  O1  UNL     1     -17.922  32.534 -10.986  1.00  0.00    -0.274 OA
ATOM     31  H1  UNL     1     -16.180  35.225 -10.716  1.00  0.00     0.169 HD
ENDBRANCH   1  27
BRANCH   5  32
HETATM   32  O4  UNL     1     -19.723  35.145  -4.503  1.00  0.00    -0.356 OA
ATOM     33  H4  UNL     1     -19.156  35.546  -3.855  1.00  0.00     0.218 HD
ENDBRANCH   5  32
BRANCH   9  34
HETATM   34  O8  UNL     1     -19.148  36.018 -10.334  1.00  0.00    -0.356 OA
ATOM     35  H8  UNL     1     -20.044  35.820 -10.581  1.00  0.00     0.218 HD
ENDBRANCH   9  34
BRANCH   6  36
HETATM   36  N6  UNL     1     -21.944  36.871  -5.722  1.00  0.00    -0.311 N 
HETATM   37  C12 UNL     1     -22.084  38.145  -5.182  1.00  0.00     0.219 C 
HETATM   38  C13 UNL     1     -23.411  38.534  -4.561  1.00  0.00     0.117 C 
HETATM   39  O5  UNL     1     -21.232  39.022  -5.147  1.00  0.00    -0.274 OA
ATOM     40  H6  UNL     1     -22.775  36.283  -5.665  1.00  0.00     0.170 HD
ENDBRANCH   6  36
BRANCH   7  41
HETATM   41  C14 UNL     1     -21.311  37.098  -8.636  1.00  0.00     0.259 C 
BRANCH  41  42
HETATM   42  O6  UNL     1     -22.689  36.884  -8.392  1.00  0.00    -0.374 OA
ATOM     43  H6  UNL     1     -23.123  37.729  -8.346  1.00  0.00     0.212 HD
ENDBRANCH  41  42
BRANCH  41  44
HETATM   44  C15 UNL     1     -21.047  38.580  -8.595  1.00  0.00     0.255 C 
BRANCH  44  45
HETATM   45  N8  UNL     1     -22.263  39.330  -8.306  1.00  0.00    -0.069 N 
ATOM     46  H83 UNL     1     -22.996  38.725  -7.936  1.00  0.00     0.275 HD
ATOM     47  H82 UNL     1     -22.142  39.942  -7.499  1.00  0.00     0.275 HD
ATOM     48  H81 UNL     1     -22.584  39.849  -9.124  1.00  0.00     0.275 HD
ENDBRANCH  44  45
BRANCH  44  49
HETATM   49  C16 UNL     1     -20.473  39.128  -9.886  1.00  0.00     0.201 C 
BRANCH  49  50
HETATM   50  O7  UNL     1     -19.099  38.967  -9.937  1.00  0.00    -0.399 OA
ATOM     51  H7  UNL     1     -18.849  38.328 -10.594  1.00  0.00     0.209 HD
ENDBRANCH  49  50
ENDBRANCH  44  49
ENDBRANCH  41  44
ENDBRANCH   7  41
TORSDOF 14
ENDMDL
MODEL 5
REMARK VINA RESULT: -6.107835785      1.576      2.457
REMARK  14 active torsions:
REMARK  status: ('A' for Active; 'I' for Inactive)
REMARK       I    between atoms: C2_2  and  N1_4 
REMARK    1  A    between atoms: N1_4  and  C3_6 
REMARK    2  A    between atoms: C4_7  and  O2_8 
REMARK    3  A    between atoms: C5_10  and  N2_11 
REMARK    4  A    between atoms: N2_11  and  C6_12 
REMARK    5  A    between atoms: N2_11  and  C7_14 
REMARK       I    between atoms: N3_15  and  C8_17 
REMARK       I    between atoms: C8_17  and  N4_18 
REMARK       I    between atoms: C8_17  and  N5_22 
REMARK    6  A    between atoms: C10_27  and  O4_28 
REMARK    7  A    between atoms: C11_30  and  N6_31 
REMARK       I    between atoms: N6_31  and  C12_33 
REMARK    8  A    between atoms: N7_36  and  C14_37 
REMARK    9  A    between atoms: C14_37  and  O6_38 
REMARK   10  A    between atoms: C14_37  and  C15_40 
REMARK   11  A    between atoms: C15_40  and  N8_41 
REMARK   12  A    between atoms: C15_40  and  C16_45 
REMARK   13  A    between atoms: C16_45  and  O7_46 
REMARK   14  A    between atoms: C18_49  and  O8_50 
ROOT
HETATM    1  C3  UNL     1     -17.206  33.113  -6.483  1.00  0.00     0.106 A 
HETATM    2  C4  UNL     1     -17.552  32.664  -7.718  1.00  0.00     0.124 A 
HETATM    3  C5  UNL     1     -18.426  33.372  -8.539  1.00  0.00     0.093 A 
HETATM    4  C9  UNL     1     -18.966  34.557  -8.111  1.00  0.00     0.061 A 
HETATM    5  C10 UNL     1     -19.835  35.469  -8.679  1.00  0.00     0.125 A 
HETATM    6  C11 UNL     1     -20.035  36.511  -7.774  1.00  0.00     0.147 A 
HETATM    7  N7  UNL     1     -19.299  36.231  -6.682  1.00  0.00    -0.298 N 
HETATM    8  C17 UNL     1     -18.635  35.064  -6.836  1.00  0.00     0.089 A 
HETATM    9  C18 UNL     1     -17.769  34.325  -6.068  1.00  0.00     0.123 A 
ENDROOT
BRANCH   3  10
HETATM   10  N2  UNL     1     -18.746  32.840  -9.823  1.00  0.00    -0.282 N 
BRANCH  10  11
HETATM   11  C6  UNL     1     -19.880  32.025  -9.900  1.00  0.00     0.361 C 
HETATM   12  O3  UNL     1     -21.052  32.481 -10.132  1.00  0.00    -0.283 OA
ENDBRANCH  10  11
BRANCH  10  13
HETATM   13  C7  UNL     1     -17.934  33.083 -10.955  1.00  0.00     0.189 C 
HETATM   14  N3  UNL     1     -17.005  33.857 -11.102  1.00  0.00    -0.337 N 
HETATM   15  C8  UNL     1     -16.193  34.823 -10.568  1.00  0.00     0.481 C 
ATOM     16  H3  UNL     1     -16.686  33.727 -12.062  1.00  0.00     0.164 HD
HETATM   17  N4  UNL     1     -16.751  36.174 -10.536  1.00  0.00    -0.033 N 
HETATM   18  N5  UNL     1     -14.990  34.957 -11.434  1.00  0.00    -0.033 N 
ATOM     19  H43 UNL     1     -17.051  36.449 -11.472  1.00  0.00     0.278 HD
ATOM     20  H42 UNL     1     -17.650  36.168 -10.052  1.00  0.00     0.278 HD
ATOM     21  H41 UNL     1     -16.147  36.893 -10.139  1.00  0.00     0.278 HD
ATOM     22  H53 UNL     1     -14.506  34.071 -11.573  1.00  0.00     0.278 HD
ATOM     23  H52 UNL     1     -15.228  35.140 -12.408  1.00  0.00     0.278 HD
ATOM     24  H51 UNL     1     -14.386  35.677 -11.036  1.00  0.00     0.278 HD
ENDBRANCH  10  13
ENDBRANCH   3  10
BRANCH   2  25
HETATM   25  O2  UNL     1     -17.054  31.477  -8.227  1.00  0.00    -0.356 OA
ATOM     26  H2  UNL     1     -17.227  30.641  -7.808  1.00  0.00     0.218 HD
ENDBRANCH   2  25
BRANCH   1  27
HETATM   27  N1  UNL     1     -16.308  32.400  -5.625  1.00  0.00    -0.323 N 
HETATM   28  C2  UNL     1     -14.931  32.308  -5.864  1.00  0.00     0.218 C 
HETATM   29  C1  UNL     1     -14.059  31.551  -4.932  1.00  0.00     0.117 C 
HETATM   30  O1  UNL     1     -14.390  32.852  -6.856  1.00  0.00    -0.274 OA
ATOM     31  H1  UNL     1     -16.690  31.936  -4.801  1.00  0.00     0.169 HD
ENDBRANCH   1  27
BRANCH   5  32
HETATM   32  O4  UNL     1     -20.393  35.381  -9.879  1.00  0.00    -0.356 OA
ATOM     33  H4  UNL     1     -21.285  35.619 -10.104  1.00  0.00     0.218 HD
ENDBRANCH   5  32
BRANCH   9  34
HETATM   34  O8  UNL     1     -17.398  34.762  -4.806  1.00  0.00    -0.356 OA
ATOM     35  H8  UNL     1     -17.649  35.652  -4.587  1.00  0.00     0.218 HD
ENDBRANCH   9  34
BRANCH   6  36
HETATM   36  N6  UNL     1     -20.834  37.674  -7.894  1.00  0.00    -0.311 N 
HETATM   37  C12 UNL     1     -20.913  38.597  -8.931  1.00  0.00     0.219 C 
HETATM   38  C13 UNL     1     -21.855  39.776  -8.791  1.00  0.00     0.117 C 
HETATM   39  O5  UNL     1     -20.289  38.569  -9.983  1.00  0.00    -0.274 OA
ATOM     40  H6  UNL     1     -21.443  37.864  -7.098  1.00  0.00     0.170 HD
ENDBRANCH   6  36
BRANCH   7  41
HETATM   41  C14 UNL     1     -19.194  37.008  -5.483  1.00  0.00     0.259 C 
BRANCH  41  42
HETATM   42  O6  UNL     1     -19.205  38.380  -5.832  1.00  0.00    -0.374 OA
ATOM     43  H6  UNL     1     -18.312  38.703  -5.821  1.00  0.00     0.212 HD
ENDBRANCH  41  42
BRANCH  41  44
HETATM   44  C15 UNL     1     -20.328  36.754  -4.526  1.00  0.00     0.255 C 
BRANCH  44  45
HETATM   45  N8  UNL     1     -21.331  37.809  -4.595  1.00  0.00    -0.069 N 
ATOM     46  H83 UNL     1     -21.195  38.401  -5.415  1.00  0.00     0.275 HD
ATOM     47  H82 UNL     1     -22.252  37.434  -4.822  1.00  0.00     0.275 HD
ATOM     48  H81 UNL     1     -21.353  38.360  -3.737  1.00  0.00     0.275 HD
ENDBRANCH  44  45
BRANCH  44  49
HETATM   49  C16 UNL     1     -19.886  36.644  -3.080  1.00  0.00     0.201 C 
BRANCH  49  50
HETATM   50  O7  UNL     1     -18.528  36.394  -2.984  1.00  0.00    -0.399 OA
ATOM     51  H7  UNL     1     -18.305  35.546  -3.351  1.00  0.00     0.209 HD
ENDBRANCH  49  50
ENDBRANCH  44  49
ENDBRANCH  41  44
ENDBRANCH   7  41
TORSDOF 14
ENDMDL
