MODEL 1
REMARK VINA RESULT: -8.315208947      0.000      0.000
REMARK  7 active torsions:
REMARK  status: ('A' for Active; 'I' for Inactive)
REMARK    1  A    between atoms: C2_2  and  C3_3 
REMARK    2  A    between atoms: C2_2  and  N2_9 
REMARK    3  A    between atoms: C3_3  and  C4_4 
REMARK    4  A    between atoms: C4_4  and  N1_5 
REMARK    5  A    between atoms: N2_9  and  C5_11 
REMARK    6  A    between atoms: C8_17  and  C9_18 
REMARK    7  A    between atoms: C9_18  and  C10_19 
ROOT
HETATM    1  C5  UNL     1     -17.960  37.844 -11.629  1.00  0.00     0.697 A 
HETATM    2  N3  UNL     1     -18.809  37.536 -10.601  1.00  0.00    -0.153 N 
ATOM      3  H3  UNL     1     -19.621  38.133 -10.449  1.00  0.00     0.187 HD
HETATM    4  C6  UNL     1     -18.628  36.495  -9.787  1.00  0.00     0.292 A 
HETATM    5  O1  UNL     1     -19.423  36.226  -8.836  1.00  0.00    -0.265 OA
HETATM    6  C7  UNL     1     -17.529  35.693 -10.001  1.00  0.00     0.169 A 
HETATM    7  C8  UNL     1     -17.082  34.576  -9.335  1.00  0.00     0.070 A 
HETATM    8  N8  UNL     1     -15.935  34.236 -10.005  1.00  0.00    -0.286 N 
ATOM      9  H8  UNL     1     -15.328  33.447  -9.784  1.00  0.00     0.188 HD
HETATM   10  N9  UNL     1     -15.751  35.091 -10.972  1.00  0.00    -0.220 N 
ATOM     11  H9  UNL     1     -14.965  35.059 -11.621  1.00  0.00     0.210 HD
HETATM   12  N10 UNL     1     -16.702  36.001 -11.010  1.00  0.00    -0.160 N 
HETATM   13  N11 UNL     1     -16.900  37.058 -11.822  1.00  0.00    -0.109 N 
ATOM     14  H11 UNL     1     -16.244  37.255 -12.578  1.00  0.00     0.208 HD
ENDROOT
BRANCH   1  15
HETATM   15  N2  UNL     1     -18.215  38.835 -12.329  1.00  0.00    -0.220 N 
ATOM     16  H2  UNL     1     -19.136  39.219 -12.113  1.00  0.00     0.178 HD
BRANCH  15  17
HETATM   17  C2  UNL     1     -17.581  39.568 -13.336  1.00  0.00     0.097 C 
HETATM   18  C1  UNL     1     -17.654  39.016 -14.736  1.00  0.00     0.032 C 
BRANCH  17  19
HETATM   19  C3  UNL     1     -16.159  39.978 -13.032  1.00  0.00     0.052 C 
BRANCH  19  20
HETATM   20  C4  UNL     1     -16.063  41.382 -12.518  1.00  0.00     0.231 C 
BRANCH  20  21
HETATM   21  N1  UNL     1     -16.889  42.282 -13.305  1.00  0.00    -0.079 N 
ATOM     22  H13 UNL     1     -16.332  42.821 -13.968  1.00  0.00     0.274 HD
ATOM     23  H12 UNL     1     -17.472  41.773 -13.970  1.00  0.00     0.274 HD
ATOM     24  H11 UNL     1     -17.446  42.887 -12.702  1.00  0.00     0.274 HD
ENDBRANCH  20  21
ENDBRANCH  19  20
ENDBRANCH  17  19
ENDBRANCH  15  17
ENDBRANCH   1  15
BRANCH   7  25
HETATM   25  C9  UNL     1     -17.590  33.783  -8.226  1.00  0.00     0.140 C 
BRANCH  25  26
HETATM   26  C10 UNL     1     -16.972  34.174  -6.947  1.00  0.00     0.118 A 
HETATM   27  N4  UNL     1     -17.202  33.514  -5.803  1.00  0.00    -0.272 N 
HETATM   28  N5  UNL     1     -16.505  34.088  -4.854  1.00  0.00    -0.227 N 
ATOM     29  H4  UNL     1     -17.814  32.706  -5.691  1.00  0.00     0.190 HD
HETATM   30  N6  UNL     1     -15.834  35.099  -5.361  1.00  0.00    -0.227 N 
ATOM     31  H5  UNL     1     -16.486  33.797  -3.877  1.00  0.00     0.210 HD
HETATM   32  N7  UNL     1     -16.123  35.150  -6.650  1.00  0.00    -0.272 N 
ATOM     33  H6  UNL     1     -15.208  35.726  -4.855  1.00  0.00     0.210 HD
ATOM     34  H7  UNL     1     -15.752  35.831  -7.312  1.00  0.00     0.190 HD
ENDBRANCH  25  26
ENDBRANCH   7  25
TORSDOF 7
ENDMDL
MODEL 2
REMARK VINA RESULT: -8.284972563      2.177      7.592
REMARK  7 active torsions:
REMARK  status: ('A' for Active; 'I' for Inactive)
REMARK    1  A    between atoms: C2_2  and  C3_3 
REMARK    2  A    between atoms: C2_2  and  N2_9 
REMARK    3  A    between atoms: C3_3  and  C4_4 
REMARK    4  A    between atoms: C4_4  and  N1_5 
REMARK    5  A    between atoms: N2_9  and  C5_11 
REMARK    6  A    between atoms: C8_17  and  C9_18 
REMARK    7  A    between atoms: C9_18  and  C10_19 
ROOT
HETATM    1  C5  UNL     1     -17.297  34.532  -7.559  1.00  0.00     0.697 A 
HETATM    2  N3  UNL     1     -16.372  34.673  -8.556  1.00  0.00    -0.153 N 
ATOM      3  H3  UNL     1     -15.460  34.234  -8.436  1.00  0.00     0.187 HD
HETATM    4  C6  UNL     1     -16.602  35.357  -9.679  1.00  0.00     0.292 A 
HETATM    5  O1  UNL     1     -15.731  35.481 -10.593  1.00  0.00    -0.265 OA
HETATM    6  C7  UNL     1     -17.838  35.945  -9.833  1.00  0.00     0.169 A 
HETATM    7  C8  UNL     1     -18.355  36.705 -10.855  1.00  0.00     0.070 A 
HETATM    8  N8  UNL     1     -19.620  37.011 -10.424  1.00  0.00    -0.286 N 
ATOM      9  H8  UNL     1     -20.304  37.572 -10.933  1.00  0.00     0.188 HD
HETATM   10  N9  UNL     1     -19.802  36.466  -9.253  1.00  0.00    -0.220 N 
ATOM     11  H9  UNL     1     -20.664  36.544  -8.714  1.00  0.00     0.210 HD
HETATM   12  N10 UNL     1     -18.738  35.802  -8.851  1.00  0.00    -0.160 N 
HETATM   13  N11 UNL     1     -18.488  35.109  -7.723  1.00  0.00    -0.109 N 
ATOM     14  H11 UNL     1     -19.204  35.026  -7.001  1.00  0.00     0.208 HD
ENDROOT
BRANCH   1  15
HETATM   15  N2  UNL     1     -16.985  33.877  -6.553  1.00  0.00    -0.220 N 
ATOM     16  H2  UNL     1     -17.142  32.878  -6.694  1.00  0.00     0.178 HD
BRANCH  15  17
HETATM   17  C2  UNL     1     -16.477  34.139  -5.277  1.00  0.00     0.097 C 
HETATM   18  C1  UNL     1     -15.920  35.518  -5.032  1.00  0.00     0.032 C 
BRANCH  17  19
HETATM   19  C3  UNL     1     -15.512  33.105  -4.746  1.00  0.00     0.052 C 
BRANCH  19  20
HETATM   20  C4  UNL     1     -15.160  33.332  -3.308  1.00  0.00     0.231 C 
BRANCH  20  21
HETATM   21  N1  UNL     1     -14.424  32.203  -2.768  1.00  0.00    -0.079 N 
ATOM     22  H13 UNL     1     -13.591  31.997  -3.320  1.00  0.00     0.274 HD
ATOM     23  H12 UNL     1     -13.971  32.436  -1.884  1.00  0.00     0.274 HD
ATOM     24  H11 UNL     1     -15.026  31.384  -2.677  1.00  0.00     0.274 HD
ENDBRANCH  20  21
ENDBRANCH  19  20
ENDBRANCH  17  19
ENDBRANCH  15  17
ENDBRANCH   1  15
BRANCH   7  25
HETATM   25  C9  UNL     1     -17.861  37.129 -12.157  1.00  0.00     0.140 C 
BRANCH  25  26
HETATM   26  C10 UNL     1     -17.484  38.553 -12.160  1.00  0.00     0.118 A 
HETATM   27  N4  UNL     1     -16.573  39.060 -11.317  1.00  0.00    -0.272 N 
HETATM   28  N5  UNL     1     -16.448  40.338 -11.573  1.00  0.00    -0.227 N 
ATOM     29  H4  UNL     1     -16.067  38.540 -10.599  1.00  0.00     0.190 HD
HETATM   30  N6  UNL     1     -17.254  40.664 -12.559  1.00  0.00    -0.227 N 
ATOM     31  H5  UNL     1     -15.823  40.980 -11.085  1.00  0.00     0.210 HD
HETATM   32  N7  UNL     1     -17.891  39.562 -12.919  1.00  0.00    -0.272 N 
ATOM     33  H6  UNL     1     -17.367  41.590 -12.969  1.00  0.00     0.210 HD
ATOM     34  H7  UNL     1     -18.586  39.499 -13.663  1.00  0.00     0.190 HD
ENDBRANCH  25  26
ENDBRANCH   7  25
TORSDOF 7
ENDMDL
MODEL 3
REMARK VINA RESULT: -7.926970445      1.485      2.058
REMARK  7 active torsions:
REMARK  status: ('A' for Active; 'I' for Inactive)
REMARK    1  A    between atoms: C2_2  and  C3_3 
REMARK    2  A    between atoms: C2_2  and  N2_9 
REMARK    3  A    between atoms: C3_3  and  C4_4 
REMARK    4  A    between atoms: C4_4  and  N1_5 
REMARK    5  A    between atoms: N2_9  and  C5_11 
REMARK    6  A    between atoms: C8_17  and  C9_18 
REMARK    7  A    between atoms: C9_18  and  C10_19 
ROOT
HETATM    1  C5  UNL     1     -17.357  37.854 -11.894  1.00  0.00     0.697 A 
HETATM    2  N3  UNL     1     -16.388  36.910 -11.695  1.00  0.00    -0.153 N 
ATOM      3  H3  UNL     1     -15.549  36.948 -12.274  1.00  0.00     0.187 HD
HETATM    4  C6  UNL     1     -16.484  35.941 -10.783  1.00  0.00     0.292 A 
HETATM    5  O1  UNL     1     -15.577  35.070 -10.613  1.00  0.00    -0.265 OA
HETATM    6  C7  UNL     1     -17.620  35.898 -10.005  1.00  0.00     0.169 A 
HETATM    7  C8  UNL     1     -18.000  35.031  -9.009  1.00  0.00     0.070 A 
HETATM    8  N8  UNL     1     -19.233  35.495  -8.628  1.00  0.00    -0.286 N 
ATOM      9  H8  UNL     1     -19.824  35.089  -7.902  1.00  0.00     0.188 HD
HETATM   10  N9  UNL     1     -19.523  36.541  -9.350  1.00  0.00    -0.220 N 
ATOM     11  H9  UNL     1     -20.388  37.074  -9.262  1.00  0.00     0.210 HD
HETATM   12  N10 UNL     1     -18.565  36.827 -10.206  1.00  0.00    -0.160 N 
HETATM   13  N11 UNL     1     -18.451  37.798 -11.134  1.00  0.00    -0.109 N 
ATOM     14  H11 UNL     1     -19.196  38.485 -11.253  1.00  0.00     0.208 HD
ENDROOT
BRANCH   1  15
HETATM   15  N2  UNL     1     -17.173  38.714 -12.769  1.00  0.00    -0.220 N 
ATOM     16  H2  UNL     1     -17.943  38.735 -13.439  1.00  0.00     0.178 HD
BRANCH  15  17
HETATM   17  C2  UNL     1     -16.196  39.662 -13.084  1.00  0.00     0.097 C 
HETATM   18  C1  UNL     1     -14.766  39.186 -13.120  1.00  0.00     0.032 C 
BRANCH  17  19
HETATM   19  C3  UNL     1     -16.276  40.951 -12.301  1.00  0.00     0.052 C 
BRANCH  19  20
HETATM   20  C4  UNL     1     -15.937  42.151 -13.131  1.00  0.00     0.231 C 
BRANCH  20  21
HETATM   21  N1  UNL     1     -17.135  42.883 -13.502  1.00  0.00    -0.079 N 
ATOM     22  H13 UNL     1     -17.938  42.262 -13.607  1.00  0.00     0.274 HD
ATOM     23  H12 UNL     1     -17.481  43.455 -12.731  1.00  0.00     0.274 HD
ATOM     24  H11 UNL     1     -16.978  43.439 -14.343  1.00  0.00     0.274 HD
ENDBRANCH  20  21
ENDBRANCH  19  20
ENDBRANCH  17  19
ENDBRANCH  15  17
ENDBRANCH   1  15
BRANCH   7  25
HETATM   25  C9  UNL     1     -17.369  33.895  -8.354  1.00  0.00     0.140 C 
BRANCH  25  26
HETATM   26  C10 UNL     1     -16.852  34.251  -7.022  1.00  0.00     0.118 A 
HETATM   27  N4  UNL     1     -17.219  33.600  -5.908  1.00  0.00    -0.272 N 
HETATM   28  N5  UNL     1     -16.584  34.136  -4.895  1.00  0.00    -0.227 N 
ATOM     29  H4  UNL     1     -17.878  32.823  -5.858  1.00  0.00     0.190 HD
HETATM   30  N6  UNL     1     -15.820  35.114  -5.331  1.00  0.00    -0.227 N 
ATOM     31  H5  UNL     1     -16.669  33.842  -3.922  1.00  0.00     0.210 HD
HETATM   32  N7  UNL     1     -15.987  35.182  -6.641  1.00  0.00    -0.272 N 
ATOM     33  H6  UNL     1     -15.213  35.707  -4.766  1.00  0.00     0.210 HD
ATOM     34  H7  UNL     1     -15.523  35.846  -7.261  1.00  0.00     0.190 HD
ENDBRANCH  25  26
ENDBRANCH   7  25
TORSDOF 7
ENDMDL
MODEL 4
REMARK VINA RESULT: -7.925223554      1.737      7.429
REMARK  7 active torsions:
REMARK  status: ('A' for Active; 'I' for Inactive)
REMARK    1  A    between atoms: C2_2  and  C3_3 
REMARK    2  A    between atoms: C2_2  and  N2_9 
REMARK    3  A    between atoms: C3_3  and  C4_4 
REMARK    4  A    between atoms: C4_4  and  N1_5 
REMARK    5  A    between atoms: N2_9  and  C5_11 
REMARK    6  A    between atoms: C8_17  and  C9_18 
REMARK    7  A    between atoms: C9_18  and  C10_19 
ROOT
HETATM    1  C5  UNL     1     -17.111  35.004  -9.387  1.00  0.00     0.697 A 
HETATM    2  N3  UNL     1     -16.111  35.200 -10.298  1.00  0.00    -0.153 N 
ATOM      3  H3  UNL     1     -15.321  34.555 -10.296  1.00  0.00     0.187 HD
HETATM    4  C6  UNL     1     -16.115  36.192 -11.190  1.00  0.00     0.292 A 
HETATM    5  O1  UNL     1     -15.177  36.362 -12.027  1.00  0.00    -0.265 OA
HETATM    6  C7  UNL     1     -17.187  37.057 -11.187  1.00  0.00     0.169 A 
HETATM    7  C8  UNL     1     -17.462  38.156 -11.964  1.00  0.00     0.070 A 
HETATM    8  N8  UNL     1     -18.662  38.607 -11.477  1.00  0.00    -0.286 N 
ATOM      9  H8  UNL     1     -19.177  39.419 -11.818  1.00  0.00     0.188 HD
HETATM   10  N9  UNL     1     -19.034  37.822 -10.504  1.00  0.00    -0.220 N 
ATOM     11  H9  UNL     1     -19.896  37.941  -9.972  1.00  0.00     0.210 HD
HETATM   12  N10 UNL     1     -18.163  36.859 -10.291  1.00  0.00    -0.160 N 
HETATM   13  N11 UNL     1     -18.142  35.851  -9.395  1.00  0.00    -0.109 N 
ATOM     14  H11 UNL     1     -18.907  35.738  -8.731  1.00  0.00     0.208 HD
ENDROOT
BRANCH   1  15
HETATM   15  N2  UNL     1     -17.014  34.052  -8.597  1.00  0.00    -0.220 N 
ATOM     16  H2  UNL     1     -16.884  33.169  -9.092  1.00  0.00     0.178 HD
BRANCH  15  17
HETATM   17  C2  UNL     1     -17.034  33.864  -7.213  1.00  0.00     0.097 C 
HETATM   18  C1  UNL     1     -18.355  34.057  -6.514  1.00  0.00     0.032 C 
BRANCH  17  19
HETATM   19  C3  UNL     1     -15.951  34.591  -6.451  1.00  0.00     0.052 C 
BRANCH  19  20
HETATM   20  C4  UNL     1     -16.208  34.622  -4.975  1.00  0.00     0.231 C 
BRANCH  20  21
HETATM   21  N1  UNL     1     -15.648  33.449  -4.325  1.00  0.00    -0.079 N 
ATOM     22  H13 UNL     1     -15.115  32.875  -4.979  1.00  0.00     0.274 HD
ATOM     23  H12 UNL     1     -14.893  33.698  -3.686  1.00  0.00     0.274 HD
ATOM     24  H11 UNL     1     -16.375  32.909  -3.857  1.00  0.00     0.274 HD
ENDBRANCH  20  21
ENDBRANCH  19  20
ENDBRANCH  17  19
ENDBRANCH  15  17
ENDBRANCH   1  15
BRANCH   7  25
HETATM   25  C9  UNL     1     -16.803  38.794 -13.094  1.00  0.00     0.140 C 
BRANCH  25  26
HETATM   26  C10 UNL     1     -16.549  40.223 -12.843  1.00  0.00     0.118 A 
HETATM   27  N4  UNL     1     -17.094  41.195 -13.590  1.00  0.00    -0.272 N 
HETATM   28  N5  UNL     1     -16.694  42.348 -13.114  1.00  0.00    -0.227 N 
ATOM     29  H4  UNL     1     -17.711  41.059 -14.391  1.00  0.00     0.190 HD
HETATM   30  N6  UNL     1     -15.908  42.140 -12.080  1.00  0.00    -0.227 N 
ATOM     31  H5  UNL     1     -16.952  43.262 -13.486  1.00  0.00     0.210 HD
HETATM   32  N7  UNL     1     -15.821  40.831 -11.916  1.00  0.00    -0.272 N 
ATOM     33  H6  UNL     1     -15.452  42.854 -11.513  1.00  0.00     0.210 HD
ATOM     34  H7  UNL     1     -15.278  40.362 -11.190  1.00  0.00     0.190 HD
ENDBRANCH  25  26
ENDBRANCH   7  25
TORSDOF 7
ENDMDL
MODEL 5
REMARK VINA RESULT: -7.898867070      1.912      7.388
REMARK  7 active torsions:
REMARK  status: ('A' for Active; 'I' for Inactive)
REMARK    1  A    between atoms: C2_2  and  C3_3 
REMARK    2  A    between atoms: C2_2  and  N2_9 
REMARK    3  A    between atoms: C3_3  and  C4_4 
REMARK    4  A    between atoms: C4_4  and  N1_5 
REMARK    5  A    between atoms: N2_9  and  C5_11 
REMARK    6  A    between atoms: C8_17  and  C9_18 
REMARK    7  A    between atoms: C9_18  and  C10_19 
ROOT
HETATM    1  C5  UNL     1     -17.116  34.274  -7.450  1.00  0.00     0.697 A 
HETATM    2  N3  UNL     1     -18.235  35.039  -7.630  1.00  0.00    -0.153 N 
ATOM      3  H3  UNL     1     -18.916  35.088  -6.872  1.00  0.00     0.187 HD
HETATM    4  C6  UNL     1     -18.482  35.726  -8.747  1.00  0.00     0.292 A 
HETATM    5  O1  UNL     1     -19.527  36.428  -8.900  1.00  0.00    -0.265 OA
HETATM    6  C7  UNL     1     -17.557  35.656  -9.765  1.00  0.00     0.169 A 
HETATM    7  C8  UNL     1     -17.539  36.234 -11.011  1.00  0.00     0.070 A 
HETATM    8  N8  UNL     1     -16.370  35.780 -11.564  1.00  0.00    -0.286 N 
ATOM      9  H8  UNL     1     -16.024  36.007 -12.497  1.00  0.00     0.188 HD
HETATM   10  N9  UNL     1     -15.774  35.009 -10.698  1.00  0.00    -0.220 N 
ATOM     11  H9  UNL     1     -14.883  34.543 -10.865  1.00  0.00     0.210 HD
HETATM   12  N10 UNL     1     -16.463  34.904  -9.580  1.00  0.00    -0.160 N 
HETATM   13  N11 UNL     1     -16.230  34.215  -8.445  1.00  0.00    -0.109 N 
ATOM     14  H11 UNL     1     -15.384  33.655  -8.348  1.00  0.00     0.208 HD
ENDROOT
BRANCH   1  15
HETATM   15  N2  UNL     1     -16.979  33.672  -6.374  1.00  0.00    -0.220 N 
ATOM     16  H2  UNL     1     -17.333  32.717  -6.433  1.00  0.00     0.178 HD
BRANCH  15  17
HETATM   17  C2  UNL     1     -16.470  33.951  -5.102  1.00  0.00     0.097 C 
HETATM   18  C1  UNL     1     -15.966  35.351  -4.858  1.00  0.00     0.032 C 
BRANCH  17  19
HETATM   19  C3  UNL     1     -15.461  32.956  -4.582  1.00  0.00     0.052 C 
BRANCH  19  20
HETATM   20  C4  UNL     1     -15.073  33.219  -3.160  1.00  0.00     0.231 C 
BRANCH  20  21
HETATM   21  N1  UNL     1     -14.291  32.119  -2.622  1.00  0.00    -0.079 N 
ATOM     22  H13 UNL     1     -14.142  32.219  -1.618  1.00  0.00     0.274 HD
ATOM     23  H12 UNL     1     -14.822  31.248  -2.614  1.00  0.00     0.274 HD
ATOM     24  H11 UNL     1     -13.409  32.018  -3.124  1.00  0.00     0.274 HD
ENDBRANCH  20  21
ENDBRANCH  19  20
ENDBRANCH  17  19
ENDBRANCH  15  17
ENDBRANCH   1  15
BRANCH   7  25
HETATM   25  C9  UNL     1     -18.414  37.161 -11.714  1.00  0.00     0.140 C 
BRANCH  25  26
HETATM   26  C10 UNL     1     -17.825  38.508 -11.802  1.00  0.00     0.118 A 
HETATM   27  N4  UNL     1     -17.010  39.002 -10.859  1.00  0.00    -0.272 N 
HETATM   28  N5  UNL     1     -16.643  40.205 -11.227  1.00  0.00    -0.227 N 
ATOM     29  H4  UNL     1     -16.726  38.525 -10.003  1.00  0.00     0.190 HD
HETATM   30  N6  UNL     1     -17.201  40.494 -12.382  1.00  0.00    -0.227 N 
ATOM     31  H5  UNL     1     -16.022  40.820 -10.700  1.00  0.00     0.210 HD
HETATM   32  N7  UNL     1     -17.928  39.448 -12.734  1.00  0.00    -0.272 N 
ATOM     33  H6  UNL     1     -17.093  41.361 -12.906  1.00  0.00     0.210 HD
ATOM     34  H7  UNL     1     -18.482  39.374 -13.588  1.00  0.00     0.190 HD
ENDBRANCH  25  26
ENDBRANCH   7  25
TORSDOF 7
ENDMDL
