MODEL 1
REMARK VINA RESULT: -9.033951225      0.000      0.000
REMARK  8 active torsions:
REMARK  status: ('A' for Active; 'I' for Inactive)
REMARK    1  A    between atoms: N1_1  and  N2_4 
REMARK    2  A    between atoms: N2_4  and  C1_6 
REMARK    3  A    between atoms: C4_13  and  N5_14 
REMARK    4  A    between atoms: N5_14  and  C5_16 
REMARK    5  A    between atoms: C5_16  and  C6_17 
REMARK    6  A    between atoms: C5_16  and  N7_23 
REMARK    7  A    between atoms: C6_17  and  O1_18 
REMARK    8  A    between atoms: C6_17  and  N6_20 
ROOT
HETATM    1  C1  UNL     1     -17.415  34.246  -8.756  1.00  0.00     0.150 A 
HETATM    2  N3  UNL     1     -16.228  33.797  -9.191  1.00  0.00    -0.336 N 
ATOM      3  H3  UNL     1     -15.818  32.985  -8.729  1.00  0.00     0.168 HD
HETATM    4  C2  UNL     1     -15.548  34.364 -10.210  1.00  0.00     0.182 A 
HETATM    5  N4  UNL     1     -16.083  35.438 -10.824  1.00  0.00    -0.347 N 
ATOM      6  H4  UNL     1     -15.574  35.871 -11.594  1.00  0.00     0.167 HD
HETATM    7  C3  UNL     1     -17.264  35.953 -10.454  1.00  0.00     0.108 A 
HETATM    8  C4  UNL     1     -17.812  37.077 -11.107  1.00  0.00     0.133 A 
HETATM    9  N8  UNL     1     -19.003  37.541 -10.682  1.00  0.00    -0.337 N 
ATOM     10  H8  UNL     1     -19.424  38.353 -11.134  1.00  0.00     0.168 HD
HETATM   11  C7  UNL     1     -19.642  36.932  -9.656  1.00  0.00     0.182 A 
HETATM   12  N9  UNL     1     -19.124  35.864  -9.033  1.00  0.00    -0.347 N 
ATOM     13  H9  UNL     1     -19.633  35.429  -8.263  1.00  0.00     0.167 HD
HETATM   14  C8  UNL     1     -17.939  35.363  -9.419  1.00  0.00     0.110 A 
ENDROOT
BRANCH   8  15
HETATM   15  N5  UNL     1     -17.117  37.539 -12.038  1.00  0.00    -0.344 N 
ATOM     16  H5  UNL     1     -17.064  36.891 -12.824  1.00  0.00     0.163 HD
BRANCH  15  17
HETATM   17  C5  UNL     1     -16.391  38.709 -12.284  1.00  0.00     0.310 C 
BRANCH  17  18
HETATM   18  C6  UNL     1     -17.187  39.721 -13.064  1.00  0.00     0.337 C 
BRANCH  18  19
HETATM   19  O1  UNL     1     -18.345  40.001 -12.330  1.00  0.00    -0.368 OA
ATOM     20  H1  UNL     1     -18.403  40.945 -12.237  1.00  0.00     0.212 HD
ENDBRANCH  18  19
BRANCH  18  21
HETATM   21  N6  UNL     1     -17.590  39.224 -14.360  1.00  0.00    -0.120 N 
HETATM   22  O2  UNL     1     -17.590  38.031 -14.665  1.00  0.00    -0.534 OA
HETATM   23  O3  UNL     1     -17.992  40.155 -15.289  1.00  0.00    -0.534 OA
ENDBRANCH  18  21
ENDBRANCH  17  18
BRANCH  17  24
HETATM   24  N7  UNL     1     -15.082  38.555 -12.865  1.00  0.00    -0.126 N 
HETATM   25  O4  UNL     1     -14.509  37.460 -12.776  1.00  0.00    -0.535 OA
HETATM   26  O5  UNL     1     -14.444  39.586 -13.501  1.00  0.00    -0.535 OA
ENDBRANCH  17  24
ENDBRANCH  15  17
ENDBRANCH   8  15
BRANCH   1  27
HETATM   27  N2  UNL     1     -18.098  33.754  -7.807  1.00  0.00    -0.290 N 
ATOM     28  H2  UNL     1     -19.113  33.792  -7.902  1.00  0.00     0.188 HD
BRANCH  27  29
HETATM   29  N1  UNL     1     -17.600  33.173  -6.661  1.00  0.00    -0.344 N 
ATOM     30  H12 UNL     1     -17.676  33.733  -5.812  1.00  0.00     0.176 HD
ATOM     31  H11 UNL     1     -17.171  32.251  -6.590  1.00  0.00     0.176 HD
ENDBRANCH  27  29
ENDBRANCH   1  27
TORSDOF 8
ENDMDL
MODEL 2
REMARK VINA RESULT: -8.650810707      1.076      1.349
REMARK  8 active torsions:
REMARK  status: ('A' for Active; 'I' for Inactive)
REMARK    1  A    between atoms: N1_1  and  N2_4 
REMARK    2  A    between atoms: N2_4  and  C1_6 
REMARK    3  A    between atoms: C4_13  and  N5_14 
REMARK    4  A    between atoms: N5_14  and  C5_16 
REMARK    5  A    between atoms: C5_16  and  C6_17 
REMARK    6  A    between atoms: C5_16  and  N7_23 
REMARK    7  A    between atoms: C6_17  and  O1_18 
REMARK    8  A    between atoms: C6_17  and  N6_20 
ROOT
HETATM    1  C1  UNL     1     -17.360  34.156  -8.581  1.00  0.00     0.150 A 
HETATM    2  N3  UNL     1     -16.168  33.755  -9.047  1.00  0.00    -0.336 N 
ATOM      3  H3  UNL     1     -15.702  32.977  -8.581  1.00  0.00     0.168 HD
HETATM    4  C2  UNL     1     -15.552  34.330 -10.102  1.00  0.00     0.182 A 
HETATM    5  N4  UNL     1     -16.161  35.360 -10.722  1.00  0.00    -0.347 N 
ATOM      6  H4  UNL     1     -15.700  35.798 -11.520  1.00  0.00     0.167 HD
HETATM    7  C3  UNL     1     -17.354  35.825 -10.323  1.00  0.00     0.108 A 
HETATM    8  C4  UNL     1     -17.979  36.904 -10.984  1.00  0.00     0.133 A 
HETATM    9  N8  UNL     1     -19.177  37.318 -10.528  1.00  0.00    -0.337 N 
ATOM     10  H8  UNL     1     -19.653  38.097 -10.985  1.00  0.00     0.168 HD
HETATM   11  C7  UNL     1     -19.749  36.705  -9.467  1.00  0.00     0.182 A 
HETATM   12  N9  UNL     1     -19.158  35.679  -8.837  1.00  0.00    -0.347 N 
ATOM     13  H9  UNL     1     -19.618  35.240  -8.040  1.00  0.00     0.167 HD
HETATM   14  C8  UNL     1     -17.963  35.229  -9.252  1.00  0.00     0.110 A 
ENDROOT
BRANCH   8  15
HETATM   15  N5  UNL     1     -17.339  37.376 -11.949  1.00  0.00    -0.344 N 
ATOM     16  H5  UNL     1     -17.382  36.763 -12.763  1.00  0.00     0.163 HD
BRANCH  15  17
HETATM   17  C5  UNL     1     -16.580  38.522 -12.205  1.00  0.00     0.310 C 
BRANCH  17  18
HETATM   18  C6  UNL     1     -17.439  39.723 -12.494  1.00  0.00     0.337 C 
BRANCH  18  19
HETATM   19  O1  UNL     1     -18.200  39.433 -13.631  1.00  0.00    -0.368 OA
ATOM     20  H1  UNL     1     -18.902  40.071 -13.675  1.00  0.00     0.212 HD
ENDBRANCH  18  19
BRANCH  18  21
HETATM   21  N6  UNL     1     -16.655  40.906 -12.772  1.00  0.00    -0.120 N 
HETATM   22  O2  UNL     1     -15.679  41.251 -12.106  1.00  0.00    -0.534 OA
HETATM   23  O3  UNL     1     -17.042  41.674 -13.845  1.00  0.00    -0.534 OA
ENDBRANCH  18  21
ENDBRANCH  17  18
BRANCH  17  24
HETATM   24  N7  UNL     1     -15.540  38.407 -13.195  1.00  0.00    -0.126 N 
HETATM   25  O4  UNL     1     -14.384  38.151 -12.827  1.00  0.00    -0.535 OA
HETATM   26  O5  UNL     1     -15.785  38.588 -14.530  1.00  0.00    -0.535 OA
ENDBRANCH  17  24
ENDBRANCH  15  17
ENDBRANCH   8  15
BRANCH   1  27
HETATM   27  N2  UNL     1     -17.985  33.655  -7.599  1.00  0.00    -0.290 N 
ATOM     28  H2  UNL     1     -18.998  33.567  -7.692  1.00  0.00     0.188 HD
BRANCH  27  29
HETATM   29  N1  UNL     1     -17.429  33.219  -6.416  1.00  0.00    -0.344 N 
ATOM     30  H12 UNL     1     -17.996  33.362  -5.581  1.00  0.00     0.176 HD
ATOM     31  H11 UNL     1     -16.518  32.775  -6.307  1.00  0.00     0.176 HD
ENDBRANCH  27  29
ENDBRANCH   1  27
TORSDOF 8
ENDMDL
MODEL 3
REMARK VINA RESULT: -8.318903017      0.921      1.416
REMARK  8 active torsions:
REMARK  status: ('A' for Active; 'I' for Inactive)
REMARK    1  A    between atoms: N1_1  and  N2_4 
REMARK    2  A    between atoms: N2_4  and  C1_6 
REMARK    3  A    between atoms: C4_13  and  N5_14 
REMARK    4  A    between atoms: N5_14  and  C5_16 
REMARK    5  A    between atoms: C5_16  and  C6_17 
REMARK    6  A    between atoms: C5_16  and  N7_23 
REMARK    7  A    between atoms: C6_17  and  O1_18 
REMARK    8  A    between atoms: C6_17  and  N6_20 
ROOT
HETATM    1  C1  UNL     1     -17.472  34.252  -8.357  1.00  0.00     0.150 A 
HETATM    2  N3  UNL     1     -16.289  33.767  -8.766  1.00  0.00    -0.336 N 
ATOM      3  H3  UNL     1     -15.871  33.000  -8.239  1.00  0.00     0.168 HD
HETATM    4  C2  UNL     1     -15.625  34.243  -9.840  1.00  0.00     0.182 A 
HETATM    5  N4  UNL     1     -16.170  35.257 -10.540  1.00  0.00    -0.347 N 
ATOM      6  H4  UNL     1     -15.672  35.620 -11.353  1.00  0.00     0.167 HD
HETATM    7  C3  UNL     1     -17.348  35.802 -10.202  1.00  0.00     0.108 A 
HETATM    8  C4  UNL     1     -17.906  36.863 -10.945  1.00  0.00     0.133 A 
HETATM    9  N8  UNL     1     -19.093  37.361 -10.547  1.00  0.00    -0.337 N 
ATOM     10  H8  UNL     1     -19.522  38.128 -11.065  1.00  0.00     0.168 HD
HETATM   11  C7  UNL     1     -19.717  36.845  -9.463  1.00  0.00     0.182 A 
HETATM   12  N9  UNL     1     -19.189  35.836  -8.755  1.00  0.00    -0.347 N 
ATOM     13  H9  UNL     1     -19.687  35.471  -7.943  1.00  0.00     0.167 HD
HETATM   14  C8  UNL     1     -18.008  35.305  -9.110  1.00  0.00     0.110 A 
ENDROOT
BRANCH   8  15
HETATM   15  N5  UNL     1     -17.224  37.241 -11.922  1.00  0.00    -0.344 N 
ATOM     16  H5  UNL     1     -17.229  36.550 -12.673  1.00  0.00     0.163 HD
BRANCH  15  17
HETATM   17  C5  UNL     1     -16.456  38.361 -12.256  1.00  0.00     0.310 C 
BRANCH  17  18
HETATM   18  C6  UNL     1     -17.018  39.108 -13.435  1.00  0.00     0.337 C 
BRANCH  18  19
HETATM   19  O1  UNL     1     -16.239  38.783 -14.550  1.00  0.00    -0.368 OA
ATOM     20  H1  UNL     1     -16.691  39.111 -15.319  1.00  0.00     0.212 HD
ENDBRANCH  18  19
BRANCH  18  21
HETATM   21  N6  UNL     1     -16.963  40.542 -13.254  1.00  0.00    -0.120 N 
HETATM   22  O2  UNL     1     -17.335  41.352 -14.104  1.00  0.00    -0.534 OA
HETATM   23  O3  UNL     1     -16.465  41.003 -12.059  1.00  0.00    -0.534 OA
ENDBRANCH  18  21
ENDBRANCH  17  18
BRANCH  17  24
HETATM   24  N7  UNL     1     -15.041  38.152 -12.431  1.00  0.00    -0.126 N 
HETATM   25  O4  UNL     1     -14.616  36.997 -12.576  1.00  0.00    -0.535 OA
HETATM   26  O5  UNL     1     -14.148  39.190 -12.428  1.00  0.00    -0.535 OA
ENDBRANCH  17  24
ENDBRANCH  15  17
ENDBRANCH   8  15
BRANCH   1  27
HETATM   27  N2  UNL     1     -18.141  33.845  -7.360  1.00  0.00    -0.290 N 
ATOM     28  H2  UNL     1     -19.063  33.452  -7.553  1.00  0.00     0.188 HD
BRANCH  27  29
HETATM   29  N1  UNL     1     -17.744  33.883  -6.042  1.00  0.00    -0.344 N 
ATOM     30  H12 UNL     1     -17.417  32.999  -5.652  1.00  0.00     0.176 HD
ATOM     31  H11 UNL     1     -17.749  34.703  -5.434  1.00  0.00     0.176 HD
ENDBRANCH  27  29
ENDBRANCH   1  27
TORSDOF 8
ENDMDL
MODEL 4
REMARK VINA RESULT: -8.309313109      1.033      2.316
REMARK  8 active torsions:
REMARK  status: ('A' for Active; 'I' for Inactive)
REMARK    1  A    between atoms: N1_1  and  N2_4 
REMARK    2  A    between atoms: N2_4  and  C1_6 
REMARK    3  A    between atoms: C4_13  and  N5_14 
REMARK    4  A    between atoms: N5_14  and  C5_16 
REMARK    5  A    between atoms: C5_16  and  C6_17 
REMARK    6  A    between atoms: C5_16  and  N7_23 
REMARK    7  A    between atoms: C6_17  and  O1_18 
REMARK    8  A    between atoms: C6_17  and  N6_20 
ROOT
HETATM    1  C1  UNL     1     -17.902  34.241  -8.039  1.00  0.00     0.150 A 
HETATM    2  N3  UNL     1     -18.938  35.076  -7.868  1.00  0.00    -0.336 N 
ATOM      3  H3  UNL     1     -19.571  34.908  -7.085  1.00  0.00     0.168 HD
HETATM    4  C2  UNL     1     -19.186  36.126  -8.678  1.00  0.00     0.182 A 
HETATM    5  N4  UNL     1     -18.355  36.353  -9.714  1.00  0.00    -0.347 N 
ATOM      6  H4  UNL     1     -18.538  37.146 -10.329  1.00  0.00     0.167 HD
HETATM    7  C3  UNL     1     -17.296  35.569  -9.961  1.00  0.00     0.108 A 
HETATM    8  C4  UNL     1     -16.434  35.820 -11.049  1.00  0.00     0.133 A 
HETATM    9  N8  UNL     1     -15.389  34.990 -11.236  1.00  0.00    -0.337 N 
ATOM     10  H8  UNL     1     -14.749  35.146 -12.015  1.00  0.00     0.168 HD
HETATM   11  C7  UNL     1     -15.187  33.952 -10.392  1.00  0.00     0.182 A 
HETATM   12  N9  UNL     1     -16.003  33.711  -9.356  1.00  0.00    -0.347 N 
ATOM     13  H9  UNL     1     -15.821  32.919  -8.740  1.00  0.00     0.167 HD
HETATM   14  C8  UNL     1     -17.060  34.508  -9.127  1.00  0.00     0.110 A 
ENDROOT
BRANCH   8  15
HETATM   15  N5  UNL     1     -16.738  36.812 -11.747  1.00  0.00    -0.344 N 
ATOM     16  H5  UNL     1     -17.352  36.553 -12.519  1.00  0.00     0.163 HD
BRANCH  15  17
HETATM   17  C5  UNL     1     -16.458  38.182 -11.747  1.00  0.00     0.310 C 
BRANCH  17  18
HETATM   18  C6  UNL     1     -17.596  38.997 -12.299  1.00  0.00     0.337 C 
BRANCH  18  19
HETATM   19  O1  UNL     1     -18.779  38.295 -12.045  1.00  0.00    -0.368 OA
ATOM     20  H1  UNL     1     -19.162  38.658 -11.255  1.00  0.00     0.212 HD
ENDBRANCH  18  19
BRANCH  18  21
HETATM   21  N6  UNL     1     -17.490  39.192 -13.728  1.00  0.00    -0.120 N 
HETATM   22  O2  UNL     1     -17.499  38.272 -14.546  1.00  0.00    -0.534 OA
HETATM   23  O3  UNL     1     -17.375  40.487 -14.176  1.00  0.00    -0.534 OA
ENDBRANCH  18  21
ENDBRANCH  17  18
BRANCH  17  24
HETATM   24  N7  UNL     1     -15.216  38.594 -12.348  1.00  0.00    -0.126 N 
HETATM   25  O4  UNL     1     -14.547  37.762 -12.979  1.00  0.00    -0.535 OA
HETATM   26  O5  UNL     1     -14.742  39.873 -12.233  1.00  0.00    -0.535 OA
ENDBRANCH  17  24
ENDBRANCH  15  17
ENDBRANCH   8  15
BRANCH   1  27
HETATM   27  N2  UNL     1     -17.619  33.241  -7.312  1.00  0.00    -0.290 N 
ATOM     28  H2  UNL     1     -17.691  32.321  -7.746  1.00  0.00     0.188 HD
BRANCH  27  29
HETATM   29  N1  UNL     1     -17.225  33.280  -5.993  1.00  0.00    -0.344 N 
ATOM     30  H12 UNL     1     -17.972  33.410  -5.311  1.00  0.00     0.176 HD
ATOM     31  H11 UNL     1     -16.269  33.191  -5.647  1.00  0.00     0.176 HD
ENDBRANCH  27  29
ENDBRANCH   1  27
TORSDOF 8
ENDMDL
MODEL 5
REMARK VINA RESULT: -8.033645642      1.068      1.980
REMARK  8 active torsions:
REMARK  status: ('A' for Active; 'I' for Inactive)
REMARK    1  A    between atoms: N1_1  and  N2_4 
REMARK    2  A    between atoms: N2_4  and  C1_6 
REMARK    3  A    between atoms: C4_13  and  N5_14 
REMARK    4  A    between atoms: N5_14  and  C5_16 
REMARK    5  A    between atoms: C5_16  and  C6_17 
REMARK    6  A    between atoms: C5_16  and  N7_23 
REMARK    7  A    between atoms: C6_17  and  O1_18 
REMARK    8  A    between atoms: C6_17  and  N6_20 
ROOT
HETATM    1  C1  UNL     1     -17.355  34.302  -8.890  1.00  0.00     0.150 A 
HETATM    2  N3  UNL     1     -16.145  33.967  -9.365  1.00  0.00    -0.336 N 
ATOM      3  H3  UNL     1     -15.675  33.155  -8.964  1.00  0.00     0.168 HD
HETATM    4  C2  UNL     1     -15.518  34.650 -10.345  1.00  0.00     0.182 A 
HETATM    5  N4  UNL     1     -16.132  35.724 -10.878  1.00  0.00    -0.347 N 
ATOM      6  H4  UNL     1     -15.663  36.244 -11.620  1.00  0.00     0.167 HD
HETATM    7  C3  UNL     1     -17.341  36.131 -10.464  1.00  0.00     0.108 A 
HETATM    8  C4  UNL     1     -17.972  37.257 -11.033  1.00  0.00     0.133 A 
HETATM    9  N8  UNL     1     -19.187  37.607 -10.567  1.00  0.00    -0.337 N 
ATOM     10  H8  UNL     1     -19.667  38.417 -10.958  1.00  0.00     0.168 HD
HETATM   11  C7  UNL     1     -19.770  36.885  -9.582  1.00  0.00     0.182 A 
HETATM   12  N9  UNL     1     -19.174  35.814  -9.040  1.00  0.00    -0.347 N 
ATOM     13  H9  UNL     1     -19.643  35.293  -8.299  1.00  0.00     0.167 HD
HETATM   14  C8  UNL     1     -17.962  35.424  -9.469  1.00  0.00     0.110 A 
ENDROOT
BRANCH   8  15
HETATM   15  N5  UNL     1     -17.321  37.830 -11.933  1.00  0.00    -0.344 N 
ATOM     16  H5  UNL     1     -16.843  37.159 -12.535  1.00  0.00     0.163 HD
BRANCH  15  17
HETATM   17  C5  UNL     1     -17.074  39.147 -12.332  1.00  0.00     0.310 C 
BRANCH  17  18
HETATM   18  C6  UNL     1     -16.219  39.219 -13.568  1.00  0.00     0.337 C 
BRANCH  18  19
HETATM   19  O1  UNL     1     -16.833  38.434 -14.550  1.00  0.00    -0.368 OA
ATOM     20  H1  UNL     1     -16.162  37.881 -14.933  1.00  0.00     0.212 HD
ENDBRANCH  18  19
BRANCH  18  21
HETATM   21  N6  UNL     1     -14.888  38.700 -13.348  1.00  0.00    -0.120 N 
HETATM   22  O2  UNL     1     -14.657  37.632 -12.780  1.00  0.00    -0.534 OA
HETATM   23  O3  UNL     1     -13.837  39.457 -13.808  1.00  0.00    -0.534 OA
ENDBRANCH  18  21
ENDBRANCH  17  18
BRANCH  17  24
HETATM   24  N7  UNL     1     -16.570  40.049 -11.328  1.00  0.00    -0.126 N 
HETATM   25  O4  UNL     1     -16.950  39.919 -10.155  1.00  0.00    -0.535 OA
HETATM   26  O5  UNL     1     -15.693  41.057 -11.631  1.00  0.00    -0.535 OA
ENDBRANCH  17  24
ENDBRANCH  15  17
ENDBRANCH   8  15
BRANCH   1  27
HETATM   27  N2  UNL     1     -17.991  33.699  -7.974  1.00  0.00    -0.290 N 
ATOM     28  H2  UNL     1     -18.992  33.562  -8.121  1.00  0.00     0.188 HD
BRANCH  27  29
HETATM   29  N1  UNL     1     -17.462  33.211  -6.800  1.00  0.00    -0.344 N 
ATOM     30  H12 UNL     1     -16.546  33.578  -6.540  1.00  0.00     0.176 HD
ATOM     31  H11 UNL     1     -17.897  32.527  -6.181  1.00  0.00     0.176 HD
ENDBRANCH  27  29
ENDBRANCH   1  27
TORSDOF 8
ENDMDL
