MODEL 1
REMARK VINA RESULT: -7.700512868      0.000      0.000
REMARK  6 active torsions:
REMARK  status: ('A' for Active; 'I' for Inactive)
REMARK    1  A    between atoms: N1_2  and  C3_4 
REMARK    2  A    between atoms: C4_7  and  N3_8 
REMARK    3  A    between atoms: N3_8  and  C5_10 
REMARK    4  A    between atoms: C7_22  and  C8_23 
REMARK    5  A    between atoms: C8_23  and  C9_24 
REMARK       I    between atoms: C9_24  and  N8_26 
REMARK    6  A    between atoms: N8_26  and  N9_28 
ROOT
HETATM    1  C3  UNL     1     -16.058  34.274  -9.915  1.00  0.00     0.695 A 
HETATM    2  N2  UNL     1     -16.736  35.153 -10.689  1.00  0.00    -0.022 N 
ATOM      3  H2  UNL     1     -16.563  35.180 -11.693  1.00  0.00     0.203 HD
HETATM    4  C4  UNL     1     -17.635  35.990 -10.147  1.00  0.00     0.700 A 
HETATM    5  N7  UNL     1     -17.856  35.946  -8.822  1.00  0.00    -0.179 N 
ATOM      6  H7  UNL     1     -18.540  36.582  -8.413  1.00  0.00     0.185 HD
HETATM    7  C7  UNL     1     -17.195  35.079  -8.015  1.00  0.00     0.122 A 
HETATM    8  N10 UNL     1     -16.307  34.266  -8.612  1.00  0.00    -0.179 N 
ATOM      9  H10 UNL     1     -15.794  33.604  -8.030  1.00  0.00     0.185 HD
ENDROOT
BRANCH   4  10
HETATM   10  N3  UNL     1     -18.253  36.806 -10.927  1.00  0.00    -0.168 N 
ATOM     11  H3  UNL     1     -19.157  36.535 -11.316  1.00  0.00     0.186 HD
BRANCH  10  12
HETATM   12  C5  UNL     1     -17.701  38.090 -11.265  1.00  0.00     0.181 A 
HETATM   13  N4  UNL     1     -17.052  38.952 -10.496  1.00  0.00    -0.277 N 
HETATM   14  N5  UNL     1     -16.632  40.050 -10.970  1.00  0.00    -0.278 N 
ATOM     15  H4  UNL     1     -16.889  38.731  -9.514  1.00  0.00     0.189 HD
HETATM   16  C6  UNL     1     -16.851  40.323 -12.258  1.00  0.00     0.160 A 
ATOM     17  H5  UNL     1     -16.134  40.714 -10.376  1.00  0.00     0.189 HD
HETATM   18  N6  UNL     1     -16.511  41.381 -12.952  1.00  0.00    -0.379 N 
HETATM   19  S1  UNL     1     -17.696  38.926 -12.766  1.00  0.00    -0.015 SA
ATOM     20  H62 UNL     1     -16.007  42.214 -12.648  1.00  0.00     0.158 HD
ATOM     21  H61 UNL     1     -16.678  41.590 -13.936  1.00  0.00     0.158 HD
ENDBRANCH  10  12
ENDBRANCH   4  10
BRANCH   1  22
HETATM   22  N1  UNL     1     -15.117  33.413 -10.549  1.00  0.00    -0.226 N 
HETATM   23  C1  UNL     1     -14.861  32.075 -10.049  1.00  0.00     0.168 C 
HETATM   24  C2  UNL     1     -14.379  33.833 -11.716  1.00  0.00     0.168 C 
ENDBRANCH   1  22
BRANCH   7  25
HETATM   25  C8  UNL     1     -17.448  35.040  -6.546  1.00  0.00     0.182 C 
BRANCH  25  26
HETATM   26  C9  UNL     1     -16.236  34.663  -5.790  1.00  0.00     0.242 C 
HETATM   27  O1  UNL     1     -15.127  35.210  -6.005  1.00  0.00    -0.271 OA
HETATM   28  N8  UNL     1     -16.376  33.646  -4.799  1.00  0.00    -0.276 N 
ATOM     29  H8  UNL     1     -17.280  33.207  -4.630  1.00  0.00     0.189 HD
BRANCH  28  30
HETATM   30  N9  UNL     1     -15.251  33.262  -4.063  1.00  0.00    -0.343 N 
ATOM     31  H92 UNL     1     -14.709  32.450  -4.358  1.00  0.00     0.176 HD
ATOM     32  H91 UNL     1     -14.993  33.805  -3.240  1.00  0.00     0.176 HD
ENDBRANCH  28  30
ENDBRANCH  25  26
ENDBRANCH   7  25
TORSDOF 6
ENDMDL
MODEL 2
REMARK VINA RESULT: -7.693002770      0.925      1.230
REMARK  6 active torsions:
REMARK  status: ('A' for Active; 'I' for Inactive)
REMARK    1  A    between atoms: N1_2  and  C3_4 
REMARK    2  A    between atoms: C4_7  and  N3_8 
REMARK    3  A    between atoms: N3_8  and  C5_10 
REMARK    4  A    between atoms: C7_22  and  C8_23 
REMARK    5  A    between atoms: C8_23  and  C9_24 
REMARK       I    between atoms: C9_24  and  N8_26 
REMARK    6  A    between atoms: N8_26  and  N9_28 
ROOT
HETATM    1  C3  UNL     1     -16.233  34.565  -9.871  1.00  0.00     0.695 A 
HETATM    2  N2  UNL     1     -17.004  35.444 -10.555  1.00  0.00    -0.022 N 
ATOM      3  H2  UNL     1     -16.834  35.597 -11.548  1.00  0.00     0.203 HD
HETATM    4  C4  UNL     1     -17.989  36.115  -9.937  1.00  0.00     0.700 A 
HETATM    5  N7  UNL     1     -18.204  35.905  -8.627  1.00  0.00    -0.179 N 
ATOM      6  H7  UNL     1     -18.953  36.415  -8.160  1.00  0.00     0.185 HD
HETATM    7  C7  UNL     1     -17.452  35.033  -7.909  1.00  0.00     0.122 A 
HETATM    8  N10 UNL     1     -16.480  34.389  -8.580  1.00  0.00    -0.179 N 
ATOM      9  H10 UNL     1     -15.898  33.728  -8.066  1.00  0.00     0.185 HD
ENDROOT
BRANCH   4  10
HETATM   10  N3  UNL     1     -18.692  36.938 -10.632  1.00  0.00    -0.168 N 
ATOM     11  H3  UNL     1     -19.707  36.834 -10.650  1.00  0.00     0.186 HD
BRANCH  10  12
HETATM   12  C5  UNL     1     -18.082  38.000 -11.386  1.00  0.00     0.181 A 
HETATM   13  N4  UNL     1     -18.060  38.193 -12.696  1.00  0.00    -0.277 N 
HETATM   14  N5  UNL     1     -17.466  39.197 -13.191  1.00  0.00    -0.278 N 
ATOM     15  H4  UNL     1     -18.525  37.528 -13.313  1.00  0.00     0.189 HD
HETATM   16  C6  UNL     1     -16.864  40.061 -12.369  1.00  0.00     0.160 A 
ATOM     17  H5  UNL     1     -17.447  39.344 -14.200  1.00  0.00     0.189 HD
HETATM   18  N6  UNL     1     -16.200  41.153 -12.653  1.00  0.00    -0.379 N 
HETATM   19  S1  UNL     1     -17.188  39.362 -10.841  1.00  0.00    -0.015 SA
ATOM     20  H62 UNL     1     -16.007  41.569 -13.565  1.00  0.00     0.158 HD
ATOM     21  H61 UNL     1     -15.741  41.813 -12.026  1.00  0.00     0.158 HD
ENDBRANCH  10  12
ENDBRANCH   4  10
BRANCH   1  22
HETATM   22  N1  UNL     1     -15.204  33.885 -10.582  1.00  0.00    -0.226 N 
HETATM   23  C1  UNL     1     -14.712  34.379 -11.854  1.00  0.00     0.168 C 
HETATM   24  C2  UNL     1     -14.606  32.675 -10.069  1.00  0.00     0.168 C 
ENDBRANCH   1  22
BRANCH   7  25
HETATM   25  C8  UNL     1     -17.700  34.808  -6.456  1.00  0.00     0.182 C 
BRANCH  25  26
HETATM   26  C9  UNL     1     -16.440  34.616  -5.708  1.00  0.00     0.242 C 
HETATM   27  O1  UNL     1     -15.457  35.382  -5.861  1.00  0.00    -0.271 OA
HETATM   28  N8  UNL     1     -16.383  33.519  -4.798  1.00  0.00    -0.276 N 
ATOM     29  H8  UNL     1     -17.186  32.902  -4.679  1.00  0.00     0.189 HD
BRANCH  28  30
HETATM   30  N9  UNL     1     -15.208  33.305  -4.072  1.00  0.00    -0.343 N 
ATOM     31  H92 UNL     1     -15.188  33.511  -3.074  1.00  0.00     0.176 HD
ATOM     32  H91 UNL     1     -14.388  32.944  -4.559  1.00  0.00     0.176 HD
ENDBRANCH  28  30
ENDBRANCH  25  26
ENDBRANCH   7  25
TORSDOF 6
ENDMDL
MODEL 3
REMARK VINA RESULT: -7.663509747      1.152      1.382
REMARK  6 active torsions:
REMARK  status: ('A' for Active; 'I' for Inactive)
REMARK    1  A    between atoms: N1_2  and  C3_4 
REMARK    2  A    between atoms: C4_7  and  N3_8 
REMARK    3  A    between atoms: N3_8  and  C5_10 
REMARK    4  A    between atoms: C7_22  and  C8_23 
REMARK    5  A    between atoms: C8_23  and  C9_24 
REMARK       I    between atoms: C9_24  and  N8_26 
REMARK    6  A    between atoms: N8_26  and  N9_28 
ROOT
HETATM    1  C3  UNL     1     -15.555  34.073 -10.033  1.00  0.00     0.695 A 
HETATM    2  N2  UNL     1     -16.250  34.923 -10.826  1.00  0.00    -0.022 N 
ATOM      3  H2  UNL     1     -16.310  34.743 -11.827  1.00  0.00     0.203 HD
HETATM    4  C4  UNL     1     -16.859  36.001 -10.305  1.00  0.00     0.700 A 
HETATM    5  N7  UNL     1     -16.772  36.227  -8.984  1.00  0.00    -0.179 N 
ATOM      6  H7  UNL     1     -17.237  37.045  -8.590  1.00  0.00     0.185 HD
HETATM    7  C7  UNL     1     -16.085  35.398  -8.158  1.00  0.00     0.122 A 
HETATM    8  N10 UNL     1     -15.496  34.336  -8.734  1.00  0.00    -0.179 N 
ATOM      9  H10 UNL     1     -14.971  33.695  -8.138  1.00  0.00     0.185 HD
ENDROOT
BRANCH   4  10
HETATM   10  N3  UNL     1     -17.506  36.776 -11.102  1.00  0.00    -0.168 N 
ATOM     11  H3  UNL     1     -18.446  36.513 -11.398  1.00  0.00     0.186 HD
BRANCH  10  12
HETATM   12  C5  UNL     1     -16.936  38.005 -11.584  1.00  0.00     0.181 A 
HETATM   13  N4  UNL     1     -15.705  38.249 -12.009  1.00  0.00    -0.277 N 
HETATM   14  N5  UNL     1     -15.376  39.408 -12.403  1.00  0.00    -0.278 N 
ATOM     15  H4  UNL     1     -15.016  37.497 -12.020  1.00  0.00     0.189 HD
HETATM   16  C6  UNL     1     -16.291  40.379 -12.385  1.00  0.00     0.160 A 
ATOM     17  H5  UNL     1     -14.427  39.595 -12.727  1.00  0.00     0.189 HD
HETATM   18  N6  UNL     1     -16.176  41.635 -12.742  1.00  0.00    -0.379 N 
HETATM   19  S1  UNL     1     -17.657  39.553 -11.772  1.00  0.00    -0.015 SA
ATOM     20  H62 UNL     1     -15.361  42.127 -13.107  1.00  0.00     0.158 HD
ATOM     21  H61 UNL     1     -16.875  42.377 -12.728  1.00  0.00     0.158 HD
ENDBRANCH  10  12
ENDBRANCH   4  10
BRANCH   1  22
HETATM   22  N1  UNL     1     -14.931  32.948 -10.644  1.00  0.00    -0.226 N 
HETATM   23  C1  UNL     1     -14.247  33.065 -11.918  1.00  0.00     0.168 C 
HETATM   24  C2  UNL     1     -14.951  31.645 -10.024  1.00  0.00     0.168 C 
ENDBRANCH   1  22
BRANCH   7  25
HETATM   25  C8  UNL     1     -15.996  35.661  -6.693  1.00  0.00     0.182 C 
BRANCH  25  26
HETATM   26  C9  UNL     1     -16.237  34.437  -5.900  1.00  0.00     0.242 C 
HETATM   27  O1  UNL     1     -17.126  33.609  -6.217  1.00  0.00    -0.271 OA
HETATM   28  N8  UNL     1     -15.413  34.230  -4.755  1.00  0.00    -0.276 N 
ATOM     29  H8  UNL     1     -14.692  34.906  -4.505  1.00  0.00     0.189 HD
BRANCH  28  30
HETATM   30  N9  UNL     1     -15.610  33.083  -3.980  1.00  0.00    -0.343 N 
ATOM     31  H92 UNL     1     -15.993  33.171  -3.039  1.00  0.00     0.176 HD
ATOM     32  H91 UNL     1     -15.366  32.175  -4.374  1.00  0.00     0.176 HD
ENDBRANCH  28  30
ENDBRANCH  25  26
ENDBRANCH   7  25
TORSDOF 6
ENDMDL
MODEL 4
REMARK VINA RESULT: -7.634197106      1.347      1.396
REMARK  6 active torsions:
REMARK  status: ('A' for Active; 'I' for Inactive)
REMARK    1  A    between atoms: N1_2  and  C3_4 
REMARK    2  A    between atoms: C4_7  and  N3_8 
REMARK    3  A    between atoms: N3_8  and  C5_10 
REMARK    4  A    between atoms: C7_22  and  C8_23 
REMARK    5  A    between atoms: C8_23  and  C9_24 
REMARK       I    between atoms: C9_24  and  N8_26 
REMARK    6  A    between atoms: N8_26  and  N9_28 
ROOT
HETATM    1  C3  UNL     1     -16.436  34.763 -10.078  1.00  0.00     0.695 A 
HETATM    2  N2  UNL     1     -17.110  35.653 -10.844  1.00  0.00    -0.022 N 
ATOM      3  H2  UNL     1     -16.792  35.847 -11.792  1.00  0.00     0.203 HD
HETATM    4  C4  UNL     1     -18.195  36.283 -10.365  1.00  0.00     0.700 A 
HETATM    5  N7  UNL     1     -18.606  36.020  -9.113  1.00  0.00    -0.179 N 
ATOM      6  H7  UNL     1     -19.431  36.499  -8.751  1.00  0.00     0.185 HD
HETATM    7  C7  UNL     1     -17.955  35.135  -8.317  1.00  0.00     0.122 A 
HETATM    8  N10 UNL     1     -16.876  34.535  -8.849  1.00  0.00    -0.179 N 
ATOM      9  H10 UNL     1     -16.366  33.865  -8.273  1.00  0.00     0.185 HD
ENDROOT
BRANCH   4  10
HETATM   10  N3  UNL     1     -18.800  37.119 -11.133  1.00  0.00    -0.168 N 
ATOM     11  H3  UNL     1     -19.794  36.988 -11.328  1.00  0.00     0.186 HD
BRANCH  10  12
HETATM   12  C5  UNL     1     -18.111  38.234 -11.724  1.00  0.00     0.181 A 
HETATM   13  N4  UNL     1     -18.089  38.633 -12.988  1.00  0.00    -0.277 N 
HETATM   14  N5  UNL     1     -17.417  39.651 -13.332  1.00  0.00    -0.278 N 
ATOM     15  H4  UNL     1     -18.618  38.116 -13.690  1.00  0.00     0.189 HD
HETATM   16  C6  UNL     1     -16.733  40.318 -12.399  1.00  0.00     0.160 A 
ATOM     17  H5  UNL     1     -17.399  39.955 -14.305  1.00  0.00     0.189 HD
HETATM   18  N6  UNL     1     -15.981  41.383 -12.524  1.00  0.00    -0.379 N 
HETATM   19  S1  UNL     1     -17.096  39.413 -10.994  1.00  0.00    -0.015 SA
ATOM     20  H62 UNL     1     -15.765  41.923 -13.363  1.00  0.00     0.158 HD
ATOM     21  H61 UNL     1     -15.459  41.893 -11.813  1.00  0.00     0.158 HD
ENDBRANCH  10  12
ENDBRANCH   4  10
BRANCH   1  22
HETATM   22  N1  UNL     1     -15.293  34.128 -10.643  1.00  0.00    -0.226 N 
HETATM   23  C1  UNL     1     -14.620  33.039  -9.960  1.00  0.00     0.168 C 
HETATM   24  C2  UNL     1     -14.755  34.540 -11.918  1.00  0.00     0.168 C 
ENDBRANCH   1  22
BRANCH   7  25
HETATM   25  C8  UNL     1     -18.421  34.852  -6.929  1.00  0.00     0.182 C 
BRANCH  25  26
HETATM   26  C9  UNL     1     -17.521  33.911  -6.229  1.00  0.00     0.242 C 
HETATM   27  O1  UNL     1     -17.405  32.715  -6.592  1.00  0.00    -0.271 OA
HETATM   28  N8  UNL     1     -16.784  34.419  -5.119  1.00  0.00    -0.276 N 
ATOM     29  H8  UNL     1     -16.883  35.392  -4.831  1.00  0.00     0.189 HD
BRANCH  28  30
HETATM   30  N9  UNL     1     -15.922  33.560  -4.432  1.00  0.00    -0.343 N 
ATOM     31  H92 UNL     1     -16.297  32.726  -3.980  1.00  0.00     0.176 HD
ATOM     32  H91 UNL     1     -14.928  33.785  -4.395  1.00  0.00     0.176 HD
ENDBRANCH  28  30
ENDBRANCH  25  26
ENDBRANCH   7  25
TORSDOF 6
ENDMDL
MODEL 5
REMARK VINA RESULT: -6.852226019      1.602      1.702
REMARK  6 active torsions:
REMARK  status: ('A' for Active; 'I' for Inactive)
REMARK    1  A    between atoms: N1_2  and  C3_4 
REMARK    2  A    between atoms: C4_7  and  N3_8 
REMARK    3  A    between atoms: N3_8  and  C5_10 
REMARK    4  A    between atoms: C7_22  and  C8_23 
REMARK    5  A    between atoms: C8_23  and  C9_24 
REMARK       I    between atoms: C9_24  and  N8_26 
REMARK    6  A    between atoms: N8_26  and  N9_28 
ROOT
HETATM    1  C3  UNL     1     -15.969  33.970  -9.905  1.00  0.00     0.695 A 
HETATM    2  N2  UNL     1     -15.895  35.288 -10.204  1.00  0.00    -0.022 N 
ATOM      3  H2  UNL     1     -15.240  35.609 -10.916  1.00  0.00     0.203 HD
HETATM    4  C4  UNL     1     -16.678  36.178  -9.572  1.00  0.00     0.700 A 
HETATM    5  N7  UNL     1     -17.539  35.744  -8.636  1.00  0.00    -0.179 N 
ATOM      6  H7  UNL     1     -18.134  36.421  -8.158  1.00  0.00     0.185 HD
HETATM    7  C7  UNL     1     -17.640  34.431  -8.309  1.00  0.00     0.122 A 
HETATM    8  N10 UNL     1     -16.832  33.587  -8.973  1.00  0.00    -0.179 N 
ATOM      9  H10 UNL     1     -16.885  32.593  -8.748  1.00  0.00     0.185 HD
ENDROOT
BRANCH   4  10
HETATM   10  N3  UNL     1     -16.570  37.419  -9.895  1.00  0.00    -0.168 N 
ATOM     11  H3  UNL     1     -16.153  38.072  -9.230  1.00  0.00     0.186 HD
BRANCH  10  12
HETATM   12  C5  UNL     1     -17.021  37.908 -11.170  1.00  0.00     0.181 A 
HETATM   13  N4  UNL     1     -18.257  38.025 -11.634  1.00  0.00    -0.277 N 
HETATM   14  N5  UNL     1     -18.469  38.482 -12.796  1.00  0.00    -0.278 N 
ATOM     15  H4  UNL     1     -19.044  37.746 -11.049  1.00  0.00     0.189 HD
HETATM   16  C6  UNL     1     -17.427  38.847 -13.546  1.00  0.00     0.160 A 
ATOM     17  H5  UNL     1     -19.420  38.569 -13.153  1.00  0.00     0.189 HD
HETATM   18  N6  UNL     1     -17.409  39.338 -14.761  1.00  0.00    -0.379 N 
HETATM   19  S1  UNL     1     -16.115  38.500 -12.504  1.00  0.00    -0.015 SA
ATOM     20  H62 UNL     1     -18.191  39.544 -15.382  1.00  0.00     0.158 HD
ATOM     21  H61 UNL     1     -16.613  39.617 -15.334  1.00  0.00     0.158 HD
ENDBRANCH  10  12
ENDBRANCH   4  10
BRANCH   1  22
HETATM   22  N1  UNL     1     -15.112  33.076 -10.609  1.00  0.00    -0.226 N 
HETATM   23  C1  UNL     1     -14.908  31.713 -10.158  1.00  0.00     0.168 C 
HETATM   24  C2  UNL     1     -14.410  33.488 -11.801  1.00  0.00     0.168 C 
ENDBRANCH   1  22
BRANCH   7  25
HETATM   25  C8  UNL     1     -18.599  33.963  -7.268  1.00  0.00     0.182 C 
BRANCH  25  26
HETATM   26  C9  UNL     1     -18.081  34.191  -5.903  1.00  0.00     0.242 C 
HETATM   27  O1  UNL     1     -18.783  34.729  -5.012  1.00  0.00    -0.271 OA
HETATM   28  N8  UNL     1     -16.745  33.772  -5.634  1.00  0.00    -0.276 N 
ATOM     29  H8  UNL     1     -16.182  33.334  -6.363  1.00  0.00     0.189 HD
BRANCH  28  30
HETATM   30  N9  UNL     1     -16.220  33.971  -4.354  1.00  0.00    -0.343 N 
ATOM     31  H92 UNL     1     -16.776  33.720  -3.537  1.00  0.00     0.176 HD
ATOM     32  H91 UNL     1     -15.284  34.366  -4.262  1.00  0.00     0.176 HD
ENDBRANCH  28  30
ENDBRANCH  25  26
ENDBRANCH   7  25
TORSDOF 6
ENDMDL
