MODEL 1
REMARK VINA RESULT: -8.087258082      0.000      0.000
REMARK  8 active torsions:
REMARK  status: ('A' for Active; 'I' for Inactive)
REMARK    1  A    between atoms: C2_2  and  C3_6 
REMARK    2  A    between atoms: C3_6  and  O1_7 
REMARK    3  A    between atoms: C3_6  and  N2_9 
REMARK    4  A    between atoms: N2_9  and  C4_10 
REMARK    5  A    between atoms: C4_10  and  C5_11 
REMARK    6  A    between atoms: C4_10  and  C6_14 
REMARK    7  A    between atoms: C7_19  and  S1_20 
REMARK    8  A    between atoms: S1_20  and  C8_21 
ROOT
HETATM    1  C6  UNL     1     -17.252  38.563 -12.591  1.00  0.00     0.135 A 
HETATM    2  N4  UNL     1     -18.455  38.327 -11.928  1.00  0.00    -0.292 N 
ATOM      3  H4  UNL     1     -19.288  38.826 -12.243  1.00  0.00     0.187 HD
HETATM    4  N5  UNL     1     -18.570  37.517 -10.946  1.00  0.00    -0.279 N 
ATOM      5  H5  UNL     1     -19.482  37.391 -10.507  1.00  0.00     0.189 HD
HETATM    6  C7  UNL     1     -17.530  36.836 -10.487  1.00  0.00     0.167 A 
HETATM    7  N8  UNL     1     -16.355  37.001 -11.057  1.00  0.00    -0.322 N 
ATOM      8  H8  UNL     1     -15.548  36.482 -10.711  1.00  0.00     0.169 HD
HETATM    9  C9  UNL     1     -16.205  37.873 -12.122  1.00  0.00     0.150 A 
HETATM   10  N9  UNL     1     -14.900  37.961 -12.631  1.00  0.00    -0.080 NA
ENDROOT
BRANCH   1  11
HETATM   11  C4  UNL     1     -17.367  39.492 -13.675  1.00  0.00     0.206 C 
BRANCH  11  12
HETATM   12  N2  UNL     1     -17.026  40.679 -13.421  1.00  0.00    -0.371 NA
BRANCH  12  13
HETATM   13  C3  UNL     1     -16.464  41.756 -13.044  1.00  0.00     0.237 C 
BRANCH  13  14
HETATM   14  C2  UNL     1     -16.574  43.068 -13.737  1.00  0.00     0.065 C 
HETATM   15  C1  UNL     1     -15.475  44.033 -13.862  1.00  0.00     0.073 C 
HETATM   16  N1  UNL     1     -17.718  43.338 -14.252  1.00  0.00    -0.398 N 
ATOM     17  H12 UNL     1     -17.794  44.237 -14.726  1.00  0.00     0.156 HD
ATOM     18  H11 UNL     1     -18.482  42.667 -14.165  1.00  0.00     0.156 HD
ENDBRANCH  13  14
BRANCH  13  19
HETATM   19  O1  UNL     1     -15.711  41.840 -11.988  1.00  0.00    -0.334 OA
ATOM     20  H1  UNL     1     -15.645  41.003 -11.542  1.00  0.00     0.220 HD
ENDBRANCH  13  19
ENDBRANCH  12  13
ENDBRANCH  11  12
BRANCH  11  21
HETATM   21  C5  UNL     1     -17.830  39.303 -15.018  1.00  0.00     0.298 C 
HETATM   22  N3  UNL     1     -18.291  40.471 -15.777  1.00  0.00    -0.055 NA
HETATM   23  O2  UNL     1     -17.895  38.256 -15.640  1.00  0.00    -0.268 OA
ENDBRANCH  11  21
ENDBRANCH   1  11
BRANCH   6  24
HETATM   24  S1  UNL     1     -17.813  35.716  -9.116  1.00  0.00    -0.020 SA
BRANCH  24  25
HETATM   25  C8  UNL     1     -16.310  34.927  -8.632  1.00  0.00     0.155 C 
HETATM   26  N6  UNL     1     -15.809  35.006  -7.450  1.00  0.00    -0.382 N 
ATOM     27  H62 UNL     1     -16.323  35.566  -6.770  1.00  0.00     0.157 HD
ATOM     28  H61 UNL     1     -14.940  34.550  -7.170  1.00  0.00     0.157 HD
HETATM   29  N7  UNL     1     -15.594  34.145  -9.579  1.00  0.00    -0.075 NA
ENDBRANCH  24  25
ENDBRANCH   6  24
TORSDOF 8
ENDMDL
MODEL 2
REMARK VINA RESULT: -7.761445233      3.537      7.633
REMARK  8 active torsions:
REMARK  status: ('A' for Active; 'I' for Inactive)
REMARK    1  A    between atoms: C2_2  and  C3_6 
REMARK    2  A    between atoms: C3_6  and  O1_7 
REMARK    3  A    between atoms: C3_6  and  N2_9 
REMARK    4  A    between atoms: N2_9  and  C4_10 
REMARK    5  A    between atoms: C4_10  and  C5_11 
REMARK    6  A    between atoms: C4_10  and  C6_14 
REMARK    7  A    between atoms: C7_19  and  S1_20 
REMARK    8  A    between atoms: S1_20  and  C8_21 
ROOT
HETATM    1  C6  UNL     1     -17.323  35.956 -10.366  1.00  0.00     0.135 A 
HETATM    2  N4  UNL     1     -16.218  36.596 -10.925  1.00  0.00    -0.292 N 
ATOM      3  H4  UNL     1     -15.287  36.272 -10.662  1.00  0.00     0.187 HD
HETATM    4  N5  UNL     1     -16.311  37.567 -11.750  1.00  0.00    -0.279 N 
ATOM      5  H5  UNL     1     -15.460  37.990 -12.122  1.00  0.00     0.189 HD
HETATM    6  C7  UNL     1     -17.489  38.037 -12.134  1.00  0.00     0.167 A 
HETATM    7  N8  UNL     1     -18.585  37.489 -11.652  1.00  0.00    -0.322 N 
ATOM      8  H8  UNL     1     -19.497  37.843 -11.942  1.00  0.00     0.169 HD
HETATM    9  C9  UNL     1     -18.510  36.435 -10.757  1.00  0.00     0.150 A 
HETATM   10  N9  UNL     1     -19.751  35.950 -10.315  1.00  0.00    -0.080 NA
ENDROOT
BRANCH   1  11
HETATM   11  C4  UNL     1     -16.978  34.880  -9.485  1.00  0.00     0.206 C 
BRANCH  11  12
HETATM   12  N2  UNL     1     -17.454  34.948  -8.319  1.00  0.00    -0.371 NA
BRANCH  12  13
HETATM   13  C3  UNL     1     -17.817  34.765  -7.114  1.00  0.00     0.237 C 
BRANCH  13  14
HETATM   14  C2  UNL     1     -16.900  34.708  -5.943  1.00  0.00     0.065 C 
HETATM   15  C1  UNL     1     -15.486  35.101  -5.980  1.00  0.00     0.073 C 
HETATM   16  N1  UNL     1     -17.414  34.288  -4.846  1.00  0.00    -0.398 N 
ATOM     17  H12 UNL     1     -16.786  34.248  -4.044  1.00  0.00     0.156 HD
ATOM     18  H11 UNL     1     -18.397  34.014  -4.821  1.00  0.00     0.156 HD
ENDBRANCH  13  14
BRANCH  13  19
HETATM   19  O1  UNL     1     -19.056  34.603  -6.754  1.00  0.00    -0.334 OA
ATOM     20  H1  UNL     1     -19.470  33.903  -7.245  1.00  0.00     0.220 HD
ENDBRANCH  13  19
ENDBRANCH  12  13
ENDBRANCH  11  12
BRANCH  11  21
HETATM   21  C5  UNL     1     -16.154  33.728  -9.702  1.00  0.00     0.298 C 
HETATM   22  N3  UNL     1     -15.016  33.838 -10.622  1.00  0.00    -0.055 NA
HETATM   23  O2  UNL     1     -16.276  32.622  -9.204  1.00  0.00    -0.268 OA
ENDBRANCH  11  21
ENDBRANCH   1  11
BRANCH   6  24
HETATM   24  S1  UNL     1     -17.499  39.392 -13.309  1.00  0.00    -0.020 SA
BRANCH  24  25
HETATM   25  C8  UNL     1     -16.527  40.741 -12.717  1.00  0.00     0.155 C 
HETATM   26  N6  UNL     1     -16.690  41.960 -13.095  1.00  0.00    -0.382 N 
ATOM     27  H62 UNL     1     -17.425  42.133 -13.782  1.00  0.00     0.157 HD
ATOM     28  H61 UNL     1     -16.128  42.739 -12.753  1.00  0.00     0.157 HD
HETATM   29  N7  UNL     1     -15.505  40.499 -11.760  1.00  0.00    -0.075 NA
ENDBRANCH  24  25
ENDBRANCH   6  24
TORSDOF 8
ENDMDL
MODEL 3
REMARK VINA RESULT: -7.532695743      3.417      7.644
REMARK  8 active torsions:
REMARK  status: ('A' for Active; 'I' for Inactive)
REMARK    1  A    between atoms: C2_2  and  C3_6 
REMARK    2  A    between atoms: C3_6  and  O1_7 
REMARK    3  A    between atoms: C3_6  and  N2_9 
REMARK    4  A    between atoms: N2_9  and  C4_10 
REMARK    5  A    between atoms: C4_10  and  C5_11 
REMARK    6  A    between atoms: C4_10  and  C6_14 
REMARK    7  A    between atoms: C7_19  and  S1_20 
REMARK    8  A    between atoms: S1_20  and  C8_21 
ROOT
HETATM    1  C6  UNL     1     -16.892  35.871 -10.189  1.00  0.00     0.135 A 
HETATM    2  N4  UNL     1     -15.940  36.543 -10.953  1.00  0.00    -0.292 N 
ATOM      3  H4  UNL     1     -14.964  36.256 -10.872  1.00  0.00     0.187 HD
HETATM    4  N5  UNL     1     -16.226  37.499 -11.752  1.00  0.00    -0.279 N 
ATOM      5  H5  UNL     1     -15.478  37.947 -12.282  1.00  0.00     0.189 HD
HETATM    6  C7  UNL     1     -17.472  37.921 -11.906  1.00  0.00     0.167 A 
HETATM    7  N8  UNL     1     -18.434  37.340 -11.220  1.00  0.00    -0.322 N 
ATOM      8  H8  UNL     1     -19.397  37.657 -11.332  1.00  0.00     0.169 HD
HETATM    9  C9  UNL     1     -18.150  36.302 -10.349  1.00  0.00     0.150 A 
HETATM   10  N9  UNL     1     -19.264  35.778  -9.675  1.00  0.00    -0.080 NA
ENDROOT
BRANCH   1  11
HETATM   11  C4  UNL     1     -16.345  34.820  -9.384  1.00  0.00     0.206 C 
BRANCH  11  12
HETATM   12  N2  UNL     1     -16.233  35.070  -8.154  1.00  0.00    -0.371 NA
BRANCH  12  13
HETATM   13  C3  UNL     1     -16.168  35.050  -6.883  1.00  0.00     0.237 C 
BRANCH  13  14
HETATM   14  C2  UNL     1     -17.262  34.606  -5.977  1.00  0.00     0.065 C 
HETATM   15  C1  UNL     1     -18.692  34.773  -6.264  1.00  0.00     0.073 C 
HETATM   16  N1  UNL     1     -16.894  34.041  -4.886  1.00  0.00    -0.398 N 
ATOM     17  H12 UNL     1     -17.644  33.738  -4.265  1.00  0.00     0.156 HD
ATOM     18  H11 UNL     1     -15.900  33.926  -4.687  1.00  0.00     0.156 HD
ENDBRANCH  13  14
BRANCH  13  19
HETATM   19  O1  UNL     1     -15.119  35.423  -6.212  1.00  0.00    -0.334 OA
ATOM     20  H1  UNL     1     -14.641  36.106  -6.669  1.00  0.00     0.220 HD
ENDBRANCH  13  19
ENDBRANCH  12  13
ENDBRANCH  11  12
BRANCH  11  21
HETATM   21  C5  UNL     1     -15.878  33.516  -9.750  1.00  0.00     0.298 C 
HETATM   22  N3  UNL     1     -14.813  33.403 -10.753  1.00  0.00    -0.055 NA
HETATM   23  O2  UNL     1     -16.263  32.441  -9.321  1.00  0.00    -0.268 OA
ENDBRANCH  11  21
ENDBRANCH   1  11
BRANCH   6  24
HETATM   24  S1  UNL     1     -17.757  39.258 -13.066  1.00  0.00    -0.020 SA
BRANCH  24  25
HETATM   25  C8  UNL     1     -16.447  40.438 -12.996  1.00  0.00     0.155 C 
HETATM   26  N6  UNL     1     -16.628  41.698 -12.810  1.00  0.00    -0.382 N 
ATOM     27  H62 UNL     1     -17.593  42.013 -12.704  1.00  0.00     0.157 HD
ATOM     28  H61 UNL     1     -15.870  42.380 -12.770  1.00  0.00     0.157 HD
HETATM   29  N7  UNL     1     -15.103  39.999 -13.141  1.00  0.00    -0.075 NA
ENDBRANCH  24  25
ENDBRANCH   6  24
TORSDOF 8
ENDMDL
MODEL 4
REMARK VINA RESULT: -7.408439609      1.158      1.377
REMARK  8 active torsions:
REMARK  status: ('A' for Active; 'I' for Inactive)
REMARK    1  A    between atoms: C2_2  and  C3_6 
REMARK    2  A    between atoms: C3_6  and  O1_7 
REMARK    3  A    between atoms: C3_6  and  N2_9 
REMARK    4  A    between atoms: N2_9  and  C4_10 
REMARK    5  A    between atoms: C4_10  and  C5_11 
REMARK    6  A    between atoms: C4_10  and  C6_14 
REMARK    7  A    between atoms: C7_19  and  S1_20 
REMARK    8  A    between atoms: S1_20  and  C8_21 
ROOT
HETATM    1  C6  UNL     1     -17.035  38.430 -12.693  1.00  0.00     0.135 A 
HETATM    2  N4  UNL     1     -18.197  37.981 -12.066  1.00  0.00    -0.292 N 
ATOM      3  H4  UNL     1     -19.089  38.383 -12.355  1.00  0.00     0.187 HD
HETATM    4  N5  UNL     1     -18.202  37.092 -11.148  1.00  0.00    -0.279 N 
ATOM      5  H5  UNL     1     -19.090  36.810 -10.732  1.00  0.00     0.189 HD
HETATM    6  C7  UNL     1     -17.080  36.530 -10.725  1.00  0.00     0.167 A 
HETATM    7  N8  UNL     1     -15.937  36.897 -11.264  1.00  0.00    -0.322 N 
ATOM      8  H8  UNL     1     -15.067  36.469 -10.946  1.00  0.00     0.169 HD
HETATM    9  C9  UNL     1     -15.905  37.858 -12.260  1.00  0.00     0.150 A 
HETATM   10  N9  UNL     1     -14.622  38.163 -12.743  1.00  0.00    -0.080 NA
ENDROOT
BRANCH   1  11
HETATM   11  C4  UNL     1     -17.273  39.413 -13.707  1.00  0.00     0.206 C 
BRANCH  11  12
HETATM   12  N2  UNL     1     -16.985  40.601 -13.401  1.00  0.00    -0.371 NA
BRANCH  12  13
HETATM   13  C3  UNL     1     -16.463  41.686 -12.989  1.00  0.00     0.237 C 
BRANCH  13  14
HETATM   14  C2  UNL     1     -16.592  43.008 -13.659  1.00  0.00     0.065 C 
HETATM   15  C1  UNL     1     -15.503  43.985 -13.777  1.00  0.00     0.073 C 
HETATM   16  N1  UNL     1     -17.743  43.275 -14.159  1.00  0.00    -0.398 N 
ATOM     17  H12 UNL     1     -17.832  44.181 -14.618  1.00  0.00     0.156 HD
ATOM     18  H11 UNL     1     -18.499  42.595 -14.076  1.00  0.00     0.156 HD
ENDBRANCH  13  14
BRANCH  13  19
HETATM   19  O1  UNL     1     -15.740  41.769 -11.911  1.00  0.00    -0.334 OA
ATOM     20  H1  UNL     1     -16.140  41.299 -11.188  1.00  0.00     0.220 HD
ENDBRANCH  13  19
ENDBRANCH  12  13
ENDBRANCH  11  12
BRANCH  11  21
HETATM   21  C5  UNL     1     -17.812  39.275 -15.028  1.00  0.00     0.298 C 
HETATM   22  N3  UNL     1     -18.286  40.475 -15.725  1.00  0.00    -0.055 NA
HETATM   23  O2  UNL     1     -17.935  38.250 -15.677  1.00  0.00    -0.268 OA
ENDBRANCH  11  21
ENDBRANCH   1  11
BRANCH   6  24
HETATM   24  S1  UNL     1     -17.210  35.282  -9.443  1.00  0.00    -0.020 SA
BRANCH  24  25
HETATM   25  C8  UNL     1     -18.668  35.524  -8.479  1.00  0.00     0.155 C 
HETATM   26  N6  UNL     1     -18.888  34.938  -7.355  1.00  0.00    -0.382 N 
ATOM     27  H62 UNL     1     -18.168  34.295  -7.024  1.00  0.00     0.157 HD
ATOM     28  H61 UNL     1     -19.731  35.077  -6.798  1.00  0.00     0.157 HD
HETATM   29  N7  UNL     1     -19.670  36.420  -8.941  1.00  0.00    -0.075 NA
ENDBRANCH  24  25
ENDBRANCH   6  24
TORSDOF 8
ENDMDL
MODEL 5
REMARK VINA RESULT: -7.404200350      1.964      2.780
REMARK  8 active torsions:
REMARK  status: ('A' for Active; 'I' for Inactive)
REMARK    1  A    between atoms: C2_2  and  C3_6 
REMARK    2  A    between atoms: C3_6  and  O1_7 
REMARK    3  A    between atoms: C3_6  and  N2_9 
REMARK    4  A    between atoms: N2_9  and  C4_10 
REMARK    5  A    between atoms: C4_10  and  C5_11 
REMARK    6  A    between atoms: C4_10  and  C6_14 
REMARK    7  A    between atoms: C7_19  and  S1_20 
REMARK    8  A    between atoms: S1_20  and  C8_21 
ROOT
HETATM    1  C6  UNL     1     -16.499  39.178 -12.411  1.00  0.00     0.135 A 
HETATM    2  N4  UNL     1     -16.246  38.684 -11.132  1.00  0.00    -0.292 N 
ATOM      3  H4  UNL     1     -15.363  38.929 -10.684  1.00  0.00     0.187 HD
HETATM    4  N5  UNL     1     -17.064  37.939 -10.492  1.00  0.00    -0.279 N 
ATOM      5  H5  UNL     1     -16.815  37.612  -9.558  1.00  0.00     0.189 HD
HETATM    6  C7  UNL     1     -18.228  37.582 -11.015  1.00  0.00     0.167 A 
HETATM    7  N8  UNL     1     -18.545  38.006 -12.220  1.00  0.00    -0.322 N 
ATOM      8  H8  UNL     1     -19.439  37.737 -12.632  1.00  0.00     0.169 HD
HETATM    9  C9  UNL     1     -17.676  38.814 -12.934  1.00  0.00     0.150 A 
HETATM   10  N9  UNL     1     -18.132  39.188 -14.208  1.00  0.00    -0.080 NA
ENDROOT
BRANCH   1  11
HETATM   11  C4  UNL     1     -15.450  40.010 -12.922  1.00  0.00     0.206 C 
BRANCH  11  12
HETATM   12  N2  UNL     1     -15.747  41.221 -13.105  1.00  0.00    -0.371 NA
BRANCH  12  13
HETATM   13  C3  UNL     1     -16.283  42.339 -13.392  1.00  0.00     0.237 C 
BRANCH  13  14
HETATM   14  C2  UNL     1     -15.653  43.670 -13.178  1.00  0.00     0.065 C 
HETATM   15  C1  UNL     1     -14.896  44.401 -14.202  1.00  0.00     0.073 C 
HETATM   16  N1  UNL     1     -15.806  44.183 -12.013  1.00  0.00    -0.398 N 
ATOM     17  H12 UNL     1     -15.374  45.096 -11.866  1.00  0.00     0.156 HD
ATOM     18  H11 UNL     1     -16.332  43.675 -11.301  1.00  0.00     0.156 HD
ENDBRANCH  13  14
BRANCH  13  19
HETATM   19  O1  UNL     1     -17.468  42.453 -13.915  1.00  0.00    -0.334 OA
ATOM     20  H1  UNL     1     -17.679  41.704 -14.461  1.00  0.00     0.220 HD
ENDBRANCH  13  19
ENDBRANCH  12  13
ENDBRANCH  11  12
BRANCH  11  21
HETATM   21  C5  UNL     1     -14.102  39.688 -13.286  1.00  0.00     0.298 C 
HETATM   22  N3  UNL     1     -13.367  38.709 -12.476  1.00  0.00    -0.055 NA
HETATM   23  O2  UNL     1     -13.456  40.138 -14.217  1.00  0.00    -0.268 OA
ENDBRANCH  11  21
ENDBRANCH   1  11
BRANCH   6  24
HETATM   24  S1  UNL     1     -19.302  36.548 -10.019  1.00  0.00    -0.020 SA
BRANCH  24  25
HETATM   25  C8  UNL     1     -18.357  35.502  -8.958  1.00  0.00     0.155 C 
HETATM   26  N6  UNL     1     -18.750  35.121  -7.793  1.00  0.00    -0.382 N 
ATOM     27  H62 UNL     1     -19.661  35.459  -7.483  1.00  0.00     0.157 HD
ATOM     28  H61 UNL     1     -18.203  34.517  -7.180  1.00  0.00     0.157 HD
HETATM   29  N7  UNL     1     -17.088  35.031  -9.390  1.00  0.00    -0.075 NA
ENDBRANCH  24  25
ENDBRANCH   6  24
TORSDOF 8
ENDMDL
