MODEL 1
REMARK VINA RESULT: -6.142811124      0.000      0.000
REMARK  3 active torsions:
REMARK  status: ('A' for Active; 'I' for Inactive)
REMARK    1  A    between atoms: N1_2  and  C3_4 
REMARK    2  A    between atoms: C5_8  and  C6_9 
REMARK       I    between atoms: C6_9  and  N3_11 
REMARK    3  A    between atoms: N3_11  and  N4_12 
REMARK       I    between atoms: N3_11  and  C7_15 
REMARK       I    between atoms: C7_15  and  N5_16 
REMARK       I    between atoms: C7_15  and  N6_20 
ROOT
HETATM    1  C6  UNL     1     -17.041  39.692 -14.293  1.00  0.00     0.260 C 
HETATM    2  O1  UNL     1     -16.577  39.069 -15.287  1.00  0.00    -0.270 OA
HETATM    3  N3  UNL     1     -17.931  40.755 -14.581  1.00  0.00    -0.211 N 
HETATM    4  C7  UNL     1     -18.302  41.127 -15.935  1.00  0.00     0.503 C 
HETATM    5  N5  UNL     1     -19.733  41.038 -16.148  1.00  0.00    -0.031 N 
ATOM      6  H51 UNL     1     -19.993  41.299 -17.099  1.00  0.00     0.279 HD
ATOM      7  H52 UNL     1     -20.245  41.587 -15.458  1.00  0.00     0.279 HD
ATOM      8  H53 UNL     1     -20.086  40.111 -15.908  1.00  0.00     0.279 HD
HETATM    9  N6  UNL     1     -17.895  42.473 -16.193  1.00  0.00    -0.031 N 
ATOM     10  H61 UNL     1     -18.155  42.734 -17.144  1.00  0.00     0.279 HD
ATOM     11  H62 UNL     1     -16.900  42.614 -16.015  1.00  0.00     0.279 HD
ATOM     12  H63 UNL     1     -18.262  43.125 -15.500  1.00  0.00     0.279 HD
ENDROOT
BRANCH   3  13
HETATM   13  N4  UNL     1     -18.479  41.480 -13.526  1.00  0.00    -0.337 N 
ATOM     14  H42 UNL     1     -17.846  42.002 -12.920  1.00  0.00     0.177 HD
ATOM     15  H41 UNL     1     -19.490  41.469 -13.392  1.00  0.00     0.177 HD
ENDBRANCH   3  13
BRANCH   1  16
HETATM   16  C5  UNL     1     -16.712  39.376 -12.910  1.00  0.00     0.187 C 
HETATM   17  C4  UNL     1     -15.593  38.381 -12.728  1.00  0.00     0.088 C 
HETATM   18  N2  UNL     1     -15.779  37.582 -11.591  1.00  0.00    -0.349 N 
HETATM   19  C3  UNL     1     -16.930  37.425 -11.109  1.00  0.00     0.142 C 
ATOM     20  H2  UNL     1     -14.978  37.127 -11.153  1.00  0.00     0.167 HD
HETATM   21  S1  UNL     1     -18.050  38.375 -12.117  1.00  0.00    -0.074 SA
BRANCH  19  22
HETATM   22  N1  UNL     1     -17.280  36.666  -9.991  1.00  0.00    -0.370 N 
HETATM   23  C1  UNL     1     -16.309  35.996  -9.161  1.00  0.00     0.151 C 
HETATM   24  C2  UNL     1     -18.688  36.518  -9.606  1.00  0.00     0.151 C 
ENDBRANCH  19  22
ENDBRANCH   1  16
TORSDOF 3
ENDMDL
MODEL 2
REMARK VINA RESULT: -6.102181371      2.313      3.402
REMARK  3 active torsions:
REMARK  status: ('A' for Active; 'I' for Inactive)
REMARK    1  A    between atoms: N1_2  and  C3_4 
REMARK    2  A    between atoms: C5_8  and  C6_9 
REMARK       I    between atoms: C6_9  and  N3_11 
REMARK    3  A    between atoms: N3_11  and  N4_12 
REMARK       I    between atoms: N3_11  and  C7_15 
REMARK       I    between atoms: C7_15  and  N5_16 
REMARK       I    between atoms: C7_15  and  N6_20 
ROOT
HETATM    1  C6  UNL     1     -17.484  37.782 -11.706  1.00  0.00     0.260 C 
HETATM    2  O1  UNL     1     -18.328  37.111 -12.360  1.00  0.00    -0.270 OA
HETATM    3  N3  UNL     1     -17.080  39.010 -12.283  1.00  0.00    -0.211 N 
HETATM    4  C7  UNL     1     -17.592  39.490 -13.555  1.00  0.00     0.503 C 
HETATM    5  N5  UNL     1     -18.247  40.776 -13.424  1.00  0.00    -0.031 N 
ATOM      6  H51 UNL     1     -18.607  41.113 -14.317  1.00  0.00     0.279 HD
ATOM      7  H52 UNL     1     -17.630  41.463 -12.990  1.00  0.00     0.279 HD
ATOM      8  H53 UNL     1     -18.980  40.748 -12.716  1.00  0.00     0.279 HD
HETATM    9  N6  UNL     1     -16.516  39.628 -14.486  1.00  0.00    -0.031 N 
ATOM     10  H61 UNL     1     -16.876  39.965 -15.379  1.00  0.00     0.279 HD
ATOM     11  H62 UNL     1     -15.983  38.764 -14.588  1.00  0.00     0.279 HD
ATOM     12  H63 UNL     1     -15.769  40.220 -14.124  1.00  0.00     0.279 HD
ENDROOT
BRANCH   3  13
HETATM   13  N4  UNL     1     -16.151  39.799 -11.609  1.00  0.00    -0.337 N 
ATOM     14  H42 UNL     1     -15.184  39.789 -11.935  1.00  0.00     0.177 HD
ATOM     15  H41 UNL     1     -16.461  40.358 -10.815  1.00  0.00     0.177 HD
ENDBRANCH   3  13
BRANCH   1  16
HETATM   16  C5  UNL     1     -16.926  37.363 -10.428  1.00  0.00     0.187 C 
HETATM   17  C4  UNL     1     -16.115  36.091 -10.467  1.00  0.00     0.088 C 
HETATM   18  N2  UNL     1     -16.229  35.357  -9.279  1.00  0.00    -0.349 N 
HETATM   19  C3  UNL     1     -17.225  35.521  -8.526  1.00  0.00     0.142 C 
ATOM     20  H2  UNL     1     -15.503  34.689  -9.023  1.00  0.00     0.167 HD
HETATM   21  S1  UNL     1     -18.251  36.763  -9.285  1.00  0.00    -0.074 SA
BRANCH  19  22
HETATM   22  N1  UNL     1     -17.484  34.871  -7.319  1.00  0.00    -0.370 N 
HETATM   23  C1  UNL     1     -18.705  34.149  -7.061  1.00  0.00     0.151 C 
HETATM   24  C2  UNL     1     -16.495  34.899  -6.234  1.00  0.00     0.151 C 
ENDBRANCH  19  22
ENDBRANCH   1  16
TORSDOF 3
ENDMDL
MODEL 3
REMARK VINA RESULT: -6.044619394      2.930      7.011
REMARK  3 active torsions:
REMARK  status: ('A' for Active; 'I' for Inactive)
REMARK    1  A    between atoms: N1_2  and  C3_4 
REMARK    2  A    between atoms: C5_8  and  C6_9 
REMARK       I    between atoms: C6_9  and  N3_11 
REMARK    3  A    between atoms: N3_11  and  N4_12 
REMARK       I    between atoms: N3_11  and  C7_15 
REMARK       I    between atoms: C7_15  and  N5_16 
REMARK       I    between atoms: C7_15  and  N6_20 
ROOT
HETATM    1  C6  UNL     1     -18.095  36.351  -9.660  1.00  0.00     0.260 C 
HETATM    2  O1  UNL     1     -19.202  35.893 -10.057  1.00  0.00    -0.270 OA
HETATM    3  N3  UNL     1     -17.438  35.608  -8.649  1.00  0.00    -0.211 N 
HETATM    4  C7  UNL     1     -17.988  34.387  -8.085  1.00  0.00     0.503 C 
HETATM    5  N5  UNL     1     -17.098  33.259  -8.267  1.00  0.00    -0.031 N 
ATOM      6  H51 UNL     1     -17.484  32.402  -7.871  1.00  0.00     0.279 HD
ATOM      7  H52 UNL     1     -16.170  33.455  -7.893  1.00  0.00     0.279 HD
ATOM      8  H53 UNL     1     -16.852  33.135  -9.249  1.00  0.00     0.279 HD
HETATM    9  N6  UNL     1     -18.209  34.562  -6.684  1.00  0.00    -0.031 N 
ATOM     10  H61 UNL     1     -18.595  33.705  -6.288  1.00  0.00     0.279 HD
ATOM     11  H62 UNL     1     -18.794  35.374  -6.485  1.00  0.00     0.279 HD
ATOM     12  H63 UNL     1     -17.366  34.866  -6.197  1.00  0.00     0.279 HD
ENDROOT
BRANCH   3  13
HETATM   13  N4  UNL     1     -16.212  36.060  -8.169  1.00  0.00    -0.337 N 
ATOM     14  H42 UNL     1     -16.189  36.509  -7.253  1.00  0.00     0.177 HD
ATOM     15  H41 UNL     1     -15.379  35.930  -8.742  1.00  0.00     0.177 HD
ENDBRANCH   3  13
BRANCH   1  16
HETATM   16  C5  UNL     1     -17.485  37.568 -10.178  1.00  0.00     0.187 C 
HETATM   17  C4  UNL     1     -18.444  38.549 -10.807  1.00  0.00     0.088 C 
HETATM   18  N2  UNL     1     -17.856  39.252 -11.868  1.00  0.00    -0.349 N 
HETATM   19  C3  UNL     1     -16.860  38.774 -12.470  1.00  0.00     0.142 C 
ATOM     20  H2  UNL     1     -18.237  40.154 -12.152  1.00  0.00     0.167 HD
HETATM   21  S1  UNL     1     -16.477  37.220 -11.688  1.00  0.00    -0.074 SA
BRANCH  19  22
HETATM   22  N1  UNL     1     -16.166  39.345 -13.537  1.00  0.00    -0.370 N 
HETATM   23  C1  UNL     1     -16.759  39.564 -14.833  1.00  0.00     0.151 C 
HETATM   24  C2  UNL     1     -14.767  39.758 -13.376  1.00  0.00     0.151 C 
ENDBRANCH  19  22
ENDBRANCH   1  16
TORSDOF 3
ENDMDL
MODEL 4
REMARK VINA RESULT: -5.604888072      2.326      3.328
REMARK  3 active torsions:
REMARK  status: ('A' for Active; 'I' for Inactive)
REMARK    1  A    between atoms: N1_2  and  C3_4 
REMARK    2  A    between atoms: C5_8  and  C6_9 
REMARK       I    between atoms: C6_9  and  N3_11 
REMARK    3  A    between atoms: N3_11  and  N4_12 
REMARK       I    between atoms: N3_11  and  C7_15 
REMARK       I    between atoms: C7_15  and  N5_16 
REMARK       I    between atoms: C7_15  and  N6_20 
ROOT
HETATM    1  C6  UNL     1     -16.581  37.966 -12.005  1.00  0.00     0.260 C 
HETATM    2  O1  UNL     1     -15.336  37.810 -12.134  1.00  0.00    -0.270 OA
HETATM    3  N3  UNL     1     -17.120  39.158 -12.547  1.00  0.00    -0.211 N 
HETATM    4  C7  UNL     1     -16.306  40.159 -13.216  1.00  0.00     0.503 C 
HETATM    5  N5  UNL     1     -16.737  40.382 -14.581  1.00  0.00    -0.031 N 
ATOM      6  H51 UNL     1     -16.166  41.085 -15.051  1.00  0.00     0.279 HD
ATOM      7  H52 UNL     1     -17.728  40.622 -14.622  1.00  0.00     0.279 HD
ATOM      8  H53 UNL     1     -16.761  39.511 -15.110  1.00  0.00     0.279 HD
HETATM    9  N6  UNL     1     -16.393  41.399 -12.510  1.00  0.00    -0.031 N 
ATOM     10  H61 UNL     1     -15.821  42.101 -12.980  1.00  0.00     0.279 HD
ATOM     11  H62 UNL     1     -16.145  41.298 -11.526  1.00  0.00     0.279 HD
ATOM     12  H63 UNL     1     -17.358  41.705 -12.389  1.00  0.00     0.279 HD
ENDROOT
BRANCH   3  13
HETATM   13  N4  UNL     1     -18.489  39.389 -12.439  1.00  0.00    -0.337 N 
ATOM     14  H42 UNL     1     -19.069  39.243 -13.266  1.00  0.00     0.177 HD
ATOM     15  H41 UNL     1     -18.869  39.695 -11.544  1.00  0.00     0.177 HD
ENDBRANCH   3  13
BRANCH   1  16
HETATM   16  C5  UNL     1     -17.457  37.008 -11.346  1.00  0.00     0.187 C 
HETATM   17  C4  UNL     1     -18.415  37.600 -10.342  1.00  0.00     0.088 C 
HETATM   18  N2  UNL     1     -18.669  36.724  -9.278  1.00  0.00    -0.349 N 
HETATM   19  C3  UNL     1     -17.848  35.813  -8.997  1.00  0.00     0.142 C 
ATOM     20  H2  UNL     1     -19.522  36.825  -8.728  1.00  0.00     0.167 HD
HETATM   21  S1  UNL     1     -16.513  35.937 -10.170  1.00  0.00    -0.074 SA
BRANCH  19  22
HETATM   22  N1  UNL     1     -17.953  34.868  -7.976  1.00  0.00    -0.370 N 
HETATM   23  C1  UNL     1     -18.777  35.061  -6.808  1.00  0.00     0.151 C 
HETATM   24  C2  UNL     1     -17.209  33.605  -8.054  1.00  0.00     0.151 C 
ENDBRANCH  19  22
ENDBRANCH   1  16
TORSDOF 3
ENDMDL
MODEL 5
REMARK VINA RESULT: -5.486629878      2.087      2.990
REMARK  3 active torsions:
REMARK  status: ('A' for Active; 'I' for Inactive)
REMARK    1  A    between atoms: N1_2  and  C3_4 
REMARK    2  A    between atoms: C5_8  and  C6_9 
REMARK       I    between atoms: C6_9  and  N3_11 
REMARK    3  A    between atoms: N3_11  and  N4_12 
REMARK       I    between atoms: N3_11  and  C7_15 
REMARK       I    between atoms: C7_15  and  N5_16 
REMARK       I    between atoms: C7_15  and  N6_20 
ROOT
HETATM    1  C6  UNL     1     -16.285  38.514 -12.287  1.00  0.00     0.260 C 
HETATM    2  O1  UNL     1     -15.057  38.553 -12.576  1.00  0.00    -0.270 OA
HETATM    3  N3  UNL     1     -17.074  39.587 -12.768  1.00  0.00    -0.211 N 
HETATM    4  C7  UNL     1     -16.524  40.682 -13.549  1.00  0.00     0.503 C 
HETATM    5  N5  UNL     1     -17.156  40.790 -14.848  1.00  0.00    -0.031 N 
ATOM      6  H51 UNL     1     -16.770  41.558 -15.397  1.00  0.00     0.279 HD
ATOM      7  H52 UNL     1     -18.169  40.868 -14.763  1.00  0.00     0.279 HD
ATOM      8  H53 UNL     1     -17.106  39.909 -15.359  1.00  0.00     0.279 HD
HETATM    9  N6  UNL     1     -16.719  41.915 -12.852  1.00  0.00    -0.031 N 
ATOM     10  H61 UNL     1     -16.333  42.683 -13.401  1.00  0.00     0.279 HD
ATOM     11  H62 UNL     1     -16.336  41.887 -11.908  1.00  0.00     0.279 HD
ATOM     12  H63 UNL     1     -17.698  42.068 -12.610  1.00  0.00     0.279 HD
ENDROOT
BRANCH   3  13
HETATM   13  N4  UNL     1     -18.437  39.602 -12.485  1.00  0.00    -0.337 N 
ATOM     14  H42 UNL     1     -18.870  38.738 -12.157  1.00  0.00     0.177 HD
ATOM     15  H41 UNL     1     -18.959  40.469 -12.612  1.00  0.00     0.177 HD
ENDBRANCH   3  13
BRANCH   1  16
HETATM   16  C5  UNL     1     -16.904  37.451 -11.508  1.00  0.00     0.187 C 
HETATM   17  C4  UNL     1     -16.912  37.671 -10.015  1.00  0.00     0.088 C 
HETATM   18  N2  UNL     1     -16.800  36.467  -9.306  1.00  0.00    -0.349 N 
HETATM   19  C3  UNL     1     -16.295  35.453  -9.854  1.00  0.00     0.142 C 
ATOM     20  H2  UNL     1     -17.130  36.413  -8.342  1.00  0.00     0.167 HD
HETATM   21  S1  UNL     1     -15.863  35.923 -11.517  1.00  0.00    -0.074 SA
BRANCH  19  22
HETATM   22  N1  UNL     1     -16.114  34.191  -9.287  1.00  0.00    -0.370 N 
HETATM   23  C1  UNL     1     -16.916  33.697  -8.195  1.00  0.00     0.151 C 
HETATM   24  C2  UNL     1     -15.070  33.293  -9.795  1.00  0.00     0.151 C 
ENDBRANCH  19  22
ENDBRANCH   1  16
TORSDOF 3
ENDMDL
