MODEL 1
REMARK VINA RESULT: -7.532496714      0.000      0.000
REMARK  4 active torsions:
REMARK  status: ('A' for Active; 'I' for Inactive)
REMARK       I    between atoms: C2_2  and  N1_4 
REMARK    1  A    between atoms: N2_7  and  C5_8 
REMARK    2  A    between atoms: C6_9  and  C7_10 
REMARK    3  A    between atoms: C7_10  and  O2_11 
REMARK    4  A    between atoms: N3_13  and  N4_15 
ROOT
HETATM    1  C1  UNL     1     -15.080  35.054  -5.609  1.00  0.00     0.117 C 
HETATM    2  C2  UNL     1     -16.518  35.070  -5.940  1.00  0.00     0.222 C 
HETATM    3  O1  UNL     1     -17.354  35.008  -5.016  1.00  0.00    -0.273 OA
HETATM    4  N1  UNL     1     -16.905  35.155  -7.306  1.00  0.00    -0.289 N 
HETATM    5  C3  UNL     1     -15.898  35.224  -8.341  1.00  0.00     0.156 C 
HETATM    6  C4  UNL     1     -16.491  35.276  -9.707  1.00  0.00     0.168 C 
HETATM    7  N2  UNL     1     -17.699  36.108  -9.616  1.00  0.00    -0.299 N 
HETATM    8  N5  UNL     1     -18.673  35.645  -8.753  1.00  0.00    -0.271 N 
ATOM      9  H5  UNL     1     -19.657  35.680  -9.016  1.00  0.00     0.190 HD
HETATM   10  C8  UNL     1     -18.318  35.169  -7.607  1.00  0.00     0.212 C 
HETATM   11  N6  UNL     1     -19.256  34.673  -6.663  1.00  0.00    -0.062 NA
ENDROOT
BRANCH   7  12
HETATM   12  C5  UNL     1     -17.760  37.272 -10.396  1.00  0.00     0.114 C 
HETATM   13  C6  UNL     1     -17.051  37.366 -11.502  1.00  0.00     0.076 C 
BRANCH  13  14
HETATM   14  C7  UNL     1     -17.070  38.541 -12.350  1.00  0.00     0.155 C 
HETATM   15  N3  UNL     1     -18.039  39.376 -12.265  1.00  0.00    -0.287 N 
ATOM     16  H3  UNL     1     -18.796  39.214 -11.602  1.00  0.00     0.188 HD
BRANCH  14  17
HETATM   17  O2  UNL     1     -16.047  38.760 -13.244  1.00  0.00    -0.345 OA
ATOM     18  H2  UNL     1     -15.884  39.636 -13.574  1.00  0.00     0.219 HD
ENDBRANCH  14  17
BRANCH  15  19
HETATM   19  N4  UNL     1     -18.055  40.508 -13.081  1.00  0.00    -0.343 N 
ATOM     20  H42 UNL     1     -17.290  41.180 -13.013  1.00  0.00     0.176 HD
ATOM     21  H41 UNL     1     -18.825  40.651 -13.734  1.00  0.00     0.176 HD
ENDBRANCH  15  19
ENDBRANCH  13  14
ENDBRANCH   7  12
TORSDOF 4
ENDMDL
MODEL 2
REMARK VINA RESULT: -7.379670890      1.973      2.858
REMARK  4 active torsions:
REMARK  status: ('A' for Active; 'I' for Inactive)
REMARK       I    between atoms: C2_2  and  N1_4 
REMARK    1  A    between atoms: N2_7  and  C5_8 
REMARK    2  A    between atoms: C6_9  and  C7_10 
REMARK    3  A    between atoms: C7_10  and  O2_11 
REMARK    4  A    between atoms: N3_13  and  N4_15 
ROOT
HETATM    1  C1  UNL     1     -16.784  35.236  -7.530  1.00  0.00     0.117 C 
HETATM    2  C2  UNL     1     -17.938  35.664  -8.345  1.00  0.00     0.222 C 
HETATM    3  O1  UNL     1     -19.084  35.594  -7.857  1.00  0.00    -0.273 OA
HETATM    4  N1  UNL     1     -17.704  36.144  -9.662  1.00  0.00    -0.289 N 
HETATM    5  C3  UNL     1     -16.356  36.207 -10.182  1.00  0.00     0.156 C 
HETATM    6  C4  UNL     1     -16.312  36.704 -11.586  1.00  0.00     0.168 C 
HETATM    7  N2  UNL     1     -17.335  37.754 -11.699  1.00  0.00    -0.299 N 
HETATM    8  N5  UNL     1     -18.629  37.351 -11.437  1.00  0.00    -0.271 N 
ATOM      9  H5  UNL     1     -19.400  37.675 -12.020  1.00  0.00     0.190 HD
HETATM   10  C8  UNL     1     -18.848  36.558 -10.442  1.00  0.00     0.212 C 
HETATM   11  N6  UNL     1     -20.148  36.096 -10.105  1.00  0.00    -0.062 NA
ENDROOT
BRANCH   7  12
HETATM   12  C5  UNL     1     -16.919  39.045 -12.056  1.00  0.00     0.114 C 
HETATM   13  C6  UNL     1     -17.456  39.650 -13.095  1.00  0.00     0.076 C 
BRANCH  13  14
HETATM   14  C7  UNL     1     -17.069  40.982 -13.515  1.00  0.00     0.155 C 
HETATM   15  N3  UNL     1     -17.954  41.906 -13.608  1.00  0.00    -0.287 N 
ATOM     16  H3  UNL     1     -18.929  41.704 -13.387  1.00  0.00     0.188 HD
BRANCH  14  17
HETATM   17  O2  UNL     1     -15.754  41.255 -13.813  1.00  0.00    -0.345 OA
ATOM     18  H2  UNL     1     -15.170  40.553 -14.072  1.00  0.00     0.219 HD
ENDBRANCH  14  17
BRANCH  15  19
HETATM   19  N4  UNL     1     -17.580  43.188 -14.013  1.00  0.00    -0.343 N 
ATOM     20  H42 UNL     1     -18.264  43.778 -14.487  1.00  0.00     0.176 HD
ATOM     21  H41 UNL     1     -16.633  43.521 -13.832  1.00  0.00     0.176 HD
ENDBRANCH  15  19
ENDBRANCH  13  14
ENDBRANCH   7  12
TORSDOF 4
ENDMDL
MODEL 3
REMARK VINA RESULT: -7.042901042      2.164      2.929
REMARK  4 active torsions:
REMARK  status: ('A' for Active; 'I' for Inactive)
REMARK       I    between atoms: C2_2  and  N1_4 
REMARK    1  A    between atoms: N2_7  and  C5_8 
REMARK    2  A    between atoms: C6_9  and  C7_10 
REMARK    3  A    between atoms: C7_10  and  O2_11 
REMARK    4  A    between atoms: N3_13  and  N4_15 
ROOT
HETATM    1  C1  UNL     1     -18.428  34.311  -7.428  1.00  0.00     0.117 C 
HETATM    2  C2  UNL     1     -17.391  34.098  -8.456  1.00  0.00     0.222 C 
HETATM    3  O1  UNL     1     -16.945  32.947  -8.637  1.00  0.00    -0.273 OA
HETATM    4  N1  UNL     1     -16.933  35.214  -9.207  1.00  0.00    -0.289 N 
HETATM    5  C3  UNL     1     -17.482  36.529  -8.959  1.00  0.00     0.156 C 
HETATM    6  C4  UNL     1     -16.858  37.575  -9.818  1.00  0.00     0.168 C 
HETATM    7  N2  UNL     1     -16.630  36.965 -11.135  1.00  0.00    -0.299 N 
HETATM    8  N5  UNL     1     -15.796  35.865 -11.142  1.00  0.00    -0.271 N 
ATOM      9  H5  UNL     1     -15.096  35.750 -11.875  1.00  0.00     0.190 HD
HETATM   10  C8  UNL     1     -15.917  34.983 -10.208  1.00  0.00     0.212 C 
HETATM   11  N6  UNL     1     -15.099  33.823 -10.142  1.00  0.00    -0.062 NA
ENDROOT
BRANCH   7  12
HETATM   12  C5  UNL     1     -17.263  37.540 -12.248  1.00  0.00     0.114 C 
HETATM   13  C6  UNL     1     -16.964  38.768 -12.618  1.00  0.00     0.076 C 
BRANCH  13  14
HETATM   14  C7  UNL     1     -17.582  39.418 -13.757  1.00  0.00     0.155 C 
HETATM   15  N3  UNL     1     -18.149  40.559 -13.612  1.00  0.00    -0.287 N 
ATOM     16  H3  UNL     1     -18.166  41.009 -12.697  1.00  0.00     0.188 HD
BRANCH  14  17
HETATM   17  O2  UNL     1     -17.559  38.811 -14.992  1.00  0.00    -0.345 OA
ATOM     18  H2  UNL     1     -18.226  39.019 -15.635  1.00  0.00     0.219 HD
ENDBRANCH  14  17
BRANCH  15  19
HETATM   19  N4  UNL     1     -18.744  41.184 -14.709  1.00  0.00    -0.343 N 
ATOM     20  H42 UNL     1     -19.389  40.652 -15.293  1.00  0.00     0.176 HD
ATOM     21  H41 UNL     1     -18.529  42.159 -14.915  1.00  0.00     0.176 HD
ENDBRANCH  15  19
ENDBRANCH  13  14
ENDBRANCH   7  12
TORSDOF 4
ENDMDL
MODEL 4
REMARK VINA RESULT: -6.838848794      2.840      7.502
REMARK  4 active torsions:
REMARK  status: ('A' for Active; 'I' for Inactive)
REMARK       I    between atoms: C2_2  and  N1_4 
REMARK    1  A    between atoms: N2_7  and  C5_8 
REMARK    2  A    between atoms: C6_9  and  C7_10 
REMARK    3  A    between atoms: C7_10  and  O2_11 
REMARK    4  A    between atoms: N3_13  and  N4_15 
ROOT
HETATM    1  C1  UNL     1     -17.031  43.178 -13.704  1.00  0.00     0.117 C 
HETATM    2  C2  UNL     1     -15.890  42.258 -13.530  1.00  0.00     0.222 C 
HETATM    3  O1  UNL     1     -14.731  42.715 -13.585  1.00  0.00    -0.273 OA
HETATM    4  N1  UNL     1     -16.151  40.879 -13.305  1.00  0.00    -0.289 N 
HETATM    5  C3  UNL     1     -17.513  40.399 -13.250  1.00  0.00     0.156 C 
HETATM    6  C4  UNL     1     -17.588  38.926 -13.039  1.00  0.00     0.168 C 
HETATM    7  N2  UNL     1     -16.506  38.573 -12.108  1.00  0.00    -0.299 N 
HETATM    8  N5  UNL     1     -15.230  38.871 -12.544  1.00  0.00    -0.271 N 
ATOM      9  H5  UNL     1     -14.466  38.212 -12.398  1.00  0.00     0.190 HD
HETATM   10  C8  UNL     1     -15.018  39.997 -13.137  1.00  0.00     0.212 C 
HETATM   11  N6  UNL     1     -13.737  40.380 -13.615  1.00  0.00    -0.062 NA
ENDROOT
BRANCH   7  12
HETATM   12  C5  UNL     1     -16.853  37.977 -10.887  1.00  0.00     0.114 C 
HETATM   13  C6  UNL     1     -16.707  36.679 -10.718  1.00  0.00     0.076 C 
BRANCH  13  14
HETATM   14  C7  UNL     1     -17.048  36.004  -9.482  1.00  0.00     0.155 C 
HETATM   15  N3  UNL     1     -16.181  35.916  -8.541  1.00  0.00    -0.287 N 
ATOM     16  H3  UNL     1     -15.252  36.319  -8.662  1.00  0.00     0.188 HD
BRANCH  14  17
HETATM   17  O2  UNL     1     -18.301  35.460  -9.318  1.00  0.00    -0.345 OA
ATOM     18  H2  UNL     1     -18.529  35.029  -8.503  1.00  0.00     0.219 HD
ENDBRANCH  14  17
BRANCH  15  19
HETATM   19  N4  UNL     1     -16.511  35.266  -7.351  1.00  0.00    -0.343 N 
ATOM     20  H42 UNL     1     -17.476  35.294  -7.021  1.00  0.00     0.176 HD
ATOM     21  H41 UNL     1     -15.790  34.772  -6.825  1.00  0.00     0.176 HD
ENDBRANCH  15  19
ENDBRANCH  13  14
ENDBRANCH   7  12
TORSDOF 4
ENDMDL
MODEL 5
REMARK VINA RESULT: -6.800564855      2.060      2.943
REMARK  4 active torsions:
REMARK  status: ('A' for Active; 'I' for Inactive)
REMARK       I    between atoms: C2_2  and  N1_4 
REMARK    1  A    between atoms: N2_7  and  C5_8 
REMARK    2  A    between atoms: C6_9  and  C7_10 
REMARK    3  A    between atoms: C7_10  and  O2_11 
REMARK    4  A    between atoms: N3_13  and  N4_15 
ROOT
HETATM    1  C1  UNL     1     -16.730  35.329  -7.563  1.00  0.00     0.117 C 
HETATM    2  C2  UNL     1     -17.908  35.699  -8.371  1.00  0.00     0.222 C 
HETATM    3  O1  UNL     1     -19.046  35.562  -7.881  1.00  0.00    -0.273 OA
HETATM    4  N1  UNL     1     -17.705  36.199  -9.687  1.00  0.00    -0.289 N 
HETATM    5  C3  UNL     1     -16.365  36.339 -10.210  1.00  0.00     0.156 C 
HETATM    6  C4  UNL     1     -16.352  36.847 -11.611  1.00  0.00     0.168 C 
HETATM    7  N2  UNL     1     -17.431  37.841 -11.713  1.00  0.00    -0.299 N 
HETATM    8  N5  UNL     1     -18.701  37.365 -11.450  1.00  0.00    -0.271 N 
ATOM      9  H5  UNL     1     -19.490  37.650 -12.028  1.00  0.00     0.190 HD
HETATM   10  C8  UNL     1     -18.872  36.555 -10.460  1.00  0.00     0.212 C 
HETATM   11  N6  UNL     1     -20.144  36.021 -10.123  1.00  0.00    -0.062 NA
ENDROOT
BRANCH   7  12
HETATM   12  C5  UNL     1     -17.088  39.155 -12.063  1.00  0.00     0.114 C 
HETATM   13  C6  UNL     1     -15.844  39.453 -12.378  1.00  0.00     0.076 C 
BRANCH  13  14
HETATM   14  C7  UNL     1     -15.425  40.790 -12.747  1.00  0.00     0.155 C 
HETATM   15  N3  UNL     1     -16.114  41.803 -12.367  1.00  0.00    -0.287 N 
ATOM     16  H3  UNL     1     -16.955  41.669 -11.806  1.00  0.00     0.188 HD
BRANCH  14  17
HETATM   17  O2  UNL     1     -14.289  40.972 -13.502  1.00  0.00    -0.345 OA
ATOM     18  H2  UNL     1     -14.239  40.611 -14.379  1.00  0.00     0.219 HD
ENDBRANCH  14  17
BRANCH  15  19
HETATM   19  N4  UNL     1     -15.709  43.091 -12.722  1.00  0.00    -0.343 N 
ATOM     20  H42 UNL     1     -14.749  43.379 -12.531  1.00  0.00     0.176 HD
ATOM     21  H41 UNL     1     -16.372  43.727 -13.165  1.00  0.00     0.176 HD
ENDBRANCH  15  19
ENDBRANCH  13  14
ENDBRANCH   7  12
TORSDOF 4
ENDMDL
