MODEL 1
REMARK VINA RESULT: -7.186850427      0.000      0.000
REMARK  5 active torsions:
REMARK  status: ('A' for Active; 'I' for Inactive)
REMARK    1  A    between atoms: C2_2  and  C4_4 
REMARK    2  A    between atoms: C2_2  and  N5_17 
REMARK       I    between atoms: C4_4  and  N1_6 
REMARK    3  A    between atoms: N1_6  and  C5_8 
REMARK    4  A    between atoms: C5_8  and  C6_14 
REMARK    5  A    between atoms: N2_9  and  N3_11 
ROOT
HETATM    1  C4  UNL     1     -17.267  36.243 -10.022  1.00  0.00     0.251 C 
HETATM    2  O1  UNL     1     -18.443  36.137 -10.425  1.00  0.00    -0.270 OA
HETATM    3  N1  UNL     1     -16.419  37.248 -10.482  1.00  0.00    -0.306 N 
ATOM      4  H1  UNL     1     -15.484  37.226 -10.075  1.00  0.00     0.170 HD
ENDROOT
BRANCH   1   5
HETATM    5  C2  UNL     1     -16.791  35.225  -8.999  1.00  0.00     0.111 C 
HETATM    6  C1  UNL     1     -16.110  35.899  -7.845  1.00  0.00     0.049 C 
HETATM    7  C3  UNL     1     -18.009  34.515  -8.460  1.00  0.00     0.049 C 
BRANCH   5   8
HETATM    8  N5  UNL     1     -15.962  34.219  -9.638  1.00  0.00    -0.334 N 
HETATM    9  C7  UNL     1     -15.130  34.366 -10.679  1.00  0.00     0.110 A 
HETATM   10  C8  UNL     1     -14.525  33.168 -10.986  1.00  0.00     0.106 A 
HETATM   11  N6  UNL     1     -15.008  32.275 -10.107  1.00  0.00    -0.361 N 
HETATM   12  C9  UNL     1     -15.874  32.907  -9.294  1.00  0.00     0.183 A 
ATOM     13  H6  UNL     1     -14.761  31.287 -10.063  1.00  0.00     0.166 HD
ENDBRANCH   5   8
ENDBRANCH   1   5
BRANCH   3  14
HETATM   14  C5  UNL     1     -16.618  38.280 -11.400  1.00  0.00     0.188 C 
HETATM   15  N2  UNL     1     -17.885  38.582 -11.601  1.00  0.00    -0.288 N 
ATOM     16  H2  UNL     1     -18.558  38.032 -11.067  1.00  0.00     0.188 HD
BRANCH  15  17
HETATM   17  N3  UNL     1     -18.415  39.519 -12.414  1.00  0.00    -0.343 N 
ATOM     18  H32 UNL     1     -19.406  39.385 -12.619  1.00  0.00     0.176 HD
ATOM     19  H31 UNL     1     -17.964  40.327 -12.842  1.00  0.00     0.176 HD
ENDBRANCH  15  17
BRANCH  14  20
HETATM   20  C6  UNL     1     -15.696  39.065 -12.156  1.00  0.00     0.300 C 
HETATM   21  N4  UNL     1     -14.715  38.480 -13.048  1.00  0.00    -0.054 NA
HETATM   22  O2  UNL     1     -15.656  40.303 -12.115  1.00  0.00    -0.268 OA
ENDBRANCH  14  20
ENDBRANCH   3  14
TORSDOF 5
ENDMDL
MODEL 2
REMARK VINA RESULT: -7.094852143      2.973      6.475
REMARK  5 active torsions:
REMARK  status: ('A' for Active; 'I' for Inactive)
REMARK    1  A    between atoms: C2_2  and  C4_4 
REMARK    2  A    between atoms: C2_2  and  N5_17 
REMARK       I    between atoms: C4_4  and  N1_6 
REMARK    3  A    between atoms: N1_6  and  C5_8 
REMARK    4  A    between atoms: C5_8  and  C6_14 
REMARK    5  A    between atoms: N2_9  and  N3_11 
ROOT
HETATM    1  C4  UNL     1     -16.039  38.772 -12.026  1.00  0.00     0.251 C 
HETATM    2  O1  UNL     1     -15.308  37.800 -12.300  1.00  0.00    -0.270 OA
HETATM    3  N1  UNL     1     -17.101  38.665 -11.131  1.00  0.00    -0.306 N 
ATOM      4  H1  UNL     1     -17.622  39.532 -10.993  1.00  0.00     0.170 HD
ENDROOT
BRANCH   1   5
HETATM    5  C2  UNL     1     -15.725  40.091 -12.714  1.00  0.00     0.111 C 
HETATM    6  C1  UNL     1     -15.495  41.180 -11.710  1.00  0.00     0.049 C 
HETATM    7  C3  UNL     1     -14.444  39.907 -13.491  1.00  0.00     0.049 C 
BRANCH   5   8
HETATM    8  N5  UNL     1     -16.762  40.416 -13.676  1.00  0.00    -0.334 N 
HETATM    9  C7  UNL     1     -17.207  39.675 -14.701  1.00  0.00     0.110 A 
HETATM   10  C8  UNL     1     -18.203  40.341 -15.381  1.00  0.00     0.106 A 
HETATM   11  N6  UNL     1     -18.359  41.515 -14.749  1.00  0.00    -0.361 N 
HETATM   12  C9  UNL     1     -17.492  41.561 -13.722  1.00  0.00     0.183 A 
ATOM     13  H6  UNL     1     -19.023  42.246 -15.004  1.00  0.00     0.166 HD
ENDBRANCH   5   8
ENDBRANCH   1   5
BRANCH   3  14
HETATM   14  C5  UNL     1     -17.581  37.587 -10.387  1.00  0.00     0.188 C 
HETATM   15  N2  UNL     1     -16.680  37.035  -9.599  1.00  0.00    -0.288 N 
ATOM     16  H2  UNL     1     -15.752  37.458  -9.629  1.00  0.00     0.188 HD
BRANCH  15  17
HETATM   17  N3  UNL     1     -16.813  35.988  -8.760  1.00  0.00    -0.343 N 
ATOM     18  H32 UNL     1     -17.741  35.899  -8.344  1.00  0.00     0.176 HD
ATOM     19  H31 UNL     1     -16.121  35.288  -8.491  1.00  0.00     0.176 HD
ENDBRANCH  15  17
BRANCH  14  20
HETATM   20  C6  UNL     1     -18.871  36.978 -10.326  1.00  0.00     0.300 C 
HETATM   21  N4  UNL     1     -19.774  37.163  -9.208  1.00  0.00    -0.054 NA
HETATM   22  O2  UNL     1     -19.324  36.246 -11.217  1.00  0.00    -0.268 OA
ENDBRANCH  14  20
ENDBRANCH   3  14
TORSDOF 5
ENDMDL
MODEL 3
REMARK VINA RESULT: -6.977770552      2.445      6.334
REMARK  5 active torsions:
REMARK  status: ('A' for Active; 'I' for Inactive)
REMARK    1  A    between atoms: C2_2  and  C4_4 
REMARK    2  A    between atoms: C2_2  and  N5_17 
REMARK       I    between atoms: C4_4  and  N1_6 
REMARK    3  A    between atoms: N1_6  and  C5_8 
REMARK    4  A    between atoms: C5_8  and  C6_14 
REMARK    5  A    between atoms: N2_9  and  N3_11 
ROOT
HETATM    1  C4  UNL     1     -16.074  38.797 -12.047  1.00  0.00     0.251 C 
HETATM    2  O1  UNL     1     -15.448  37.793 -12.441  1.00  0.00    -0.270 OA
HETATM    3  N1  UNL     1     -17.131  38.698 -11.144  1.00  0.00    -0.306 N 
ATOM      4  H1  UNL     1     -17.560  39.592 -10.902  1.00  0.00     0.170 HD
ENDROOT
BRANCH   1   5
HETATM    5  C2  UNL     1     -15.636  40.145 -12.594  1.00  0.00     0.111 C 
HETATM    6  C1  UNL     1     -15.423  41.133 -11.486  1.00  0.00     0.049 C 
HETATM    7  C3  UNL     1     -14.313  39.947 -13.292  1.00  0.00     0.049 C 
BRANCH   5   8
HETATM    8  N5  UNL     1     -16.578  40.612 -13.596  1.00  0.00    -0.334 N 
HETATM    9  C7  UNL     1     -17.108  39.928 -14.621  1.00  0.00     0.110 A 
HETATM   10  C8  UNL     1     -17.962  40.730 -15.345  1.00  0.00     0.106 A 
HETATM   11  N6  UNL     1     -17.943  41.929 -14.741  1.00  0.00    -0.361 N 
HETATM   12  C9  UNL     1     -17.110  41.859 -13.688  1.00  0.00     0.183 A 
ATOM     13  H6  UNL     1     -18.471  42.752 -15.031  1.00  0.00     0.166 HD
ENDBRANCH   5   8
ENDBRANCH   1   5
BRANCH   3  14
HETATM   14  C5  UNL     1     -17.709  37.597 -10.511  1.00  0.00     0.188 C 
HETATM   15  N2  UNL     1     -19.016  37.519 -10.659  1.00  0.00    -0.288 N 
ATOM     16  H2  UNL     1     -19.441  38.263 -11.212  1.00  0.00     0.188 HD
BRANCH  15  17
HETATM   17  N3  UNL     1     -19.870  36.591 -10.181  1.00  0.00    -0.343 N 
ATOM     18  H32 UNL     1     -19.695  36.317  -9.214  1.00  0.00     0.176 HD
ATOM     19  H31 UNL     1     -20.653  36.137 -10.651  1.00  0.00     0.176 HD
ENDBRANCH  15  17
BRANCH  14  20
HETATM   20  C6  UNL     1     -17.138  36.544  -9.735  1.00  0.00     0.300 C 
HETATM   21  N4  UNL     1     -16.036  35.730 -10.207  1.00  0.00    -0.054 NA
HETATM   22  O2  UNL     1     -17.532  36.238  -8.601  1.00  0.00    -0.268 OA
ENDBRANCH  14  20
ENDBRANCH   3  14
TORSDOF 5
ENDMDL
MODEL 4
REMARK VINA RESULT: -6.911956087      1.652      1.912
REMARK  5 active torsions:
REMARK  status: ('A' for Active; 'I' for Inactive)
REMARK    1  A    between atoms: C2_2  and  C4_4 
REMARK    2  A    between atoms: C2_2  and  N5_17 
REMARK       I    between atoms: C4_4  and  N1_6 
REMARK    3  A    between atoms: N1_6  and  C5_8 
REMARK    4  A    between atoms: C5_8  and  C6_14 
REMARK    5  A    between atoms: N2_9  and  N3_11 
ROOT
HETATM    1  C4  UNL     1     -17.543  37.089 -11.133  1.00  0.00     0.251 C 
HETATM    2  O1  UNL     1     -18.629  36.740 -11.638  1.00  0.00    -0.270 OA
HETATM    3  N1  UNL     1     -16.782  38.126 -11.669  1.00  0.00    -0.306 N 
ATOM      4  H1  UNL     1     -15.916  38.313 -11.164  1.00  0.00     0.170 HD
ENDROOT
BRANCH   1   5
HETATM    5  C2  UNL     1     -17.077  36.332  -9.901  1.00  0.00     0.111 C 
HETATM    6  C1  UNL     1     -16.497  37.267  -8.882  1.00  0.00     0.049 C 
HETATM    7  C3  UNL     1     -18.288  35.676  -9.283  1.00  0.00     0.049 C 
BRANCH   5   8
HETATM    8  N5  UNL     1     -16.165  35.268 -10.278  1.00  0.00    -0.334 N 
HETATM    9  C7  UNL     1     -15.800  34.193  -9.564  1.00  0.00     0.110 A 
HETATM   10  C8  UNL     1     -14.913  33.419 -10.278  1.00  0.00     0.106 A 
HETATM   11  N6  UNL     1     -14.739  34.045 -11.453  1.00  0.00    -0.361 N 
HETATM   12  C9  UNL     1     -15.492  35.159 -11.454  1.00  0.00     0.183 A 
ATOM     13  H6  UNL     1     -14.137  33.730 -12.214  1.00  0.00     0.166 HD
ENDBRANCH   5   8
ENDBRANCH   1   5
BRANCH   3  14
HETATM   14  C5  UNL     1     -16.992  38.956 -12.771  1.00  0.00     0.188 C 
HETATM   15  N2  UNL     1     -17.905  39.886 -12.576  1.00  0.00    -0.288 N 
ATOM     16  H2  UNL     1     -18.343  39.886 -11.654  1.00  0.00     0.188 HD
BRANCH  15  17
HETATM   17  N3  UNL     1     -18.342  40.837 -13.425  1.00  0.00    -0.343 N 
ATOM     18  H32 UNL     1     -19.141  40.558 -13.995  1.00  0.00     0.176 HD
ATOM     19  H31 UNL     1     -17.985  41.782 -13.570  1.00  0.00     0.176 HD
ENDBRANCH  15  17
BRANCH  14  20
HETATM   20  C6  UNL     1     -16.393  38.978 -14.066  1.00  0.00     0.300 C 
HETATM   21  N4  UNL     1     -17.168  38.940 -15.290  1.00  0.00    -0.054 NA
HETATM   22  O2  UNL     1     -15.169  39.032 -14.254  1.00  0.00    -0.268 OA
ENDBRANCH  14  20
ENDBRANCH   3  14
TORSDOF 5
ENDMDL
MODEL 5
REMARK VINA RESULT: -6.904822686      2.610      6.576
REMARK  5 active torsions:
REMARK  status: ('A' for Active; 'I' for Inactive)
REMARK    1  A    between atoms: C2_2  and  C4_4 
REMARK    2  A    between atoms: C2_2  and  N5_17 
REMARK       I    between atoms: C4_4  and  N1_6 
REMARK    3  A    between atoms: N1_6  and  C5_8 
REMARK    4  A    between atoms: C5_8  and  C6_14 
REMARK    5  A    between atoms: N2_9  and  N3_11 
ROOT
HETATM    1  C4  UNL     1     -16.752  38.825 -12.629  1.00  0.00     0.251 C 
HETATM    2  O1  UNL     1     -17.657  38.349 -13.342  1.00  0.00    -0.270 OA
HETATM    3  N1  UNL     1     -16.630  38.500 -11.279  1.00  0.00    -0.306 N 
ATOM      4  H1  UNL     1     -15.849  38.956 -10.808  1.00  0.00     0.170 HD
ENDROOT
BRANCH   1   5
HETATM    5  C2  UNL     1     -15.776  39.782 -13.294  1.00  0.00     0.111 C 
HETATM    6  C1  UNL     1     -14.423  39.704 -12.652  1.00  0.00     0.049 C 
HETATM    7  C3  UNL     1     -15.626  39.353 -14.734  1.00  0.00     0.049 C 
BRANCH   5   8
HETATM    8  N5  UNL     1     -16.321  41.127 -13.307  1.00  0.00    -0.334 N 
HETATM    9  C7  UNL     1     -15.827  42.230 -12.726  1.00  0.00     0.110 A 
HETATM   10  C8  UNL     1     -16.642  43.312 -12.974  1.00  0.00     0.106 A 
HETATM   11  N6  UNL     1     -17.655  42.847 -13.722  1.00  0.00    -0.361 N 
HETATM   12  C9  UNL     1     -17.463  41.531 -13.923  1.00  0.00     0.183 A 
ATOM     13  H6  UNL     1     -18.436  43.397 -14.077  1.00  0.00     0.166 HD
ENDBRANCH   5   8
ENDBRANCH   1   5
BRANCH   3  14
HETATM   14  C5  UNL     1     -17.385  37.663 -10.456  1.00  0.00     0.188 C 
HETATM   15  N2  UNL     1     -18.684  37.874 -10.524  1.00  0.00    -0.288 N 
ATOM     16  H2  UNL     1     -18.977  38.614 -11.162  1.00  0.00     0.188 HD
BRANCH  15  17
HETATM   17  N3  UNL     1     -19.681  37.248  -9.866  1.00  0.00    -0.343 N 
ATOM     18  H32 UNL     1     -20.614  37.447 -10.228  1.00  0.00     0.176 HD
ATOM     19  H31 UNL     1     -19.625  36.612  -9.070  1.00  0.00     0.176 HD
ENDBRANCH  15  17
BRANCH  14  20
HETATM   20  C6  UNL     1     -17.001  36.622  -9.558  1.00  0.00     0.300 C 
HETATM   21  N4  UNL     1     -17.566  35.289  -9.614  1.00  0.00    -0.054 NA
HETATM   22  O2  UNL     1     -16.159  36.769  -8.660  1.00  0.00    -0.268 OA
ENDBRANCH  14  20
ENDBRANCH   3  14
TORSDOF 5
ENDMDL
