MODEL 1
REMARK VINA RESULT: -6.852274316      0.000      0.000
REMARK  6 active torsions:
REMARK  status: ('A' for Active; 'I' for Inactive)
REMARK    1  A    between atoms: C3_3  and  N1_5 
REMARK    2  A    between atoms: C3_3  and  O1_9 
REMARK    3  A    between atoms: O1_9  and  C5_10 
REMARK    4  A    between atoms: C5_10  and  O3_12 
REMARK    5  A    between atoms: O3_12  and  C6_13 
REMARK    6  A    between atoms: C6_13  and  S1_14 
ROOT
HETATM    1  C1  UNL     1     -19.652  36.720  -9.850  1.00  0.00     0.017 C 
HETATM    2  C2  UNL     1     -18.440  36.729  -9.889  1.00  0.00    -0.050 C 
HETATM    3  C3  UNL     1     -16.998  36.760  -9.936  1.00  0.00     0.293 C 
HETATM    4  C4  UNL     1     -16.387  36.458  -8.611  1.00  0.00     0.094 C 
ENDROOT
BRANCH   3   5
HETATM    5  N1  UNL     1     -16.529  35.730 -10.874  1.00  0.00    -0.035 N 
ATOM      6  H13 UNL     1     -16.815  35.919 -11.834  1.00  0.00     0.279 HD
ATOM      7  H12 UNL     1     -15.520  35.764 -11.017  1.00  0.00     0.279 HD
ATOM      8  H11 UNL     1     -16.845  34.817 -10.548  1.00  0.00     0.279 HD
ENDBRANCH   3   5
BRANCH   3   9
HETATM    9  O1  UNL     1     -16.513  37.995 -10.481  1.00  0.00    -0.247 OA
BRANCH   9  10
HETATM   10  C5  UNL     1     -16.311  38.034 -11.864  1.00  0.00     0.410 C 
HETATM   11  O2  UNL     1     -15.142  37.909 -12.323  1.00  0.00    -0.229 OA
BRANCH  10  12
HETATM   12  O3  UNL     1     -17.351  38.204 -12.758  1.00  0.00    -0.280 OA
BRANCH  12  13
HETATM   13  C6  UNL     1     -17.771  39.522 -13.074  1.00  0.00     0.345 C 
BRANCH  13  14
HETATM   14  S1  UNL     1     -17.314  40.011 -14.694  1.00  0.00     0.126 S 
HETATM   15  O4  UNL     1     -16.947  41.487 -14.684  1.00  0.00    -0.593 OA
HETATM   16  O5  UNL     1     -16.196  39.188 -15.249  1.00  0.00    -0.593 OA
HETATM   17  O6  UNL     1     -18.668  39.869 -15.682  1.00  0.00    -0.593 OA
ENDBRANCH  13  14
ENDBRANCH  12  13
ENDBRANCH  10  12
ENDBRANCH   9  10
ENDBRANCH   3   9
TORSDOF 6
ENDMDL
MODEL 2
REMARK VINA RESULT: -6.810215827      0.642      1.408
REMARK  6 active torsions:
REMARK  status: ('A' for Active; 'I' for Inactive)
REMARK    1  A    between atoms: C3_3  and  N1_5 
REMARK    2  A    between atoms: C3_3  and  O1_9 
REMARK    3  A    between atoms: O1_9  and  C5_10 
REMARK    4  A    between atoms: C5_10  and  O3_12 
REMARK    5  A    between atoms: O3_12  and  C6_13 
REMARK    6  A    between atoms: C6_13  and  S1_14 
ROOT
HETATM    1  C1  UNL     1     -19.728  36.714  -9.642  1.00  0.00     0.017 C 
HETATM    2  C2  UNL     1     -18.517  36.660  -9.666  1.00  0.00    -0.050 C 
HETATM    3  C3  UNL     1     -17.075  36.614  -9.695  1.00  0.00     0.293 C 
HETATM    4  C4  UNL     1     -16.497  36.298  -8.359  1.00  0.00     0.094 C 
ENDROOT
BRANCH   3   5
HETATM    5  N1  UNL     1     -16.650  35.549 -10.615  1.00  0.00    -0.035 N 
ATOM      6  H13 UNL     1     -17.373  34.842 -10.752  1.00  0.00     0.279 HD
ATOM      7  H12 UNL     1     -16.583  35.872 -11.580  1.00  0.00     0.279 HD
ATOM      8  H11 UNL     1     -15.775  35.150 -10.277  1.00  0.00     0.279 HD
ENDBRANCH   3   5
BRANCH   3   9
HETATM    9  O1  UNL     1     -16.519  37.815 -10.249  1.00  0.00    -0.247 OA
BRANCH   9  10
HETATM   10  C5  UNL     1     -16.389  37.862 -11.641  1.00  0.00     0.410 C 
HETATM   11  O2  UNL     1     -15.300  37.513 -12.172  1.00  0.00    -0.229 OA
BRANCH  10  12
HETATM   12  O3  UNL     1     -17.417  38.280 -12.465  1.00  0.00    -0.280 OA
BRANCH  12  13
HETATM   13  C6  UNL     1     -17.394  39.606 -12.966  1.00  0.00     0.345 C 
BRANCH  13  14
HETATM   14  S1  UNL     1     -16.895  39.690 -14.645  1.00  0.00     0.126 S 
HETATM   15  O4  UNL     1     -17.623  38.613 -15.435  1.00  0.00    -0.593 OA
HETATM   16  O5  UNL     1     -17.124  41.039 -15.247  1.00  0.00    -0.593 OA
HETATM   17  O6  UNL     1     -15.259  39.305 -14.721  1.00  0.00    -0.593 OA
ENDBRANCH  13  14
ENDBRANCH  12  13
ENDBRANCH  10  12
ENDBRANCH   9  10
ENDBRANCH   3   9
TORSDOF 6
ENDMDL
MODEL 3
REMARK VINA RESULT: -6.796892634      2.077      2.888
REMARK  6 active torsions:
REMARK  status: ('A' for Active; 'I' for Inactive)
REMARK    1  A    between atoms: C3_3  and  N1_5 
REMARK    2  A    between atoms: C3_3  and  O1_9 
REMARK    3  A    between atoms: O1_9  and  C5_10 
REMARK    4  A    between atoms: C5_10  and  O3_12 
REMARK    5  A    between atoms: O3_12  and  C6_13 
REMARK    6  A    between atoms: C6_13  and  S1_14 
ROOT
HETATM    1  C1  UNL     1     -15.721  35.602  -6.384  1.00  0.00     0.017 C 
HETATM    2  C2  UNL     1     -16.090  35.621  -7.539  1.00  0.00    -0.050 C 
HETATM    3  C3  UNL     1     -16.520  35.661  -8.916  1.00  0.00     0.293 C 
HETATM    4  C4  UNL     1     -15.743  34.724  -9.774  1.00  0.00     0.094 C 
ENDROOT
BRANCH   3   5
HETATM    5  N1  UNL     1     -17.929  35.249  -8.988  1.00  0.00    -0.035 N 
ATOM      6  H13 UNL     1     -18.109  34.389  -8.471  1.00  0.00     0.279 HD
ATOM      7  H12 UNL     1     -18.543  35.865  -8.456  1.00  0.00     0.279 HD
ATOM      8  H11 UNL     1     -18.203  35.178  -9.967  1.00  0.00     0.279 HD
ENDBRANCH   3   5
BRANCH   3   9
HETATM    9  O1  UNL     1     -16.507  36.999  -9.435  1.00  0.00    -0.247 OA
BRANCH   9  10
HETATM   10  C5  UNL     1     -16.825  37.150 -10.788  1.00  0.00     0.410 C 
HETATM   11  O2  UNL     1     -17.968  36.807 -11.197  1.00  0.00    -0.229 OA
BRANCH  10  12
HETATM   12  O3  UNL     1     -15.928  37.666 -11.705  1.00  0.00    -0.280 OA
BRANCH  12  13
HETATM   13  C6  UNL     1     -16.204  38.927 -12.293  1.00  0.00     0.345 C 
BRANCH  13  14
HETATM   14  S1  UNL     1     -14.878  39.523 -13.275  1.00  0.00     0.126 S 
HETATM   15  O4  UNL     1     -14.901  41.043 -13.271  1.00  0.00    -0.593 OA
HETATM   16  O5  UNL     1     -13.550  39.008 -12.820  1.00  0.00    -0.593 OA
HETATM   17  O6  UNL     1     -15.156  39.051 -14.865  1.00  0.00    -0.593 OA
ENDBRANCH  13  14
ENDBRANCH  12  13
ENDBRANCH  10  12
ENDBRANCH   9  10
ENDBRANCH   3   9
TORSDOF 6
ENDMDL
MODEL 4
REMARK VINA RESULT: -6.773263706      2.075      3.010
REMARK  6 active torsions:
REMARK  status: ('A' for Active; 'I' for Inactive)
REMARK    1  A    between atoms: C3_3  and  N1_5 
REMARK    2  A    between atoms: C3_3  and  O1_9 
REMARK    3  A    between atoms: O1_9  and  C5_10 
REMARK    4  A    between atoms: C5_10  and  O3_12 
REMARK    5  A    between atoms: O3_12  and  C6_13 
REMARK    6  A    between atoms: C6_13  and  S1_14 
ROOT
HETATM    1  C1  UNL     1     -15.720  35.605  -6.406  1.00  0.00     0.017 C 
HETATM    2  C2  UNL     1     -16.087  35.621  -7.562  1.00  0.00    -0.050 C 
HETATM    3  C3  UNL     1     -16.513  35.657  -8.939  1.00  0.00     0.293 C 
HETATM    4  C4  UNL     1     -15.735  34.716  -9.793  1.00  0.00     0.094 C 
ENDROOT
BRANCH   3   5
HETATM    5  N1  UNL     1     -17.923  35.245  -9.013  1.00  0.00    -0.035 N 
ATOM      6  H13 UNL     1     -18.046  34.369  -9.520  1.00  0.00     0.279 HD
ATOM      7  H12 UNL     1     -18.286  34.938  -8.111  1.00  0.00     0.279 HD
ATOM      8  H11 UNL     1     -18.469  36.007  -9.414  1.00  0.00     0.279 HD
ENDBRANCH   3   5
BRANCH   3   9
HETATM    9  O1  UNL     1     -16.498  36.993  -9.463  1.00  0.00    -0.247 OA
BRANCH   9  10
HETATM   10  C5  UNL     1     -16.818  37.140 -10.816  1.00  0.00     0.410 C 
HETATM   11  O2  UNL     1     -17.956  36.785 -11.226  1.00  0.00    -0.229 OA
BRANCH  10  12
HETATM   12  O3  UNL     1     -15.926  37.666 -11.732  1.00  0.00    -0.280 OA
BRANCH  12  13
HETATM   13  C6  UNL     1     -16.184  38.951 -12.275  1.00  0.00     0.345 C 
BRANCH  13  14
HETATM   14  S1  UNL     1     -14.924  39.491 -13.369  1.00  0.00     0.126 S 
HETATM   15  O4  UNL     1     -13.578  38.999 -12.860  1.00  0.00    -0.593 OA
HETATM   16  O5  UNL     1     -15.155  39.046 -14.778  1.00  0.00    -0.593 OA
HETATM   17  O6  UNL     1     -14.867  41.171 -13.307  1.00  0.00    -0.593 OA
ENDBRANCH  13  14
ENDBRANCH  12  13
ENDBRANCH  10  12
ENDBRANCH   9  10
ENDBRANCH   3   9
TORSDOF 6
ENDMDL
MODEL 5
REMARK VINA RESULT: -6.694951021      2.040      3.080
REMARK  6 active torsions:
REMARK  status: ('A' for Active; 'I' for Inactive)
REMARK    1  A    between atoms: C3_3  and  N1_5 
REMARK    2  A    between atoms: C3_3  and  O1_9 
REMARK    3  A    between atoms: O1_9  and  C5_10 
REMARK    4  A    between atoms: C5_10  and  O3_12 
REMARK    5  A    between atoms: O3_12  and  C6_13 
REMARK    6  A    between atoms: C6_13  and  S1_14 
ROOT
HETATM    1  C1  UNL     1     -15.719  35.585  -6.492  1.00  0.00     0.017 C 
HETATM    2  C2  UNL     1     -16.095  35.627  -7.644  1.00  0.00    -0.050 C 
HETATM    3  C3  UNL     1     -16.534  35.694  -9.017  1.00  0.00     0.293 C 
HETATM    4  C4  UNL     1     -15.745  34.792  -9.903  1.00  0.00     0.094 C 
ENDROOT
BRANCH   3   5
HETATM    5  N1  UNL     1     -17.936  35.258  -9.091  1.00  0.00    -0.035 N 
ATOM      6  H13 UNL     1     -18.336  35.392 -10.020  1.00  0.00     0.279 HD
ATOM      7  H12 UNL     1     -18.032  34.244  -9.041  1.00  0.00     0.279 HD
ATOM      8  H11 UNL     1     -18.469  35.736  -8.365  1.00  0.00     0.279 HD
ENDBRANCH   3   5
BRANCH   3   9
HETATM    9  O1  UNL     1     -16.547  37.045  -9.502  1.00  0.00    -0.247 OA
BRANCH   9  10
HETATM   10  C5  UNL     1     -16.867  37.223 -10.852  1.00  0.00     0.410 C 
HETATM   11  O2  UNL     1     -18.010  36.888 -11.267  1.00  0.00    -0.229 OA
BRANCH  10  12
HETATM   12  O3  UNL     1     -15.971  37.758 -11.759  1.00  0.00    -0.280 OA
BRANCH  12  13
HETATM   13  C6  UNL     1     -16.308  38.966 -12.420  1.00  0.00     0.345 C 
BRANCH  13  14
HETATM   14  S1  UNL     1     -14.995  39.596 -13.396  1.00  0.00     0.126 S 
HETATM   15  O4  UNL     1     -15.134  39.071 -14.816  1.00  0.00    -0.593 OA
HETATM   16  O5  UNL     1     -14.935  41.090 -13.384  1.00  0.00    -0.593 OA
HETATM   17  O6  UNL     1     -13.554  38.965 -12.798  1.00  0.00    -0.593 OA
ENDBRANCH  13  14
ENDBRANCH  12  13
ENDBRANCH  10  12
ENDBRANCH   9  10
ENDBRANCH   3   9
TORSDOF 6
ENDMDL
