MODEL 1
REMARK VINA RESULT: -8.834391386      0.000      0.000
REMARK  14 active torsions:
REMARK  status: ('A' for Active; 'I' for Inactive)
REMARK    1  A    between atoms: C2_2  and  C3_3 
REMARK    2  A    between atoms: C3_3  and  C4_4 
REMARK    3  A    between atoms: C4_4  and  N1_5 
REMARK    4  A    between atoms: N1_5  and  C5_7 
REMARK    5  A    between atoms: C6_10  and  N3_11 
REMARK    6  A    between atoms: N3_11  and  C7_13 
REMARK    7  A    between atoms: C7_13  and  C8_14 
REMARK    8  A    between atoms: C8_14  and  C9_15 
REMARK    9  A    between atoms: C9_15  and  C10_16 
REMARK   10  A    between atoms: C13_19  and  O1_20 
REMARK   11  A    between atoms: O1_20  and  C14_21 
REMARK   12  A    between atoms: C14_21  and  C15_22 
REMARK   13  A    between atoms: C24_33  and  N5_34 
REMARK   14  A    between atoms: N5_34  and  O2_36 
ROOT
HETATM    1  N3  UNL     1      28.935  44.633  33.773  1.00  0.00    -0.225 N 
ATOM      2  H3  UNL     1      28.327  45.353  34.163  1.00  0.00     0.177 HD
ENDROOT
BRANCH   1   3
HETATM    3  C6  UNL     1      28.506  43.910  32.805  1.00  0.00     0.707 A 
HETATM    4  N2  UNL     1      27.627  42.914  33.118  1.00  0.00    -0.022 N 
HETATM    5  C5  UNL     1      27.103  42.081  32.206  1.00  0.00     0.707 A 
ATOM      6  H2  UNL     1      27.355  42.797  34.094  1.00  0.00     0.203 HD
HETATM    7  N6  UNL     1      27.473  42.249  30.924  1.00  0.00    -0.020 N 
HETATM    8  C24 UNL     1      28.339  43.217  30.557  1.00  0.00     0.731 A 
ATOM      9  H6  UNL     1      27.089  41.629  30.211  1.00  0.00     0.203 HD
HETATM   10  N4  UNL     1      28.851  44.045  31.517  1.00  0.00    -0.020 N 
ATOM     11  H4  UNL     1      29.507  44.778  31.247  1.00  0.00     0.203 HD
BRANCH   5  12
HETATM   12  N1  UNL     1      26.277  41.156  32.556  1.00  0.00    -0.225 N 
ATOM     13  H1  UNL     1      25.272  41.334  32.559  1.00  0.00     0.177 HD
BRANCH  12  14
HETATM   14  C4  UNL     1      26.795  39.861  32.945  1.00  0.00     0.138 C 
BRANCH  14  15
HETATM   15  C3  UNL     1      26.323  39.531  34.354  1.00  0.00     0.020 C 
BRANCH  15  16
HETATM   16  C2  UNL     1      27.326  40.008  35.385  1.00  0.00    -0.003 C 
HETATM   17  C1  UNL     1      26.782  39.687  36.759  1.00  0.00     0.005 C 
ENDBRANCH  15  16
ENDBRANCH  14  15
ENDBRANCH  12  14
ENDBRANCH   5  12
BRANCH   8  18
HETATM   18  N5  UNL     1      28.706  43.400  29.349  1.00  0.00    -0.096 N 
ATOM     19  H5  UNL     1      29.698  43.538  29.153  1.00  0.00     0.213 HD
BRANCH  18  20
HETATM   20  O2  UNL     1      27.820  43.416  28.310  1.00  0.00    -0.271 OA
HETATM   21  C25 UNL     1      28.023  42.669  27.124  1.00  0.00     0.238 C 
ENDBRANCH  18  20
ENDBRANCH   8  18
ENDBRANCH   1   3
BRANCH   1  22
HETATM   22  C7  UNL     1      30.241  44.452  34.317  1.00  0.00     0.138 C 
BRANCH  22  23
HETATM   23  C8  UNL     1      30.202  43.791  35.689  1.00  0.00     0.025 C 
BRANCH  23  24
HETATM   24  C9  UNL     1      30.365  42.287  35.514  1.00  0.00     0.040 C 
BRANCH  24  25
HETATM   25  C10 UNL     1      30.145  41.642  36.831  1.00  0.00    -0.058 A 
HETATM   26  C11 UNL     1      30.615  40.385  37.123  1.00  0.00     0.010 A 
HETATM   27  C12 UNL     1      30.424  39.781  38.339  1.00  0.00     0.037 A 
HETATM   28  C13 UNL     1      29.721  40.451  39.346  1.00  0.00     0.069 A 
HETATM   29  C22 UNL     1      29.236  41.712  39.085  1.00  0.00     0.037 A 
HETATM   30  C23 UNL     1      29.455  42.290  37.832  1.00  0.00     0.010 A 
BRANCH  28  31
HETATM   31  O1  UNL     1      29.533  39.840  40.556  1.00  0.00    -0.347 OA
BRANCH  31  32
HETATM   32  C14 UNL     1      29.793  40.371  41.806  1.00  0.00     0.214 C 
BRANCH  32  33
HETATM   33  C15 UNL     1      31.203  40.204  42.238  1.00  0.00    -0.034 A 
HETATM   34  C16 UNL     1      31.455  39.302  43.261  1.00  0.00     0.010 A 
HETATM   35  C17 UNL     1      32.740  39.123  43.685  1.00  0.00     0.007 A 
HETATM   36  C18 UNL     1      33.797  39.816  43.124  1.00  0.00    -0.062 A 
HETATM   37  C19 UNL     1      35.181  39.594  43.611  1.00  0.00     0.048 C 
HETATM   38  C20 UNL     1      33.552  40.707  42.113  1.00  0.00     0.007 A 
HETATM   39  C21 UNL     1      32.258  40.894  41.679  1.00  0.00     0.010 A 
ENDBRANCH  32  33
ENDBRANCH  31  32
ENDBRANCH  28  31
ENDBRANCH  24  25
ENDBRANCH  23  24
ENDBRANCH  22  23
ENDBRANCH   1  22
TORSDOF 14
ENDMDL
MODEL 2
REMARK VINA RESULT: -8.719540351      1.812      4.270
REMARK  14 active torsions:
REMARK  status: ('A' for Active; 'I' for Inactive)
REMARK    1  A    between atoms: C2_2  and  C3_3 
REMARK    2  A    between atoms: C3_3  and  C4_4 
REMARK    3  A    between atoms: C4_4  and  N1_5 
REMARK    4  A    between atoms: N1_5  and  C5_7 
REMARK    5  A    between atoms: C6_10  and  N3_11 
REMARK    6  A    between atoms: N3_11  and  C7_13 
REMARK    7  A    between atoms: C7_13  and  C8_14 
REMARK    8  A    between atoms: C8_14  and  C9_15 
REMARK    9  A    between atoms: C9_15  and  C10_16 
REMARK   10  A    between atoms: C13_19  and  O1_20 
REMARK   11  A    between atoms: O1_20  and  C14_21 
REMARK   12  A    between atoms: C14_21  and  C15_22 
REMARK   13  A    between atoms: C24_33  and  N5_34 
REMARK   14  A    between atoms: N5_34  and  O2_36 
ROOT
HETATM    1  N3  UNL     1      29.184  44.910  33.259  1.00  0.00    -0.225 N 
ATOM      2  H3  UNL     1      28.529  45.655  33.493  1.00  0.00     0.177 HD
ENDROOT
BRANCH   1   3
HETATM    3  C6  UNL     1      28.744  43.842  32.704  1.00  0.00     0.707 A 
HETATM    4  N2  UNL     1      28.934  43.720  31.358  1.00  0.00    -0.022 N 
HETATM    5  C5  UNL     1      28.522  42.659  30.649  1.00  0.00     0.707 A 
ATOM      6  H2  UNL     1      29.413  44.475  30.866  1.00  0.00     0.203 HD
HETATM    7  N6  UNL     1      27.891  41.674  31.312  1.00  0.00    -0.020 N 
HETATM    8  C24 UNL     1      27.675  41.741  32.644  1.00  0.00     0.731 A 
ATOM      9  H6  UNL     1      27.567  40.855  30.797  1.00  0.00     0.203 HD
HETATM   10  N4  UNL     1      28.111  42.839  33.329  1.00  0.00    -0.020 N 
ATOM     11  H4  UNL     1      27.951  42.897  34.335  1.00  0.00     0.203 HD
BRANCH   5  12
HETATM   12  N1  UNL     1      28.726  42.594  29.378  1.00  0.00    -0.225 N 
ATOM     13  H1  UNL     1      29.600  42.216  29.013  1.00  0.00     0.177 HD
BRANCH  12  14
HETATM   14  C4  UNL     1      27.696  43.067  28.476  1.00  0.00     0.138 C 
BRANCH  14  15
HETATM   15  C3  UNL     1      27.463  42.027  27.389  1.00  0.00     0.020 C 
BRANCH  15  16
HETATM   16  C2  UNL     1      28.768  41.635  26.727  1.00  0.00    -0.003 C 
HETATM   17  C1  UNL     1      28.834  42.307  25.374  1.00  0.00     0.005 C 
ENDBRANCH  15  16
ENDBRANCH  14  15
ENDBRANCH  12  14
ENDBRANCH   5  12
BRANCH   8  18
HETATM   18  N5  UNL     1      27.081  40.821  33.298  1.00  0.00    -0.096 N 
ATOM     19  H5  UNL     1      26.545  40.121  32.786  1.00  0.00     0.213 HD
BRANCH  18  20
HETATM   20  O2  UNL     1      27.137  40.740  34.661  1.00  0.00    -0.271 OA
HETATM   21  C25 UNL     1      26.813  39.556  35.367  1.00  0.00     0.238 C 
ENDBRANCH  18  20
ENDBRANCH   8  18
ENDBRANCH   1   3
BRANCH   1  22
HETATM   22  C7  UNL     1      30.569  45.079  33.557  1.00  0.00     0.138 C 
BRANCH  22  23
HETATM   23  C8  UNL     1      31.049  44.096  34.617  1.00  0.00     0.025 C 
BRANCH  23  24
HETATM   24  C9  UNL     1      30.219  44.293  35.880  1.00  0.00     0.040 C 
BRANCH  24  25
HETATM   25  C10 UNL     1      30.010  42.965  36.506  1.00  0.00    -0.058 A 
HETATM   26  C11 UNL     1      29.346  42.811  37.698  1.00  0.00     0.010 A 
HETATM   27  C12 UNL     1      29.140  41.588  38.285  1.00  0.00     0.037 A 
HETATM   28  C13 UNL     1      29.617  40.429  37.662  1.00  0.00     0.069 A 
HETATM   29  C22 UNL     1      30.287  40.551  36.466  1.00  0.00     0.037 A 
HETATM   30  C23 UNL     1      30.473  41.816  35.905  1.00  0.00     0.010 A 
BRANCH  28  31
HETATM   31  O1  UNL     1      29.408  39.214  38.255  1.00  0.00    -0.347 OA
BRANCH  31  32
HETATM   32  C14 UNL     1      30.265  38.548  39.113  1.00  0.00     0.214 C 
BRANCH  32  33
HETATM   33  C15 UNL     1      31.009  39.452  40.025  1.00  0.00    -0.034 A 
HETATM   34  C16 UNL     1      30.322  39.966  41.114  1.00  0.00     0.010 A 
HETATM   35  C17 UNL     1      30.973  40.803  41.974  1.00  0.00     0.007 A 
HETATM   36  C18 UNL     1      32.298  41.152  41.789  1.00  0.00    -0.062 A 
HETATM   37  C19 UNL     1      32.973  42.064  42.746  1.00  0.00     0.048 C 
HETATM   38  C20 UNL     1      32.980  40.646  40.715  1.00  0.00     0.007 A 
HETATM   39  C21 UNL     1      32.330  39.801  39.842  1.00  0.00     0.010 A 
ENDBRANCH  32  33
ENDBRANCH  31  32
ENDBRANCH  28  31
ENDBRANCH  24  25
ENDBRANCH  23  24
ENDBRANCH  22  23
ENDBRANCH   1  22
TORSDOF 14
ENDMDL
MODEL 3
REMARK VINA RESULT: -8.694870037      1.806      4.238
REMARK  14 active torsions:
REMARK  status: ('A' for Active; 'I' for Inactive)
REMARK    1  A    between atoms: C2_2  and  C3_3 
REMARK    2  A    between atoms: C3_3  and  C4_4 
REMARK    3  A    between atoms: C4_4  and  N1_5 
REMARK    4  A    between atoms: N1_5  and  C5_7 
REMARK    5  A    between atoms: C6_10  and  N3_11 
REMARK    6  A    between atoms: N3_11  and  C7_13 
REMARK    7  A    between atoms: C7_13  and  C8_14 
REMARK    8  A    between atoms: C8_14  and  C9_15 
REMARK    9  A    between atoms: C9_15  and  C10_16 
REMARK   10  A    between atoms: C13_19  and  O1_20 
REMARK   11  A    between atoms: O1_20  and  C14_21 
REMARK   12  A    between atoms: C14_21  and  C15_22 
REMARK   13  A    between atoms: C24_33  and  N5_34 
REMARK   14  A    between atoms: N5_34  and  O2_36 
ROOT
HETATM    1  N3  UNL     1      29.183  44.881  33.286  1.00  0.00    -0.225 N 
ATOM      2  H3  UNL     1      28.525  45.609  33.564  1.00  0.00     0.177 HD
ENDROOT
BRANCH   1   3
HETATM    3  C6  UNL     1      28.742  43.826  32.710  1.00  0.00     0.707 A 
HETATM    4  N2  UNL     1      28.932  43.730  31.362  1.00  0.00    -0.022 N 
HETATM    5  C5  UNL     1      28.519  42.684  30.631  1.00  0.00     0.707 A 
ATOM      6  H2  UNL     1      29.414  44.493  30.886  1.00  0.00     0.203 HD
HETATM    7  N6  UNL     1      27.885  41.687  31.274  1.00  0.00    -0.020 N 
HETATM    8  C24 UNL     1      27.668  41.728  32.606  1.00  0.00     0.731 A 
ATOM      9  H6  UNL     1      27.560  40.880  30.743  1.00  0.00     0.203 HD
HETATM   10  N4  UNL     1      28.105  42.812  33.314  1.00  0.00    -0.020 N 
ATOM     11  H4  UNL     1      27.944  42.851  34.321  1.00  0.00     0.203 HD
BRANCH   5  12
HETATM   12  N1  UNL     1      28.725  42.645  29.360  1.00  0.00    -0.225 N 
ATOM     13  H1  UNL     1      29.627  42.344  28.991  1.00  0.00     0.177 HD
BRANCH  12  14
HETATM   14  C4  UNL     1      27.656  43.034  28.462  1.00  0.00     0.138 C 
BRANCH  14  15
HETATM   15  C3  UNL     1      27.468  41.954  27.406  1.00  0.00     0.020 C 
BRANCH  15  16
HETATM   16  C2  UNL     1      28.787  41.609  26.744  1.00  0.00    -0.003 C 
HETATM   17  C1  UNL     1      28.834  42.294  25.397  1.00  0.00     0.005 C 
ENDBRANCH  15  16
ENDBRANCH  14  15
ENDBRANCH  12  14
ENDBRANCH   5  12
BRANCH   8  18
HETATM   18  N5  UNL     1      27.071  40.797  33.242  1.00  0.00    -0.096 N 
ATOM     19  H5  UNL     1      26.550  40.098  32.714  1.00  0.00     0.213 HD
BRANCH  18  20
HETATM   20  O2  UNL     1      27.105  40.704  34.605  1.00  0.00    -0.271 OA
HETATM   21  C25 UNL     1      26.952  39.472  35.287  1.00  0.00     0.238 C 
ENDBRANCH  18  20
ENDBRANCH   8  18
ENDBRANCH   1   3
BRANCH   1  22
HETATM   22  C7  UNL     1      30.574  45.062  33.548  1.00  0.00     0.138 C 
BRANCH  22  23
HETATM   23  C8  UNL     1      31.075  44.126  34.642  1.00  0.00     0.025 C 
BRANCH  23  24
HETATM   24  C9  UNL     1      30.192  44.292  35.872  1.00  0.00     0.040 C 
BRANCH  24  25
HETATM   25  C10 UNL     1      30.000  42.956  36.487  1.00  0.00    -0.058 A 
HETATM   26  C11 UNL     1      30.483  41.806  35.913  1.00  0.00     0.010 A 
HETATM   27  C12 UNL     1      30.317  40.566  36.475  1.00  0.00     0.037 A 
HETATM   28  C13 UNL     1      29.629  40.438  37.687  1.00  0.00     0.069 A 
HETATM   29  C22 UNL     1      29.132  41.573  38.287  1.00  0.00     0.037 A 
HETATM   30  C23 UNL     1      29.325  42.816  37.679  1.00  0.00     0.010 A 
BRANCH  28  31
HETATM   31  O1  UNL     1      29.466  39.197  38.240  1.00  0.00    -0.347 OA
BRANCH  31  32
HETATM   32  C14 UNL     1      30.326  38.556  39.113  1.00  0.00     0.214 C 
BRANCH  32  33
HETATM   33  C15 UNL     1      30.965  39.470  40.092  1.00  0.00    -0.034 A 
HETATM   34  C16 UNL     1      32.286  39.827  39.865  1.00  0.00     0.010 A 
HETATM   35  C17 UNL     1      32.907  40.666  40.745  1.00  0.00     0.007 A 
HETATM   36  C18 UNL     1      32.255  41.169  41.856  1.00  0.00    -0.062 A 
HETATM   37  C19 UNL     1      32.963  42.079  42.790  1.00  0.00     0.048 C 
HETATM   38  C20 UNL     1      30.951  40.820  42.083  1.00  0.00     0.007 A 
HETATM   39  C21 UNL     1      30.317  39.973  41.200  1.00  0.00     0.010 A 
ENDBRANCH  32  33
ENDBRANCH  31  32
ENDBRANCH  28  31
ENDBRANCH  24  25
ENDBRANCH  23  24
ENDBRANCH  22  23
ENDBRANCH   1  22
TORSDOF 14
ENDMDL
MODEL 4
REMARK VINA RESULT: -8.673398415      1.332      3.807
REMARK  14 active torsions:
REMARK  status: ('A' for Active; 'I' for Inactive)
REMARK    1  A    between atoms: C2_2  and  C3_3 
REMARK    2  A    between atoms: C3_3  and  C4_4 
REMARK    3  A    between atoms: C4_4  and  N1_5 
REMARK    4  A    between atoms: N1_5  and  C5_7 
REMARK    5  A    between atoms: C6_10  and  N3_11 
REMARK    6  A    between atoms: N3_11  and  C7_13 
REMARK    7  A    between atoms: C7_13  and  C8_14 
REMARK    8  A    between atoms: C8_14  and  C9_15 
REMARK    9  A    between atoms: C9_15  and  C10_16 
REMARK   10  A    between atoms: C13_19  and  O1_20 
REMARK   11  A    between atoms: O1_20  and  C14_21 
REMARK   12  A    between atoms: C14_21  and  C15_22 
REMARK   13  A    between atoms: C24_33  and  N5_34 
REMARK   14  A    between atoms: N5_34  and  O2_36 
ROOT
HETATM    1  N3  UNL     1      29.158  44.908  33.737  1.00  0.00    -0.225 N 
ATOM      2  H3  UNL     1      28.612  45.765  33.820  1.00  0.00     0.177 HD
ENDROOT
BRANCH   1   3
HETATM    3  C6  UNL     1      28.722  43.958  32.996  1.00  0.00     0.707 A 
HETATM    4  N2  UNL     1      28.935  44.073  31.652  1.00  0.00    -0.022 N 
HETATM    5  C5  UNL     1      28.529  43.156  30.761  1.00  0.00     0.707 A 
ATOM      6  H2  UNL     1      29.427  44.898  31.309  1.00  0.00     0.203 HD
HETATM    7  N6  UNL     1      27.881  42.075  31.231  1.00  0.00    -0.020 N 
HETATM    8  C24 UNL     1      27.643  41.910  32.549  1.00  0.00     0.731 A 
ATOM      9  H6  UNL     1      27.562  41.363  30.575  1.00  0.00     0.203 HD
HETATM   10  N4  UNL     1      28.072  42.867  33.424  1.00  0.00    -0.020 N 
ATOM     11  H4  UNL     1      27.895  42.749  34.422  1.00  0.00     0.203 HD
BRANCH   5  12
HETATM   12  N1  UNL     1      28.755  43.314  29.502  1.00  0.00    -0.225 N 
ATOM     13  H1  UNL     1      29.180  44.175  29.157  1.00  0.00     0.177 HD
BRANCH  12  14
HETATM   14  C4  UNL     1      28.398  42.252  28.585  1.00  0.00     0.138 C 
BRANCH  14  15
HETATM   15  C3  UNL     1      28.043  42.853  27.232  1.00  0.00     0.020 C 
BRANCH  15  16
HETATM   16  C2  UNL     1      28.780  42.143  26.115  1.00  0.00    -0.003 C 
HETATM   17  C1  UNL     1      29.200  40.780  26.616  1.00  0.00     0.005 C 
ENDBRANCH  15  16
ENDBRANCH  14  15
ENDBRANCH  12  14
ENDBRANCH   5  12
BRANCH   8  18
HETATM   18  N5  UNL     1      27.032  40.894  33.022  1.00  0.00    -0.096 N 
ATOM     19  H5  UNL     1      26.686  40.185  32.377  1.00  0.00     0.213 HD
BRANCH  18  20
HETATM   20  O2  UNL     1      26.825  40.724  34.362  1.00  0.00    -0.271 OA
HETATM   21  C25 UNL     1      27.554  39.785  35.132  1.00  0.00     0.238 C 
ENDBRANCH  18  20
ENDBRANCH   8  18
ENDBRANCH   1   3
BRANCH   1  22
HETATM   22  C7  UNL     1      30.390  44.793  34.448  1.00  0.00     0.138 C 
BRANCH  22  23
HETATM   23  C8  UNL     1      30.218  44.059  35.773  1.00  0.00     0.025 C 
BRANCH  23  24
HETATM   24  C9  UNL     1      30.571  42.592  35.570  1.00  0.00     0.040 C 
BRANCH  24  25
HETATM   25  C10 UNL     1      30.296  41.871  36.837  1.00  0.00    -0.058 A 
HETATM   26  C11 UNL     1      30.733  40.589  37.063  1.00  0.00     0.010 A 
HETATM   27  C12 UNL     1      30.490  39.914  38.232  1.00  0.00     0.037 A 
HETATM   28  C13 UNL     1      29.768  40.536  39.257  1.00  0.00     0.069 A 
HETATM   29  C22 UNL     1      29.316  41.821  39.060  1.00  0.00     0.037 A 
HETATM   30  C23 UNL     1      29.586  42.470  37.854  1.00  0.00     0.010 A 
BRANCH  28  31
HETATM   31  O1  UNL     1      29.529  39.855  40.419  1.00  0.00    -0.347 OA
BRANCH  31  32
HETATM   32  C14 UNL     1      29.742  40.308  41.709  1.00  0.00     0.214 C 
BRANCH  32  33
HETATM   33  C15 UNL     1      31.147  40.164  42.161  1.00  0.00    -0.034 A 
HETATM   34  C16 UNL     1      31.397  39.279  43.199  1.00  0.00     0.010 A 
HETATM   35  C17 UNL     1      32.679  39.122  43.643  1.00  0.00     0.007 A 
HETATM   36  C18 UNL     1      33.734  39.821  43.086  1.00  0.00    -0.062 A 
HETATM   37  C19 UNL     1      35.114  39.623  43.595  1.00  0.00     0.048 C 
HETATM   38  C20 UNL     1      33.491  40.696  42.062  1.00  0.00     0.007 A 
HETATM   39  C21 UNL     1      32.201  40.861  41.608  1.00  0.00     0.010 A 
ENDBRANCH  32  33
ENDBRANCH  31  32
ENDBRANCH  28  31
ENDBRANCH  24  25
ENDBRANCH  23  24
ENDBRANCH  22  23
ENDBRANCH   1  22
TORSDOF 14
ENDMDL
MODEL 5
REMARK VINA RESULT: -8.515006504      1.187      1.779
REMARK  14 active torsions:
REMARK  status: ('A' for Active; 'I' for Inactive)
REMARK    1  A    between atoms: C2_2  and  C3_3 
REMARK    2  A    between atoms: C3_3  and  C4_4 
REMARK    3  A    between atoms: C4_4  and  N1_5 
REMARK    4  A    between atoms: N1_5  and  C5_7 
REMARK    5  A    between atoms: C6_10  and  N3_11 
REMARK    6  A    between atoms: N3_11  and  C7_13 
REMARK    7  A    between atoms: C7_13  and  C8_14 
REMARK    8  A    between atoms: C8_14  and  C9_15 
REMARK    9  A    between atoms: C9_15  and  C10_16 
REMARK   10  A    between atoms: C13_19  and  O1_20 
REMARK   11  A    between atoms: O1_20  and  C14_21 
REMARK   12  A    between atoms: C14_21  and  C15_22 
REMARK   13  A    between atoms: C24_33  and  N5_34 
REMARK   14  A    between atoms: N5_34  and  O2_36 
ROOT
HETATM    1  N3  UNL     1      29.206  44.792  33.488  1.00  0.00    -0.225 N 
ATOM      2  H3  UNL     1      28.604  45.454  33.976  1.00  0.00     0.177 HD
ENDROOT
BRANCH   1   3
HETATM    3  C6  UNL     1      28.693  44.000  32.621  1.00  0.00     0.707 A 
HETATM    4  N2  UNL     1      27.811  43.066  33.081  1.00  0.00    -0.022 N 
HETATM    5  C5  UNL     1      27.202  42.173  32.287  1.00  0.00     0.707 A 
ATOM      6  H2  UNL     1      27.604  43.046  34.080  1.00  0.00     0.203 HD
HETATM    7  N6  UNL     1      27.487  42.212  30.973  1.00  0.00    -0.020 N 
HETATM    8  C24 UNL     1      28.352  43.115  30.462  1.00  0.00     0.731 A 
ATOM      9  H6  UNL     1      27.038  41.545  30.347  1.00  0.00     0.203 HD
HETATM   10  N4  UNL     1      28.951  44.007  31.306  1.00  0.00    -0.020 N 
ATOM     11  H4  UNL     1      29.606  44.692  30.927  1.00  0.00     0.203 HD
BRANCH   5  12
HETATM   12  N1  UNL     1      26.378  41.311  32.774  1.00  0.00    -0.225 N 
ATOM     13  H1  UNL     1      25.374  41.496  32.771  1.00  0.00     0.177 HD
BRANCH  12  14
HETATM   14  C4  UNL     1      26.896  40.075  33.325  1.00  0.00     0.138 C 
BRANCH  14  15
HETATM   15  C3  UNL     1      27.462  40.341  34.712  1.00  0.00     0.020 C 
BRANCH  15  16
HETATM   16  C2  UNL     1      27.219  39.161  35.631  1.00  0.00    -0.003 C 
HETATM   17  C1  UNL     1      26.505  39.661  36.866  1.00  0.00     0.005 C 
ENDBRANCH  15  16
ENDBRANCH  14  15
ENDBRANCH  12  14
ENDBRANCH   5  12
BRANCH   8  18
HETATM   18  N5  UNL     1      28.640  43.176  29.221  1.00  0.00    -0.096 N 
ATOM     19  H5  UNL     1      29.621  43.207  28.945  1.00  0.00     0.213 HD
BRANCH  18  20
HETATM   20  O2  UNL     1      27.680  43.201  28.249  1.00  0.00    -0.271 OA
HETATM   21  C25 UNL     1      27.808  42.482  27.035  1.00  0.00     0.238 C 
ENDBRANCH  18  20
ENDBRANCH   8  18
ENDBRANCH   1   3
BRANCH   1  22
HETATM   22  C7  UNL     1      30.602  44.768  33.785  1.00  0.00     0.138 C 
BRANCH  22  23
HETATM   23  C8  UNL     1      30.936  43.757  34.875  1.00  0.00     0.025 C 
BRANCH  23  24
HETATM   24  C9  UNL     1      29.885  43.855  35.974  1.00  0.00     0.040 C 
BRANCH  24  25
HETATM   25  C10 UNL     1      29.905  42.589  36.746  1.00  0.00    -0.058 A 
HETATM   26  C11 UNL     1      29.289  42.463  37.967  1.00  0.00     0.010 A 
HETATM   27  C12 UNL     1      29.295  41.296  38.688  1.00  0.00     0.037 A 
HETATM   28  C13 UNL     1      29.950  40.168  38.181  1.00  0.00     0.069 A 
HETATM   29  C22 UNL     1      30.577  40.263  36.960  1.00  0.00     0.037 A 
HETATM   30  C23 UNL     1      30.545  41.471  36.260  1.00  0.00     0.010 A 
BRANCH  28  31
HETATM   31  O1  UNL     1      29.952  39.009  38.908  1.00  0.00    -0.347 OA
BRANCH  31  32
HETATM   32  C14 UNL     1      30.885  38.621  39.852  1.00  0.00     0.214 C 
BRANCH  32  33
HETATM   33  C15 UNL     1      31.253  39.702  40.799  1.00  0.00    -0.034 A 
HETATM   34  C16 UNL     1      32.435  40.387  40.558  1.00  0.00     0.010 A 
HETATM   35  C17 UNL     1      32.807  41.387  41.410  1.00  0.00     0.007 A 
HETATM   36  C18 UNL     1      32.038  41.736  42.505  1.00  0.00    -0.062 A 
HETATM   37  C19 UNL     1      32.475  42.829  43.408  1.00  0.00     0.048 C 
HETATM   38  C20 UNL     1      30.871  41.062  42.746  1.00  0.00     0.007 A 
HETATM   39  C21 UNL     1      30.489  40.051  41.892  1.00  0.00     0.010 A 
ENDBRANCH  32  33
ENDBRANCH  31  32
ENDBRANCH  28  31
ENDBRANCH  24  25
ENDBRANCH  23  24
ENDBRANCH  22  23
ENDBRANCH   1  22
TORSDOF 14
ENDMDL
