MODEL 1
REMARK VINA RESULT: -7.726903416      0.000      0.000
REMARK  12 active torsions:
REMARK  status: ('A' for Active; 'I' for Inactive)
REMARK    1  A    between atoms: C2_2  and  C3_3 
REMARK    2  A    between atoms: C3_3  and  C4_4 
REMARK    3  A    between atoms: C4_4  and  C5_5 
REMARK    4  A    between atoms: C5_5  and  C6_6 
REMARK    5  A    between atoms: C6_6  and  C7_7 
REMARK    6  A    between atoms: C7_7  and  N1_8 
REMARK    7  A    between atoms: C7_7  and  C23_34 
REMARK    8  A    between atoms: N1_8  and  C8_10 
REMARK    9  A    between atoms: C9_13  and  C10_14 
REMARK   10  A    between atoms: C10_14  and  C11_15 
REMARK   11  A    between atoms: N4_20  and  C14_22 
REMARK   12  A    between atoms: C18_27  and  C19_28 
ROOT
HETATM    1  C8  UNL     1      28.284  43.137  33.142  1.00  0.00     0.694 A 
HETATM    2  N2  UNL     1      28.121  42.992  31.830  1.00  0.00    -0.180 N 
ATOM      3  H2  UNL     1      28.347  43.766  31.204  1.00  0.00     0.185 HD
HETATM    4  C9  UNL     1      27.663  41.843  31.322  1.00  0.00     0.113 A 
HETATM    5  N3  UNL     1      27.374  40.843  32.194  1.00  0.00    -0.179 N 
ATOM      6  H3  UNL     1      27.025  39.965  31.811  1.00  0.00     0.185 HD
HETATM    7  C13 UNL     1      27.517  40.934  33.516  1.00  0.00     0.698 A 
HETATM    8  N4  UNL     1      27.194  40.065  34.382  1.00  0.00    -0.190 N 
ATOM      9  H4  UNL     1      27.377  40.292  35.359  1.00  0.00     0.184 HD
HETATM   10  N5  UNL     1      27.994  42.137  33.968  1.00  0.00    -0.022 N 
ATOM     11  H5  UNL     1      28.130  42.268  34.970  1.00  0.00     0.203 HD
ENDROOT
BRANCH   1  12
HETATM   12  N1  UNL     1      28.670  44.284  33.662  1.00  0.00    -0.213 N 
ATOM     13  H1  UNL     1      27.994  44.944  34.048  1.00  0.00     0.178 HD
BRANCH  12  14
HETATM   14  C7  UNL     1      30.103  44.578  33.664  1.00  0.00     0.189 C 
BRANCH  14  15
HETATM   15  C6  UNL     1      30.835  43.845  34.777  1.00  0.00     0.039 C 
BRANCH  15  16
HETATM   16  C5  UNL     1      30.228  43.979  36.115  1.00  0.00     0.029 C 
BRANCH  16  17
HETATM   17  C4  UNL     1      30.168  42.736  36.894  1.00  0.00    -0.031 C 
BRANCH  17  18
HETATM   18  C3  UNL     1      29.075  42.387  37.790  1.00  0.00    -0.031 C 
BRANCH  18  19
HETATM   19  C2  UNL     1      29.278  41.562  39.000  1.00  0.00     0.022 C 
HETATM   20  C1  UNL     1      30.729  41.325  39.338  1.00  0.00     0.009 C 
ENDBRANCH  18  19
ENDBRANCH  17  18
ENDBRANCH  16  17
ENDBRANCH  15  16
ENDBRANCH  14  15
BRANCH  14  21
HETATM   21  C23 UNL     1      30.240  46.020  33.983  1.00  0.00     0.254 C 
HETATM   22  N6  UNL     1      31.516  46.624  33.950  1.00  0.00    -0.060 NA
HETATM   23  O1  UNL     1      29.229  46.690  34.280  1.00  0.00    -0.275 OA
ENDBRANCH  14  21
ENDBRANCH  12  14
ENDBRANCH   1  12
BRANCH   4  24
HETATM   24  C10 UNL     1      27.472  41.623  29.873  1.00  0.00     0.077 C 
BRANCH  24  25
HETATM   25  C11 UNL     1      27.243  42.932  29.137  1.00  0.00     0.003 C 
HETATM   26  C12 UNL     1      27.935  42.931  27.793  1.00  0.00     0.005 C 
ENDBRANCH  24  25
ENDBRANCH   4  24
BRANCH   8  27
HETATM   27  C14 UNL     1      26.587  38.775  34.103  1.00  0.00     0.063 A 
HETATM   28  C15 UNL     1      25.481  38.701  33.309  1.00  0.00     0.080 A 
HETATM   29  S1  UNL     1      25.084  37.057  33.297  1.00  0.00    -0.104 SA
HETATM   30  C16 UNL     1      26.355  36.471  34.325  1.00  0.00    -0.013 A 
HETATM   31  C17 UNL     1      26.560  35.013  34.673  1.00  0.00     0.057 C 
HETATM   32  C18 UNL     1      27.043  37.591  34.637  1.00  0.00    -0.013 A 
BRANCH  32  33
HETATM   33  C19 UNL     1      28.306  37.544  35.472  1.00  0.00     0.026 A 
HETATM   34  C20 UNL     1      28.149  37.286  36.975  1.00  0.00     0.014 A 
HETATM   35  C21 UNL     1      28.684  38.591  36.440  1.00  0.00    -0.009 A 
HETATM   36  C22 UNL     1      30.160  38.813  36.752  1.00  0.00     0.010 C 
ENDBRANCH  32  33
ENDBRANCH   8  27
TORSDOF 12
ENDMDL
MODEL 2
REMARK VINA RESULT: -7.656464988      2.964      6.015
REMARK  12 active torsions:
REMARK  status: ('A' for Active; 'I' for Inactive)
REMARK    1  A    between atoms: C2_2  and  C3_3 
REMARK    2  A    between atoms: C3_3  and  C4_4 
REMARK    3  A    between atoms: C4_4  and  C5_5 
REMARK    4  A    between atoms: C5_5  and  C6_6 
REMARK    5  A    between atoms: C6_6  and  C7_7 
REMARK    6  A    between atoms: C7_7  and  N1_8 
REMARK    7  A    between atoms: C7_7  and  C23_34 
REMARK    8  A    between atoms: N1_8  and  C8_10 
REMARK    9  A    between atoms: C9_13  and  C10_14 
REMARK   10  A    between atoms: C10_14  and  C11_15 
REMARK   11  A    between atoms: N4_20  and  C14_22 
REMARK   12  A    between atoms: C18_27  and  C19_28 
ROOT
HETATM    1  C8  UNL     1      29.506  42.595  36.642  1.00  0.00     0.694 A 
HETATM    2  N2  UNL     1      29.995  43.822  36.481  1.00  0.00    -0.180 N 
ATOM      3  H2  UNL     1      30.370  44.326  37.285  1.00  0.00     0.185 HD
HETATM    4  C9  UNL     1      29.999  44.402  35.275  1.00  0.00     0.113 A 
HETATM    5  N3  UNL     1      29.487  43.693  34.237  1.00  0.00    -0.179 N 
ATOM      6  H3  UNL     1      29.489  44.131  33.316  1.00  0.00     0.185 HD
HETATM    7  C13 UNL     1      28.984  42.463  34.342  1.00  0.00     0.698 A 
HETATM    8  N4  UNL     1      28.426  41.784  33.427  1.00  0.00    -0.190 N 
ATOM      9  H4  UNL     1      28.098  40.850  33.674  1.00  0.00     0.184 HD
HETATM   10  N5  UNL     1      29.014  41.928  35.603  1.00  0.00    -0.022 N 
ATOM     11  H5  UNL     1      28.648  40.987  35.748  1.00  0.00     0.203 HD
ENDROOT
BRANCH   1  12
HETATM   12  N1  UNL     1      29.433  42.038  37.833  1.00  0.00    -0.213 N 
ATOM     13  H1  UNL     1      29.553  42.590  38.684  1.00  0.00     0.178 HD
BRANCH  12  14
HETATM   14  C7  UNL     1      29.175  40.600  37.892  1.00  0.00     0.189 C 
BRANCH  14  15
HETATM   15  C6  UNL     1      29.071  40.096  39.322  1.00  0.00     0.039 C 
BRANCH  15  16
HETATM   16  C5  UNL     1      29.555  41.035  40.351  1.00  0.00     0.029 C 
BRANCH  16  17
HETATM   17  C4  UNL     1      30.739  40.586  41.092  1.00  0.00    -0.031 C 
BRANCH  17  18
HETATM   18  C3  UNL     1      32.058  41.191  40.968  1.00  0.00    -0.031 C 
BRANCH  18  19
HETATM   19  C2  UNL     1      32.897  41.505  42.144  1.00  0.00     0.022 C 
HETATM   20  C1  UNL     1      32.338  42.604  43.013  1.00  0.00     0.009 C 
ENDBRANCH  18  19
ENDBRANCH  17  18
ENDBRANCH  16  17
ENDBRANCH  15  16
ENDBRANCH  14  15
BRANCH  14  21
HETATM   21  C23 UNL     1      30.371  39.930  37.323  1.00  0.00     0.254 C 
HETATM   22  N6  UNL     1      30.206  38.862  36.415  1.00  0.00    -0.060 NA
HETATM   23  O1  UNL     1      31.512  40.314  37.651  1.00  0.00    -0.275 OA
ENDBRANCH  14  21
ENDBRANCH  12  14
ENDBRANCH   1  12
BRANCH   4  24
HETATM   24  C10 UNL     1      30.538  45.757  35.036  1.00  0.00     0.077 C 
BRANCH  24  25
HETATM   25  C11 UNL     1      31.584  45.753  33.936  1.00  0.00     0.003 C 
HETATM   26  C12 UNL     1      32.765  46.623  34.301  1.00  0.00     0.005 C 
ENDBRANCH  24  25
ENDBRANCH   4  24
BRANCH   8  27
HETATM   27  C14 UNL     1      28.214  42.220  32.057  1.00  0.00     0.063 A 
HETATM   28  C15 UNL     1      29.123  43.037  31.454  1.00  0.00     0.080 A 
HETATM   29  S1  UNL     1      28.469  43.333  29.923  1.00  0.00    -0.104 SA
HETATM   30  C16 UNL     1      27.015  42.394  30.070  1.00  0.00    -0.013 A 
HETATM   31  C17 UNL     1      25.995  42.231  28.965  1.00  0.00     0.057 C 
HETATM   32  C18 UNL     1      27.101  41.884  31.319  1.00  0.00    -0.013 A 
BRANCH  32  33
HETATM   33  C19 UNL     1      26.063  40.923  31.860  1.00  0.00     0.026 A 
HETATM   34  C20 UNL     1      26.359  39.424  31.737  1.00  0.00     0.014 A 
HETATM   35  C21 UNL     1      25.213  40.074  31.005  1.00  0.00    -0.009 A 
HETATM   36  C22 UNL     1      23.843  39.642  31.518  1.00  0.00     0.010 C 
ENDBRANCH  32  33
ENDBRANCH   8  27
TORSDOF 12
ENDMDL
MODEL 3
REMARK VINA RESULT: -7.640298011      3.465      6.822
REMARK  12 active torsions:
REMARK  status: ('A' for Active; 'I' for Inactive)
REMARK    1  A    between atoms: C2_2  and  C3_3 
REMARK    2  A    between atoms: C3_3  and  C4_4 
REMARK    3  A    between atoms: C4_4  and  C5_5 
REMARK    4  A    between atoms: C5_5  and  C6_6 
REMARK    5  A    between atoms: C6_6  and  C7_7 
REMARK    6  A    between atoms: C7_7  and  N1_8 
REMARK    7  A    between atoms: C7_7  and  C23_34 
REMARK    8  A    between atoms: N1_8  and  C8_10 
REMARK    9  A    between atoms: C9_13  and  C10_14 
REMARK   10  A    between atoms: C10_14  and  C11_15 
REMARK   11  A    between atoms: N4_20  and  C14_22 
REMARK   12  A    between atoms: C18_27  and  C19_28 
ROOT
HETATM    1  C8  UNL     1      29.752  38.760  38.103  1.00  0.00     0.694 A 
HETATM    2  N2  UNL     1      29.207  37.705  37.505  1.00  0.00    -0.180 N 
ATOM      3  H2  UNL     1      29.257  36.789  37.951  1.00  0.00     0.185 HD
HETATM    4  C9  UNL     1      28.594  37.831  36.322  1.00  0.00     0.113 A 
HETATM    5  N3  UNL     1      28.554  39.069  35.767  1.00  0.00    -0.179 N 
ATOM      6  H3  UNL     1      28.088  39.172  34.866  1.00  0.00     0.185 HD
HETATM    7  C13 UNL     1      29.085  40.160  36.321  1.00  0.00     0.698 A 
HETATM    8  N4  UNL     1      29.145  41.322  35.816  1.00  0.00    -0.190 N 
ATOM      9  H4  UNL     1      29.583  42.052  36.379  1.00  0.00     0.184 HD
HETATM   10  N5  UNL     1      29.694  39.959  37.532  1.00  0.00    -0.022 N 
ATOM     11  H5  UNL     1      30.115  40.755  38.010  1.00  0.00     0.203 HD
ENDROOT
BRANCH   1  12
HETATM   12  N1  UNL     1      30.417  38.639  39.234  1.00  0.00    -0.213 N 
ATOM     13  H1  UNL     1      30.656  37.721  39.611  1.00  0.00     0.178 HD
BRANCH  12  14
HETATM   14  C7  UNL     1      30.800  39.868  39.928  1.00  0.00     0.189 C 
BRANCH  14  15
HETATM   15  C6  UNL     1      31.854  39.617  40.994  1.00  0.00     0.039 C 
BRANCH  15  16
HETATM   16  C5  UNL     1      33.076  40.435  40.867  1.00  0.00     0.029 C 
BRANCH  16  17
HETATM   17  C4  UNL     1      33.476  41.143  42.087  1.00  0.00    -0.031 C 
BRANCH  17  18
HETATM   18  C3  UNL     1      32.761  42.284  42.641  1.00  0.00    -0.031 C 
BRANCH  18  19
HETATM   19  C2  UNL     1      31.704  42.135  43.664  1.00  0.00     0.022 C 
HETATM   20  C1  UNL     1      31.772  40.833  44.423  1.00  0.00     0.009 C 
ENDBRANCH  18  19
ENDBRANCH  17  18
ENDBRANCH  16  17
ENDBRANCH  15  16
ENDBRANCH  14  15
BRANCH  14  21
HETATM   21  C23 UNL     1      29.597  40.331  40.664  1.00  0.00     0.254 C 
HETATM   22  N6  UNL     1      28.664  41.170  40.017  1.00  0.00    -0.060 NA
HETATM   23  O1  UNL     1      29.418  39.978  41.847  1.00  0.00    -0.275 OA
ENDBRANCH  14  21
ENDBRANCH  12  14
ENDBRANCH   1  12
BRANCH   4  24
HETATM   24  C10 UNL     1      27.962  36.697  35.618  1.00  0.00     0.077 C 
BRANCH  24  25
HETATM   25  C11 UNL     1      27.335  37.136  34.306  1.00  0.00     0.003 C 
HETATM   26  C12 UNL     1      27.818  36.283  33.156  1.00  0.00     0.005 C 
ENDBRANCH  24  25
ENDBRANCH   4  24
BRANCH   8  27
HETATM   27  C14 UNL     1      28.645  41.706  34.507  1.00  0.00     0.063 A 
HETATM   28  C15 UNL     1      27.546  41.086  33.990  1.00  0.00     0.080 A 
HETATM   29  S1  UNL     1      27.351  41.786  32.463  1.00  0.00    -0.104 SA
HETATM   30  C16 UNL     1      28.698  42.882  32.500  1.00  0.00    -0.013 A 
HETATM   31  C17 UNL     1      29.038  43.847  31.386  1.00  0.00     0.057 C 
HETATM   32  C18 UNL     1      29.249  42.654  33.714  1.00  0.00    -0.013 A 
BRANCH  32  33
HETATM   33  C19 UNL     1      30.430  43.459  34.216  1.00  0.00     0.026 A 
HETATM   34  C20 UNL     1      30.203  44.359  35.435  1.00  0.00     0.014 A 
HETATM   35  C21 UNL     1      30.538  44.923  34.077  1.00  0.00    -0.009 A 
HETATM   36  C22 UNL     1      31.922  45.561  34.011  1.00  0.00     0.010 C 
ENDBRANCH  32  33
ENDBRANCH   8  27
TORSDOF 12
ENDMDL
MODEL 4
REMARK VINA RESULT: -7.624060201      1.304      1.529
REMARK  12 active torsions:
REMARK  status: ('A' for Active; 'I' for Inactive)
REMARK    1  A    between atoms: C2_2  and  C3_3 
REMARK    2  A    between atoms: C3_3  and  C4_4 
REMARK    3  A    between atoms: C4_4  and  C5_5 
REMARK    4  A    between atoms: C5_5  and  C6_6 
REMARK    5  A    between atoms: C6_6  and  C7_7 
REMARK    6  A    between atoms: C7_7  and  N1_8 
REMARK    7  A    between atoms: C7_7  and  C23_34 
REMARK    8  A    between atoms: N1_8  and  C8_10 
REMARK    9  A    between atoms: C9_13  and  C10_14 
REMARK   10  A    between atoms: C10_14  and  C11_15 
REMARK   11  A    between atoms: N4_20  and  C14_22 
REMARK   12  A    between atoms: C18_27  and  C19_28 
ROOT
HETATM    1  C8  UNL     1      29.039  43.772  32.942  1.00  0.00     0.694 A 
HETATM    2  N2  UNL     1      29.075  43.765  31.612  1.00  0.00    -0.180 N 
ATOM      3  H2  UNL     1      29.565  44.510  31.116  1.00  0.00     0.185 HD
HETATM    4  C9  UNL     1      28.474  42.792  30.918  1.00  0.00     0.113 A 
HETATM    5  N3  UNL     1      27.833  41.825  31.622  1.00  0.00    -0.179 N 
ATOM      6  H3  UNL     1      27.373  41.080  31.098  1.00  0.00     0.185 HD
HETATM    7  C13 UNL     1      27.764  41.783  32.952  1.00  0.00     0.698 A 
HETATM    8  N4  UNL     1      27.119  40.951  33.660  1.00  0.00    -0.190 N 
ATOM      9  H4  UNL     1      27.176  41.057  34.673  1.00  0.00     0.184 HD
HETATM   10  N5  UNL     1      28.403  42.808  33.600  1.00  0.00    -0.022 N 
ATOM     11  H5  UNL     1      28.392  42.831  34.619  1.00  0.00     0.203 HD
ENDROOT
BRANCH   1  12
HETATM   12  N1  UNL     1      29.567  44.759  33.635  1.00  0.00    -0.213 N 
ATOM     13  H1  UNL     1      29.238  45.719  33.525  1.00  0.00     0.178 HD
BRANCH  12  14
HETATM   14  C7  UNL     1      30.643  44.428  34.569  1.00  0.00     0.189 C 
BRANCH  14  15
HETATM   15  C6  UNL     1      30.140  44.293  35.997  1.00  0.00     0.039 C 
BRANCH  15  16
HETATM   16  C5  UNL     1      30.244  42.938  36.569  1.00  0.00     0.029 C 
BRANCH  16  17
HETATM   17  C4  UNL     1      29.273  42.636  37.627  1.00  0.00    -0.031 C 
BRANCH  17  18
HETATM   18  C3  UNL     1      29.534  41.739  38.744  1.00  0.00    -0.031 C 
BRANCH  18  19
HETATM   19  C2  UNL     1      30.847  41.093  38.949  1.00  0.00     0.022 C 
HETATM   20  C1  UNL     1      31.325  41.127  40.379  1.00  0.00     0.009 C 
ENDBRANCH  18  19
ENDBRANCH  17  18
ENDBRANCH  16  17
ENDBRANCH  15  16
ENDBRANCH  14  15
BRANCH  14  21
HETATM   21  C23 UNL     1      31.565  45.591  34.584  1.00  0.00     0.254 C 
HETATM   22  N6  UNL     1      31.195  46.766  35.274  1.00  0.00    -0.060 NA
HETATM   23  O1  UNL     1      32.658  45.525  33.986  1.00  0.00    -0.275 OA
ENDBRANCH  14  21
ENDBRANCH  12  14
ENDBRANCH   1  12
BRANCH   4  24
HETATM   24  C10 UNL     1      28.490  42.728  29.442  1.00  0.00     0.077 C 
BRANCH  24  25
HETATM   25  C11 UNL     1      27.134  43.078  28.854  1.00  0.00     0.003 C 
HETATM   26  C12 UNL     1      26.439  41.849  28.316  1.00  0.00     0.005 C 
ENDBRANCH  24  25
ENDBRANCH   4  24
BRANCH   8  27
HETATM   27  C14 UNL     1      26.305  39.859  33.154  1.00  0.00     0.063 A 
HETATM   28  C15 UNL     1      25.373  40.096  32.187  1.00  0.00     0.080 A 
HETATM   29  S1  UNL     1      24.635  38.595  31.940  1.00  0.00    -0.104 SA
HETATM   30  C16 UNL     1      25.539  37.663  33.094  1.00  0.00    -0.013 A 
HETATM   31  C17 UNL     1      25.353  36.178  33.317  1.00  0.00     0.057 C 
HETATM   32  C18 UNL     1      26.387  38.570  33.629  1.00  0.00    -0.013 A 
BRANCH  32  33
HETATM   33  C19 UNL     1      27.436  38.176  34.648  1.00  0.00     0.026 A 
HETATM   34  C20 UNL     1      26.949  37.800  36.052  1.00  0.00     0.014 A 
HETATM   35  C21 UNL     1      27.807  39.014  35.803  1.00  0.00    -0.009 A 
HETATM   36  C22 UNL     1      29.211  38.893  36.385  1.00  0.00     0.010 C 
ENDBRANCH  32  33
ENDBRANCH   8  27
TORSDOF 12
ENDMDL
MODEL 5
REMARK VINA RESULT: -7.576862948      2.600      5.827
REMARK  12 active torsions:
REMARK  status: ('A' for Active; 'I' for Inactive)
REMARK    1  A    between atoms: C2_2  and  C3_3 
REMARK    2  A    between atoms: C3_3  and  C4_4 
REMARK    3  A    between atoms: C4_4  and  C5_5 
REMARK    4  A    between atoms: C5_5  and  C6_6 
REMARK    5  A    between atoms: C6_6  and  C7_7 
REMARK    6  A    between atoms: C7_7  and  N1_8 
REMARK    7  A    between atoms: C7_7  and  C23_34 
REMARK    8  A    between atoms: N1_8  and  C8_10 
REMARK    9  A    between atoms: C9_13  and  C10_14 
REMARK   10  A    between atoms: C10_14  and  C11_15 
REMARK   11  A    between atoms: N4_20  and  C14_22 
REMARK   12  A    between atoms: C18_27  and  C19_28 
ROOT
HETATM    1  C8  UNL     1      28.041  42.876  32.583  1.00  0.00     0.694 A 
HETATM    2  N2  UNL     1      27.637  41.666  32.961  1.00  0.00    -0.180 N 
ATOM      3  H2  UNL     1      27.541  41.453  33.955  1.00  0.00     0.185 HD
HETATM    4  C9  UNL     1      27.355  40.725  32.053  1.00  0.00     0.113 A 
HETATM    5  N3  UNL     1      27.500  41.054  30.744  1.00  0.00    -0.179 N 
ATOM      6  H3  UNL     1      27.286  40.340  30.048  1.00  0.00     0.185 HD
HETATM    7  C13 UNL     1      27.902  42.248  30.309  1.00  0.00     0.698 A 
HETATM    8  N4  UNL     1      28.127  42.588  29.108  1.00  0.00    -0.190 N 
ATOM      9  H4  UNL     1      28.426  43.550  28.945  1.00  0.00     0.184 HD
HETATM   10  N5  UNL     1      28.170  43.165  31.292  1.00  0.00    -0.022 N 
ATOM     11  H5  UNL     1      28.477  44.100  31.023  1.00  0.00     0.203 HD
ENDROOT
BRANCH   1  12
HETATM   12  N1  UNL     1      28.386  43.790  33.466  1.00  0.00    -0.213 N 
ATOM     13  H1  UNL     1      27.696  44.210  34.089  1.00  0.00     0.178 HD
BRANCH  12  14
HETATM   14  C7  UNL     1      29.795  44.180  33.519  1.00  0.00     0.189 C 
BRANCH  14  15
HETATM   15  C6  UNL     1      30.548  43.453  34.621  1.00  0.00     0.039 C 
BRANCH  15  16
HETATM   16  C5  UNL     1      30.094  43.756  35.991  1.00  0.00     0.029 C 
BRANCH  16  17
HETATM   17  C4  UNL     1      30.154  42.627  36.927  1.00  0.00    -0.031 C 
BRANCH  17  18
HETATM   18  C3  UNL     1      29.089  42.281  37.858  1.00  0.00    -0.031 C 
BRANCH  18  19
HETATM   19  C2  UNL     1      29.342  41.530  39.106  1.00  0.00     0.022 C 
HETATM   20  C1  UNL     1      30.798  41.209  39.337  1.00  0.00     0.009 C 
ENDBRANCH  18  19
ENDBRANCH  17  18
ENDBRANCH  16  17
ENDBRANCH  15  16
ENDBRANCH  14  15
BRANCH  14  21
HETATM   21  C23 UNL     1      29.824  45.613  33.900  1.00  0.00     0.254 C 
HETATM   22  N6  UNL     1      31.049  46.315  33.882  1.00  0.00    -0.060 NA
HETATM   23  O1  UNL     1      28.768  46.189  34.234  1.00  0.00    -0.275 OA
ENDBRANCH  14  21
ENDBRANCH  12  14
ENDBRANCH   1  12
BRANCH   4  24
HETATM   24  C10 UNL     1      26.893  39.369  32.416  1.00  0.00     0.077 C 
BRANCH  24  25
HETATM   25  C11 UNL     1      25.503  39.091  31.872  1.00  0.00     0.003 C 
HETATM   26  C12 UNL     1      24.454  39.880  32.622  1.00  0.00     0.005 C 
ENDBRANCH  24  25
ENDBRANCH   4  24
BRANCH   8  27
HETATM   27  C14 UNL     1      27.995  41.730  27.944  1.00  0.00     0.063 A 
HETATM   28  C15 UNL     1      29.088  41.078  27.453  1.00  0.00     0.080 A 
HETATM   29  S1  UNL     1      28.508  40.254  26.094  1.00  0.00    -0.104 SA
HETATM   30  C16 UNL     1      26.848  40.760  26.167  1.00  0.00    -0.013 A 
HETATM   31  C17 UNL     1      25.779  40.303  25.199  1.00  0.00     0.057 C 
HETATM   32  C18 UNL     1      26.814  41.557  27.259  1.00  0.00    -0.013 A 
BRANCH  32  33
HETATM   33  C19 UNL     1      25.523  42.172  27.757  1.00  0.00     0.026 A 
HETATM   34  C20 UNL     1      24.624  41.302  28.643  1.00  0.00     0.014 A 
HETATM   35  C21 UNL     1      24.188  41.767  27.277  1.00  0.00    -0.009 A 
HETATM   36  C22 UNL     1      23.048  42.780  27.316  1.00  0.00     0.010 C 
ENDBRANCH  32  33
ENDBRANCH   8  27
TORSDOF 12
ENDMDL
