MODEL 1
REMARK VINA RESULT: -7.229123503      0.000      0.000
REMARK  12 active torsions:
REMARK  status: ('A' for Active; 'I' for Inactive)
REMARK    1  A    between atoms: C2_2  and  C3_3 
REMARK    2  A    between atoms: C3_3  and  C4_4 
REMARK    3  A    between atoms: C4_4  and  N1_5 
REMARK    4  A    between atoms: N1_5  and  C5_6 
REMARK    5  A    between atoms: N1_5  and  C9_13 
REMARK    6  A    between atoms: C5_6  and  C6_7 
REMARK    7  A    between atoms: C6_7  and  N2_8 
REMARK    8  A    between atoms: N2_8  and  C7_11 
REMARK    9  A    between atoms: C10_16  and  N4_17 
REMARK   10  A    between atoms: N4_17  and  C11_19 
REMARK   11  A    between atoms: C20_30  and  C21_31 
REMARK   12  A    between atoms: C24_34  and  C25_35 
ROOT
HETATM    1  C9  UNL     1      28.675  41.266  35.396  1.00  0.00     0.136 A 
HETATM    2  N3  UNL     1      28.127  41.923  34.312  1.00  0.00    -0.175 N 
ATOM      3  H3  UNL     1      28.335  42.915  34.199  1.00  0.00     0.186 HD
HETATM    4  C10 UNL     1      27.353  41.346  33.416  1.00  0.00     0.684 A 
HETATM    5  N5  UNL     1      27.089  40.043  33.578  1.00  0.00    -0.194 N 
ATOM      6  H5  UNL     1      26.491  39.581  32.893  1.00  0.00     0.184 HD
HETATM    7  C20 UNL     1      27.587  39.296  34.628  1.00  0.00     0.049 A 
HETATM    8  C24 UNL     1      28.393  39.925  35.549  1.00  0.00     0.097 A 
ENDROOT
BRANCH   1   9
HETATM    9  N1  UNL     1      29.528  42.067  36.227  1.00  0.00    -0.364 N 
BRANCH   9  10
HETATM   10  C4  UNL     1      30.589  42.754  35.584  1.00  0.00     0.124 C 
BRANCH  10  11
HETATM   11  C3  UNL     1      30.590  44.227  35.516  1.00  0.00     0.019 C 
BRANCH  11  12
HETATM   12  C2  UNL     1      31.340  44.598  34.222  1.00  0.00    -0.003 C 
HETATM   13  C1  UNL     1      31.868  46.008  34.264  1.00  0.00     0.005 C 
ENDBRANCH  11  12
ENDBRANCH  10  11
ENDBRANCH   9  10
BRANCH   9  14
HETATM   14  C5  UNL     1      29.152  42.241  37.583  1.00  0.00     0.152 C 
BRANCH  14  15
HETATM   15  C6  UNL     1      30.044  41.864  38.689  1.00  0.00     0.252 C 
BRANCH  15  16
HETATM   16  N2  UNL     1      29.322  41.087  39.732  1.00  0.00    -0.074 N 
ATOM     17  H22 UNL     1      28.698  41.687  40.272  1.00  0.00     0.277 HD
ATOM     18  H21 UNL     1      28.630  40.465  39.315  1.00  0.00     0.277 HD
BRANCH  16  19
HETATM   19  C7  UNL     1      30.210  40.367  40.588  1.00  0.00     0.228 C 
HETATM   20  C8  UNL     1      31.532  41.114  40.583  1.00  0.00     0.034 C 
ENDBRANCH  16  19
ENDBRANCH  15  16
ENDBRANCH  14  15
ENDBRANCH   9  14
ENDBRANCH   1   9
BRANCH   8  21
HETATM   21  C25 UNL     1      28.874  39.176  36.692  1.00  0.00     0.270 C 
HETATM   22  N6  UNL     1      30.215  38.637  36.622  1.00  0.00    -0.057 NA
HETATM   23  O1  UNL     1      28.218  38.963  37.748  1.00  0.00    -0.271 OA
ENDBRANCH   8  21
BRANCH   4  24
HETATM   24  N4  UNL     1      26.819  41.900  32.398  1.00  0.00    -0.191 N 
ATOM     25  H4  UNL     1      25.985  42.454  32.592  1.00  0.00     0.184 HD
BRANCH  24  26
HETATM   26  C11 UNL     1      27.206  41.861  31.065  1.00  0.00     0.061 A 
HETATM   27  C12 UNL     1      28.330  42.549  30.656  1.00  0.00    -0.034 A 
HETATM   28  C13 UNL     1      29.156  43.365  31.606  1.00  0.00     0.050 C 
HETATM   29  C14 UNL     1      28.715  42.491  29.335  1.00  0.00     0.015 A 
HETATM   30  C15 UNL     1      27.987  41.754  28.428  1.00  0.00    -0.061 A 
HETATM   31  C16 UNL     1      28.417  41.697  27.002  1.00  0.00     0.048 C 
HETATM   32  C17 UNL     1      26.869  41.078  28.868  1.00  0.00     0.015 A 
HETATM   33  C18 UNL     1      26.443  41.105  30.179  1.00  0.00    -0.034 A 
HETATM   34  C19 UNL     1      25.230  40.363  30.616  1.00  0.00     0.050 C 
ENDBRANCH  24  26
ENDBRANCH   4  24
BRANCH   7  35
HETATM   35  C21 UNL     1      27.194  37.885  34.716  1.00  0.00     0.029 C 
HETATM   36  C22 UNL     1      27.214  37.257  33.294  1.00  0.00     0.016 C 
HETATM   37  C23 UNL     1      25.764  37.722  35.161  1.00  0.00     0.016 C 
ENDBRANCH   7  35
TORSDOF 12
ENDMDL
MODEL 2
REMARK VINA RESULT: -7.210624813      0.044      1.519
REMARK  12 active torsions:
REMARK  status: ('A' for Active; 'I' for Inactive)
REMARK    1  A    between atoms: C2_2  and  C3_3 
REMARK    2  A    between atoms: C3_3  and  C4_4 
REMARK    3  A    between atoms: C4_4  and  N1_5 
REMARK    4  A    between atoms: N1_5  and  C5_6 
REMARK    5  A    between atoms: N1_5  and  C9_13 
REMARK    6  A    between atoms: C5_6  and  C6_7 
REMARK    7  A    between atoms: C6_7  and  N2_8 
REMARK    8  A    between atoms: N2_8  and  C7_11 
REMARK    9  A    between atoms: C10_16  and  N4_17 
REMARK   10  A    between atoms: N4_17  and  C11_19 
REMARK   11  A    between atoms: C20_30  and  C21_31 
REMARK   12  A    between atoms: C24_34  and  C25_35 
ROOT
HETATM    1  C9  UNL     1      28.683  41.291  35.409  1.00  0.00     0.136 A 
HETATM    2  N3  UNL     1      28.150  41.949  34.319  1.00  0.00    -0.175 N 
ATOM      3  H3  UNL     1      28.366  42.940  34.205  1.00  0.00     0.186 HD
HETATM    4  C10 UNL     1      27.381  41.375  33.417  1.00  0.00     0.684 A 
HETATM    5  N5  UNL     1      27.107  40.075  33.579  1.00  0.00    -0.194 N 
ATOM      6  H5  UNL     1      26.513  39.615  32.889  1.00  0.00     0.184 HD
HETATM    7  C20 UNL     1      27.590  39.327  34.635  1.00  0.00     0.049 A 
HETATM    8  C24 UNL     1      28.391  39.952  35.562  1.00  0.00     0.097 A 
ENDROOT
BRANCH   1   9
HETATM    9  N1  UNL     1      29.533  42.089  36.246  1.00  0.00    -0.364 N 
BRANCH   9  10
HETATM   10  C4  UNL     1      30.590  42.788  35.608  1.00  0.00     0.124 C 
BRANCH  10  11
HETATM   11  C3  UNL     1      30.573  44.261  35.540  1.00  0.00     0.019 C 
BRANCH  11  12
HETATM   12  C2  UNL     1      31.339  44.641  34.259  1.00  0.00    -0.003 C 
HETATM   13  C1  UNL     1      31.760  46.088  34.264  1.00  0.00     0.005 C 
ENDBRANCH  11  12
ENDBRANCH  10  11
ENDBRANCH   9  10
BRANCH   9  14
HETATM   14  C5  UNL     1      29.159  42.247  37.605  1.00  0.00     0.152 C 
BRANCH  14  15
HETATM   15  C6  UNL     1      30.055  41.864  38.706  1.00  0.00     0.252 C 
BRANCH  15  16
HETATM   16  N2  UNL     1      29.331  41.102  39.759  1.00  0.00    -0.074 N 
ATOM     17  H22 UNL     1      28.726  41.715  40.306  1.00  0.00     0.277 HD
ATOM     18  H21 UNL     1      28.621  40.494  39.351  1.00  0.00     0.277 HD
BRANCH  16  19
HETATM   19  C7  UNL     1      30.216  40.365  40.603  1.00  0.00     0.228 C 
HETATM   20  C8  UNL     1      31.536  41.114  40.622  1.00  0.00     0.034 C 
ENDBRANCH  16  19
ENDBRANCH  15  16
ENDBRANCH  14  15
ENDBRANCH   9  14
ENDBRANCH   1   9
BRANCH   8  21
HETATM   21  C25 UNL     1      28.856  39.203  36.712  1.00  0.00     0.270 C 
HETATM   22  N6  UNL     1      30.198  38.664  36.660  1.00  0.00    -0.057 NA
HETATM   23  O1  UNL     1      28.185  38.989  37.758  1.00  0.00    -0.271 OA
ENDBRANCH   8  21
BRANCH   4  24
HETATM   24  N4  UNL     1      26.861  41.931  32.391  1.00  0.00    -0.191 N 
ATOM     25  H4  UNL     1      26.043  42.511  32.579  1.00  0.00     0.184 HD
BRANCH  24  26
HETATM   26  C11 UNL     1      27.243  41.862  31.059  1.00  0.00     0.061 A 
HETATM   27  C12 UNL     1      26.494  41.122  30.167  1.00  0.00    -0.034 A 
HETATM   28  C13 UNL     1      25.272  40.362  30.589  1.00  0.00     0.050 C 
HETATM   29  C14 UNL     1      26.873  41.073  28.844  1.00  0.00     0.015 A 
HETATM   30  C15 UNL     1      27.988  41.755  28.412  1.00  0.00    -0.061 A 
HETATM   31  C16 UNL     1      28.384  41.696  26.975  1.00  0.00     0.048 C 
HETATM   32  C17 UNL     1      28.714  42.486  29.327  1.00  0.00     0.015 A 
HETATM   33  C18 UNL     1      28.376  42.566  30.661  1.00  0.00    -0.034 A 
HETATM   34  C19 UNL     1      29.187  43.365  31.619  1.00  0.00     0.050 C 
ENDBRANCH  24  26
ENDBRANCH   4  24
BRANCH   7  35
HETATM   35  C21 UNL     1      27.187  37.918  34.722  1.00  0.00     0.029 C 
HETATM   36  C22 UNL     1      27.215  37.288  33.302  1.00  0.00     0.016 C 
HETATM   37  C23 UNL     1      25.753  37.766  35.156  1.00  0.00     0.016 C 
ENDBRANCH   7  35
TORSDOF 12
ENDMDL
MODEL 3
REMARK VINA RESULT: -7.076711799      0.874      3.149
REMARK  12 active torsions:
REMARK  status: ('A' for Active; 'I' for Inactive)
REMARK    1  A    between atoms: C2_2  and  C3_3 
REMARK    2  A    between atoms: C3_3  and  C4_4 
REMARK    3  A    between atoms: C4_4  and  N1_5 
REMARK    4  A    between atoms: N1_5  and  C5_6 
REMARK    5  A    between atoms: N1_5  and  C9_13 
REMARK    6  A    between atoms: C5_6  and  C6_7 
REMARK    7  A    between atoms: C6_7  and  N2_8 
REMARK    8  A    between atoms: N2_8  and  C7_11 
REMARK    9  A    between atoms: C10_16  and  N4_17 
REMARK   10  A    between atoms: N4_17  and  C11_19 
REMARK   11  A    between atoms: C20_30  and  C21_31 
REMARK   12  A    between atoms: C24_34  and  C25_35 
ROOT
HETATM    1  C9  UNL     1      28.439  41.187  35.184  1.00  0.00     0.136 A 
HETATM    2  N3  UNL     1      27.923  41.858  34.093  1.00  0.00    -0.175 N 
ATOM      3  H3  UNL     1      28.169  42.840  33.975  1.00  0.00     0.186 HD
HETATM    4  C10 UNL     1      27.132  41.306  33.196  1.00  0.00     0.684 A 
HETATM    5  N5  UNL     1      26.818  40.015  33.364  1.00  0.00    -0.194 N 
ATOM      6  H5  UNL     1      26.207  39.571  32.678  1.00  0.00     0.184 HD
HETATM    7  C20 UNL     1      27.281  39.255  34.421  1.00  0.00     0.049 A 
HETATM    8  C24 UNL     1      28.106  39.858  35.343  1.00  0.00     0.097 A 
ENDROOT
BRANCH   1   9
HETATM    9  N1  UNL     1      29.317  41.960  36.015  1.00  0.00    -0.364 N 
BRANCH   9  10
HETATM   10  C4  UNL     1      29.030  41.986  37.404  1.00  0.00     0.124 C 
BRANCH  10  11
HETATM   11  C3  UNL     1      30.124  41.932  38.391  1.00  0.00     0.019 C 
BRANCH  11  12
HETATM   12  C2  UNL     1      29.571  41.159  39.604  1.00  0.00    -0.003 C 
HETATM   13  C1  UNL     1      30.644  40.866  40.620  1.00  0.00     0.005 C 
ENDBRANCH  11  12
ENDBRANCH  10  11
ENDBRANCH   9  10
BRANCH   9  14
HETATM   14  C5  UNL     1      30.484  42.499  35.418  1.00  0.00     0.152 C 
BRANCH  14  15
HETATM   15  C6  UNL     1      30.704  43.949  35.313  1.00  0.00     0.252 C 
BRANCH  15  16
HETATM   16  N2  UNL     1      29.420  44.686  35.166  1.00  0.00    -0.074 N 
ATOM     17  H22 UNL     1      28.763  44.168  34.582  1.00  0.00     0.277 HD
ATOM     18  H21 UNL     1      28.894  44.689  36.040  1.00  0.00     0.277 HD
BRANCH  16  19
HETATM   19  C7  UNL     1      29.607  46.015  34.676  1.00  0.00     0.228 C 
HETATM   20  C8  UNL     1      30.863  46.556  35.334  1.00  0.00     0.034 C 
ENDBRANCH  16  19
ENDBRANCH  15  16
ENDBRANCH  14  15
ENDBRANCH   9  14
ENDBRANCH   1   9
BRANCH   8  21
HETATM   21  C25 UNL     1      28.552  39.098  36.493  1.00  0.00     0.270 C 
HETATM   22  N6  UNL     1      29.896  38.564  36.460  1.00  0.00    -0.057 NA
HETATM   23  O1  UNL     1      27.862  38.872  37.524  1.00  0.00    -0.271 OA
ENDBRANCH   8  21
BRANCH   4  24
HETATM   24  N4  UNL     1      26.625  41.874  32.172  1.00  0.00    -0.191 N 
ATOM     25  H4  UNL     1      25.780  42.417  32.349  1.00  0.00     0.184 HD
BRANCH  24  26
HETATM   26  C11 UNL     1      27.053  41.862  30.852  1.00  0.00     0.061 A 
HETATM   27  C12 UNL     1      28.186  42.562  30.491  1.00  0.00    -0.034 A 
HETATM   28  C13 UNL     1      28.979  43.362  31.482  1.00  0.00     0.050 C 
HETATM   29  C14 UNL     1      28.612  42.531  29.182  1.00  0.00     0.015 A 
HETATM   30  C15 UNL     1      27.916  41.810  28.239  1.00  0.00    -0.061 A 
HETATM   31  C16 UNL     1      28.390  41.782  26.825  1.00  0.00     0.048 C 
HETATM   32  C17 UNL     1      26.788  41.122  28.630  1.00  0.00     0.015 A 
HETATM   33  C18 UNL     1      26.322  41.121  29.928  1.00  0.00    -0.034 A 
HETATM   34  C19 UNL     1      25.099  40.366  30.312  1.00  0.00     0.050 C 
ENDBRANCH  24  26
ENDBRANCH   4  24
BRANCH   7  35
HETATM   35  C21 UNL     1      26.835  37.861  34.514  1.00  0.00     0.029 C 
HETATM   36  C22 UNL     1      27.644  36.995  33.509  1.00  0.00     0.016 C 
HETATM   37  C23 UNL     1      25.406  37.692  34.066  1.00  0.00     0.016 C 
ENDBRANCH   7  35
TORSDOF 12
ENDMDL
MODEL 4
REMARK VINA RESULT: -7.066905681      1.634      4.401
REMARK  12 active torsions:
REMARK  status: ('A' for Active; 'I' for Inactive)
REMARK    1  A    between atoms: C2_2  and  C3_3 
REMARK    2  A    between atoms: C3_3  and  C4_4 
REMARK    3  A    between atoms: C4_4  and  N1_5 
REMARK    4  A    between atoms: N1_5  and  C5_6 
REMARK    5  A    between atoms: N1_5  and  C9_13 
REMARK    6  A    between atoms: C5_6  and  C6_7 
REMARK    7  A    between atoms: C6_7  and  N2_8 
REMARK    8  A    between atoms: N2_8  and  C7_11 
REMARK    9  A    between atoms: C10_16  and  N4_17 
REMARK   10  A    between atoms: N4_17  and  C11_19 
REMARK   11  A    between atoms: C20_30  and  C21_31 
REMARK   12  A    between atoms: C24_34  and  C25_35 
ROOT
HETATM    1  C9  UNL     1      28.341  40.717  35.649  1.00  0.00     0.136 A 
HETATM    2  N3  UNL     1      27.657  40.792  34.452  1.00  0.00    -0.175 N 
ATOM      3  H3  UNL     1      26.933  40.098  34.270  1.00  0.00     0.186 HD
HETATM    4  C10 UNL     1      27.884  41.707  33.532  1.00  0.00     0.684 A 
HETATM    5  N5  UNL     1      28.838  42.612  33.785  1.00  0.00    -0.194 N 
ATOM      6  H5  UNL     1      29.026  43.327  33.083  1.00  0.00     0.184 HD
HETATM    7  C20 UNL     1      29.579  42.623  34.950  1.00  0.00     0.049 A 
HETATM    8  C24 UNL     1      29.320  41.656  35.895  1.00  0.00     0.097 A 
ENDROOT
BRANCH   1   9
HETATM    9  N1  UNL     1      27.907  39.672  36.533  1.00  0.00    -0.364 N 
BRANCH   9  10
HETATM   10  C4  UNL     1      26.698  39.891  37.241  1.00  0.00     0.124 C 
BRANCH  10  11
HETATM   11  C3  UNL     1      25.642  38.862  37.244  1.00  0.00     0.019 C 
BRANCH  11  12
HETATM   12  C2  UNL     1      24.926  38.976  35.884  1.00  0.00    -0.003 C 
HETATM   13  C1  UNL     1      25.140  37.752  35.032  1.00  0.00     0.005 C 
ENDBRANCH  11  12
ENDBRANCH  10  11
ENDBRANCH   9  10
BRANCH   9  14
HETATM   14  C5  UNL     1      28.624  38.449  36.509  1.00  0.00     0.152 C 
BRANCH  14  15
HETATM   15  C6  UNL     1      29.145  37.831  37.737  1.00  0.00     0.252 C 
BRANCH  15  16
HETATM   16  N2  UNL     1      30.592  38.122  37.924  1.00  0.00    -0.074 N 
ATOM     17  H22 UNL     1      31.153  37.682  37.194  1.00  0.00     0.277 HD
ATOM     18  H21 UNL     1      30.799  39.100  37.722  1.00  0.00     0.277 HD
BRANCH  16  19
HETATM   19  C7  UNL     1      31.058  37.755  39.223  1.00  0.00     0.228 C 
HETATM   20  C8  UNL     1      31.130  39.031  40.044  1.00  0.00     0.034 C 
ENDBRANCH  16  19
ENDBRANCH  15  16
ENDBRANCH  14  15
ENDBRANCH   9  14
ENDBRANCH   1   9
BRANCH   8  21
HETATM   21  C25 UNL     1      30.128  41.610  37.096  1.00  0.00     0.270 C 
HETATM   22  N6  UNL     1      29.630  42.304  38.264  1.00  0.00    -0.057 NA
HETATM   23  O1  UNL     1      31.230  41.006  37.207  1.00  0.00    -0.271 OA
ENDBRANCH   8  21
BRANCH   4  24
HETATM   24  N4  UNL     1      27.287  41.826  32.409  1.00  0.00    -0.191 N 
ATOM     25  H4  UNL     1      26.448  42.405  32.423  1.00  0.00     0.184 HD
BRANCH  24  26
HETATM   26  C11 UNL     1      27.611  41.284  31.173  1.00  0.00     0.061 A 
HETATM   27  C12 UNL     1      28.399  41.999  30.295  1.00  0.00    -0.034 A 
HETATM   28  C13 UNL     1      28.915  43.370  30.621  1.00  0.00     0.050 C 
HETATM   29  C14 UNL     1      28.728  41.447  29.078  1.00  0.00     0.015 A 
HETATM   30  C15 UNL     1      28.277  40.192  28.736  1.00  0.00    -0.061 A 
HETATM   31  C16 UNL     1      28.644  39.603  27.417  1.00  0.00     0.048 C 
HETATM   32  C17 UNL     1      27.492  39.502  29.635  1.00  0.00     0.015 A 
HETATM   33  C18 UNL     1      27.135  40.012  30.866  1.00  0.00    -0.034 A 
HETATM   34  C19 UNL     1      26.285  39.238  31.809  1.00  0.00     0.050 C 
ENDBRANCH  24  26
ENDBRANCH   4  24
BRANCH   7  35
HETATM   35  C21 UNL     1      30.622  43.645  35.094  1.00  0.00     0.029 C 
HETATM   36  C22 UNL     1      29.983  44.960  35.619  1.00  0.00     0.016 C 
HETATM   37  C23 UNL     1      31.215  44.038  33.766  1.00  0.00     0.016 C 
ENDBRANCH   7  35
TORSDOF 12
ENDMDL
MODEL 5
REMARK VINA RESULT: -7.057438554      1.640      4.618
REMARK  12 active torsions:
REMARK  status: ('A' for Active; 'I' for Inactive)
REMARK    1  A    between atoms: C2_2  and  C3_3 
REMARK    2  A    between atoms: C3_3  and  C4_4 
REMARK    3  A    between atoms: C4_4  and  N1_5 
REMARK    4  A    between atoms: N1_5  and  C5_6 
REMARK    5  A    between atoms: N1_5  and  C9_13 
REMARK    6  A    between atoms: C5_6  and  C6_7 
REMARK    7  A    between atoms: C6_7  and  N2_8 
REMARK    8  A    between atoms: N2_8  and  C7_11 
REMARK    9  A    between atoms: C10_16  and  N4_17 
REMARK   10  A    between atoms: N4_17  and  C11_19 
REMARK   11  A    between atoms: C20_30  and  C21_31 
REMARK   12  A    between atoms: C24_34  and  C25_35 
ROOT
HETATM    1  C9  UNL     1      28.361  40.728  35.642  1.00  0.00     0.136 A 
HETATM    2  N3  UNL     1      27.687  40.801  34.439  1.00  0.00    -0.175 N 
ATOM      3  H3  UNL     1      26.967  40.104  34.250  1.00  0.00     0.186 HD
HETATM    4  C10 UNL     1      27.917  41.718  33.522  1.00  0.00     0.684 A 
HETATM    5  N5  UNL     1      28.864  42.627  33.784  1.00  0.00    -0.194 N 
ATOM      6  H5  UNL     1      29.054  43.345  33.084  1.00  0.00     0.184 HD
HETATM    7  C20 UNL     1      29.595  42.641  34.955  1.00  0.00     0.049 A 
HETATM    8  C24 UNL     1      29.333  41.672  35.897  1.00  0.00     0.097 A 
ENDROOT
BRANCH   1   9
HETATM    9  N1  UNL     1      27.926  39.680  36.521  1.00  0.00    -0.364 N 
BRANCH   9  10
HETATM   10  C4  UNL     1      26.721  39.902  37.236  1.00  0.00     0.124 C 
BRANCH  10  11
HETATM   11  C3  UNL     1      25.657  38.881  37.234  1.00  0.00     0.019 C 
BRANCH  11  12
HETATM   12  C2  UNL     1      24.938  39.012  35.877  1.00  0.00    -0.003 C 
HETATM   13  C1  UNL     1      25.142  37.795  35.014  1.00  0.00     0.005 C 
ENDBRANCH  11  12
ENDBRANCH  10  11
ENDBRANCH   9  10
BRANCH   9  14
HETATM   14  C5  UNL     1      28.635  38.453  36.486  1.00  0.00     0.152 C 
BRANCH  14  15
HETATM   15  C6  UNL     1      29.158  37.824  37.707  1.00  0.00     0.252 C 
BRANCH  15  16
HETATM   16  N2  UNL     1      30.598  38.142  37.911  1.00  0.00    -0.074 N 
ATOM     17  H22 UNL     1      31.174  37.722  37.182  1.00  0.00     0.277 HD
ATOM     18  H21 UNL     1      30.787  39.127  37.723  1.00  0.00     0.277 HD
BRANCH  16  19
HETATM   19  C7  UNL     1      31.059  37.770  39.210  1.00  0.00     0.228 C 
HETATM   20  C8  UNL     1      31.138  39.043  40.033  1.00  0.00     0.034 C 
ENDBRANCH  16  19
ENDBRANCH  15  16
ENDBRANCH  14  15
ENDBRANCH   9  14
ENDBRANCH   1   9
BRANCH   8  21
HETATM   21  C25 UNL     1      30.132  41.629  37.105  1.00  0.00     0.270 C 
HETATM   22  N6  UNL     1      29.618  42.316  38.270  1.00  0.00    -0.057 NA
HETATM   23  O1  UNL     1      31.237  41.032  37.223  1.00  0.00    -0.271 OA
ENDBRANCH   8  21
BRANCH   4  24
HETATM   24  N4  UNL     1      27.328  41.835  32.395  1.00  0.00    -0.191 N 
ATOM     25  H4  UNL     1      26.502  42.432  32.396  1.00  0.00     0.184 HD
BRANCH  24  26
HETATM   26  C11 UNL     1      27.647  41.270  31.168  1.00  0.00     0.061 A 
HETATM   27  C12 UNL     1      27.192  40.005  30.856  1.00  0.00    -0.034 A 
HETATM   28  C13 UNL     1      26.366  39.196  31.810  1.00  0.00     0.050 C 
HETATM   29  C14 UNL     1      27.500  39.460  29.630  1.00  0.00     0.015 A 
HETATM   30  C15 UNL     1      28.256  40.166  28.721  1.00  0.00    -0.061 A 
HETATM   31  C16 UNL     1      28.579  39.565  27.396  1.00  0.00     0.048 C 
HETATM   32  C17 UNL     1      28.696  41.427  29.063  1.00  0.00     0.015 A 
HETATM   33  C18 UNL     1      28.414  42.016  30.277  1.00  0.00    -0.034 A 
HETATM   34  C19 UNL     1      28.907  43.380  30.610  1.00  0.00     0.050 C 
ENDBRANCH  24  26
ENDBRANCH   4  24
BRANCH   7  35
HETATM   35  C21 UNL     1      30.632  43.668  35.109  1.00  0.00     0.029 C 
HETATM   36  C22 UNL     1      29.980  44.982  35.623  1.00  0.00     0.016 C 
HETATM   37  C23 UNL     1      31.239  44.060  33.787  1.00  0.00     0.016 C 
ENDBRANCH   7  35
TORSDOF 12
ENDMDL
