MODEL 1
REMARK VINA RESULT: -8.631520918      0.000      0.000
REMARK  14 active torsions:
REMARK  status: ('A' for Active; 'I' for Inactive)
REMARK    1  A    between atoms: C2_2  and  C3_3 
REMARK    2  A    between atoms: C2_2  and  C22_27 
REMARK    3  A    between atoms: C3_3  and  C4_4 
REMARK    4  A    between atoms: C3_3  and  C11_15 
REMARK    5  A    between atoms: C5_5  and  C6_6 
REMARK    6  A    between atoms: C6_6  and  C7_7 
REMARK    7  A    between atoms: C7_7  and  C8_8 
REMARK    8  A    between atoms: C8_8  and  N1_11 
REMARK    9  A    between atoms: N2_18  and  C14_19 
REMARK   10  A    between atoms: C14_19  and  C15_20 
REMARK   11  A    between atoms: C22_27  and  C23_28 
REMARK   12  A    between atoms: C22_27  and  N3_30 
REMARK   13  A    between atoms: N3_30  and  O1_31 
REMARK   14  A    between atoms: N3_30  and  C24_33 
ROOT
HETATM    1  C3  UNL     1      30.185  41.331  37.423  1.00  0.00    -0.068 C 
ENDROOT
BRANCH   1   2
HETATM    2  C2  UNL     1      29.756  40.013  37.015  1.00  0.00     0.037 C 
HETATM    3  C1  UNL     1      31.018  39.128  36.886  1.00  0.00     0.017 C 
BRANCH   2   4
HETATM    4  C22 UNL     1      28.881  39.670  35.910  1.00  0.00     0.135 C 
BRANCH   4   5
HETATM    5  C23 UNL     1      27.574  40.368  35.737  1.00  0.00     0.114 C 
HETATM    6  S1  UNL     1      27.564  40.900  33.963  1.00  0.00    -0.095 SA
ENDBRANCH   4   5
BRANCH   4   7
HETATM    7  N3  UNL     1      28.457  38.257  36.153  1.00  0.00    -0.230 N 
BRANCH   7   8
HETATM    8  O1  UNL     1      28.774  37.252  35.346  1.00  0.00    -0.285 OA
ATOM      9  H1  UNL     1      28.867  36.355  35.643  1.00  0.00     0.245 HD
ENDBRANCH   7   8
BRANCH   7  10
HETATM   10  C24 UNL     1      27.680  38.042  37.324  1.00  0.00     0.377 C 
HETATM   11  O2  UNL     1      28.025  37.139  38.171  1.00  0.00    -0.281 OA
ENDBRANCH   7  10
ENDBRANCH   4   7
ENDBRANCH   2   4
ENDBRANCH   1   2
BRANCH   1  12
HETATM   12  C4  UNL     1      29.920  42.502  36.583  1.00  0.00    -0.001 C 
HETATM   13  C5  UNL     1      30.569  42.931  35.519  1.00  0.00    -0.026 C 
BRANCH  13  14
HETATM   14  C6  UNL     1      30.168  44.170  34.748  1.00  0.00     0.029 C 
BRANCH  14  15
HETATM   15  C7  UNL     1      31.391  44.735  34.105  1.00  0.00     0.041 C 
BRANCH  15  16
HETATM   16  C8  UNL     1      31.561  46.212  34.328  1.00  0.00     0.117 C 
HETATM   17  C9  UNL     1      30.889  46.674  35.602  1.00  0.00     0.045 C 
HETATM   18  C10 UNL     1      32.998  46.664  34.310  1.00  0.00     0.045 C 
BRANCH  16  19
HETATM   19  N1  UNL     1      30.895  46.890  33.221  1.00  0.00    -0.071 N 
ATOM     20  H13 UNL     1      30.528  46.247  32.520  1.00  0.00     0.275 HD
ATOM     21  H12 UNL     1      30.006  47.314  33.488  1.00  0.00     0.275 HD
ATOM     22  H11 UNL     1      31.561  47.561  32.839  1.00  0.00     0.275 HD
ENDBRANCH  16  19
ENDBRANCH  15  16
ENDBRANCH  14  15
ENDBRANCH  13  14
ENDBRANCH   1  12
BRANCH   1  23
HETATM   23  C11 UNL     1      29.944  41.726  38.860  1.00  0.00     0.045 C 
HETATM   24  C12 UNL     1      28.806  41.023  39.527  1.00  0.00     0.041 C 
HETATM   25  C13 UNL     1      29.277  40.671  40.931  1.00  0.00     0.273 C 
HETATM   26  N2  UNL     1      30.679  40.763  40.901  1.00  0.00     0.090 N 
HETATM   27  C21 UNL     1      31.145  41.144  39.620  1.00  0.00     0.281 C 
BRANCH  26  28
HETATM   28  C14 UNL     1      31.382  39.716  41.511  1.00  0.00     0.285 C 
BRANCH  28  29
HETATM   29  C15 UNL     1      32.253  40.038  42.688  1.00  0.00     0.000 C 
HETATM   30  C16 UNL     1      31.974  41.362  43.342  1.00  0.00     0.021 C 
HETATM   31  C17 UNL     1      32.108  39.009  43.744  1.00  0.00    -0.020 C 
HETATM   32  C18 UNL     1      33.271  38.795  44.308  1.00  0.00    -0.030 C 
HETATM   33  C19 UNL     1      34.339  39.657  43.693  1.00  0.00     0.028 C 
HETATM   34  C20 UNL     1      33.717  40.000  42.341  1.00  0.00     0.018 C 
ENDBRANCH  28  29
ENDBRANCH  26  28
ENDBRANCH   1  23
TORSDOF 14
ENDMDL
MODEL 2
REMARK VINA RESULT: -8.302307558      0.466      1.064
REMARK  14 active torsions:
REMARK  status: ('A' for Active; 'I' for Inactive)
REMARK    1  A    between atoms: C2_2  and  C3_3 
REMARK    2  A    between atoms: C2_2  and  C22_27 
REMARK    3  A    between atoms: C3_3  and  C4_4 
REMARK    4  A    between atoms: C3_3  and  C11_15 
REMARK    5  A    between atoms: C5_5  and  C6_6 
REMARK    6  A    between atoms: C6_6  and  C7_7 
REMARK    7  A    between atoms: C7_7  and  C8_8 
REMARK    8  A    between atoms: C8_8  and  N1_11 
REMARK    9  A    between atoms: N2_18  and  C14_19 
REMARK   10  A    between atoms: C14_19  and  C15_20 
REMARK   11  A    between atoms: C22_27  and  C23_28 
REMARK   12  A    between atoms: C22_27  and  N3_30 
REMARK   13  A    between atoms: N3_30  and  O1_31 
REMARK   14  A    between atoms: N3_30  and  C24_33 
ROOT
HETATM    1  C3  UNL     1      30.126  41.284  37.262  1.00  0.00    -0.068 C 
ENDROOT
BRANCH   1   2
HETATM    2  C2  UNL     1      29.593  39.991  36.896  1.00  0.00     0.037 C 
HETATM    3  C1  UNL     1      30.769  38.988  36.872  1.00  0.00     0.017 C 
BRANCH   2   4
HETATM    4  C22 UNL     1      28.739  39.676  35.766  1.00  0.00     0.135 C 
BRANCH   4   5
HETATM    5  C23 UNL     1      27.456  40.407  35.560  1.00  0.00     0.114 C 
HETATM    6  S1  UNL     1      27.551  41.028  33.818  1.00  0.00    -0.095 SA
ENDBRANCH   4   5
BRANCH   4   7
HETATM    7  N3  UNL     1      28.274  38.273  35.990  1.00  0.00    -0.230 N 
BRANCH   7   8
HETATM    8  O1  UNL     1      28.671  37.246  35.249  1.00  0.00    -0.285 OA
ATOM      9  H1  UNL     1      29.303  37.325  34.545  1.00  0.00     0.245 HD
ENDBRANCH   7   8
BRANCH   7  10
HETATM   10  C24 UNL     1      27.364  38.093  37.067  1.00  0.00     0.377 C 
HETATM   11  O2  UNL     1      27.677  37.337  38.058  1.00  0.00    -0.281 OA
ENDBRANCH   7  10
ENDBRANCH   4   7
ENDBRANCH   2   4
ENDBRANCH   1   2
BRANCH   1  12
HETATM   12  C4  UNL     1      29.839  42.473  36.456  1.00  0.00    -0.001 C 
HETATM   13  C5  UNL     1      30.521  42.985  35.451  1.00  0.00    -0.026 C 
BRANCH  13  14
HETATM   14  C6  UNL     1      30.091  44.231  34.708  1.00  0.00     0.029 C 
BRANCH  14  15
HETATM   15  C7  UNL     1      31.282  44.785  33.998  1.00  0.00     0.041 C 
BRANCH  15  16
HETATM   16  C8  UNL     1      31.528  46.240  34.281  1.00  0.00     0.117 C 
HETATM   17  C9  UNL     1      30.816  46.704  35.533  1.00  0.00     0.045 C 
HETATM   18  C10 UNL     1      32.988  46.603  34.354  1.00  0.00     0.045 C 
BRANCH  16  19
HETATM   19  N1  UNL     1      30.967  46.993  33.164  1.00  0.00    -0.071 N 
ATOM     20  H13 UNL     1      30.773  46.414  32.348  1.00  0.00     0.275 HD
ATOM     21  H12 UNL     1      30.010  47.306  33.332  1.00  0.00     0.275 HD
ATOM     22  H11 UNL     1      31.610  47.760  32.968  1.00  0.00     0.275 HD
ENDBRANCH  16  19
ENDBRANCH  15  16
ENDBRANCH  14  15
ENDBRANCH  13  14
ENDBRANCH   1  12
BRANCH   1  23
HETATM   23  C11 UNL     1      30.049  41.679  38.718  1.00  0.00     0.045 C 
HETATM   24  C12 UNL     1      29.109  40.865  39.546  1.00  0.00     0.041 C 
HETATM   25  C13 UNL     1      29.814  40.600  40.868  1.00  0.00     0.273 C 
HETATM   26  N2  UNL     1      31.177  40.852  40.635  1.00  0.00     0.090 N 
HETATM   27  C21 UNL     1      31.406  41.256  39.298  1.00  0.00     0.281 C 
BRANCH  26  28
HETATM   28  C14 UNL     1      32.079  39.907  41.142  1.00  0.00     0.285 C 
BRANCH  28  29
HETATM   29  C15 UNL     1      32.526  40.046  42.566  1.00  0.00     0.000 C 
HETATM   30  C16 UNL     1      34.015  40.113  42.761  1.00  0.00     0.021 C 
HETATM   31  C17 UNL     1      31.968  41.278  43.172  1.00  0.00    -0.020 C 
HETATM   32  C18 UNL     1      31.654  41.046  44.422  1.00  0.00    -0.030 C 
HETATM   33  C19 UNL     1      31.963  39.625  44.804  1.00  0.00     0.028 C 
HETATM   34  C20 UNL     1      31.999  38.940  43.439  1.00  0.00     0.018 C 
ENDBRANCH  28  29
ENDBRANCH  26  28
ENDBRANCH   1  23
TORSDOF 14
ENDMDL
MODEL 3
REMARK VINA RESULT: -8.027559093      2.027      2.813
REMARK  14 active torsions:
REMARK  status: ('A' for Active; 'I' for Inactive)
REMARK    1  A    between atoms: C2_2  and  C3_3 
REMARK    2  A    between atoms: C2_2  and  C22_27 
REMARK    3  A    between atoms: C3_3  and  C4_4 
REMARK    4  A    between atoms: C3_3  and  C11_15 
REMARK    5  A    between atoms: C5_5  and  C6_6 
REMARK    6  A    between atoms: C6_6  and  C7_7 
REMARK    7  A    between atoms: C7_7  and  C8_8 
REMARK    8  A    between atoms: C8_8  and  N1_11 
REMARK    9  A    between atoms: N2_18  and  C14_19 
REMARK   10  A    between atoms: C14_19  and  C15_20 
REMARK   11  A    between atoms: C22_27  and  C23_28 
REMARK   12  A    between atoms: C22_27  and  N3_30 
REMARK   13  A    between atoms: N3_30  and  O1_31 
REMARK   14  A    between atoms: N3_30  and  C24_33 
ROOT
HETATM    1  C3  UNL     1      29.892  39.085  37.119  1.00  0.00    -0.068 C 
ENDROOT
BRANCH   1   2
HETATM    2  C2  UNL     1      28.563  38.557  37.329  1.00  0.00     0.037 C 
HETATM    3  C1  UNL     1      28.698  37.269  38.175  1.00  0.00     0.017 C 
BRANCH   2   4
HETATM    4  C22 UNL     1      27.544  38.305  36.328  1.00  0.00     0.135 C 
BRANCH   4   5
HETATM    5  C23 UNL     1      27.919  37.776  34.985  1.00  0.00     0.114 C 
HETATM    6  S1  UNL     1      27.146  36.094  34.917  1.00  0.00    -0.095 SA
ENDBRANCH   4   5
BRANCH   4   7
HETATM    7  N3  UNL     1      26.967  39.643  35.993  1.00  0.00    -0.230 N 
BRANCH   7   8
HETATM    8  O1  UNL     1      26.322  40.400  36.873  1.00  0.00    -0.285 OA
ATOM      9  H1  UNL     1      26.081  41.303  36.706  1.00  0.00     0.245 HD
ENDBRANCH   7   8
BRANCH   7  10
HETATM   10  C24 UNL     1      27.151  40.073  34.651  1.00  0.00     0.377 C 
HETATM   11  O2  UNL     1      27.564  41.265  34.405  1.00  0.00    -0.281 OA
ENDBRANCH   7  10
ENDBRANCH   4   7
ENDBRANCH   2   4
ENDBRANCH   1   2
BRANCH   1  12
HETATM   12  C4  UNL     1      30.099  40.503  36.813  1.00  0.00    -0.001 C 
HETATM   13  C5  UNL     1      29.569  41.567  37.383  1.00  0.00    -0.026 C 
BRANCH  13  14
HETATM   14  C6  UNL     1      29.885  42.983  36.951  1.00  0.00     0.029 C 
BRANCH  14  15
HETATM   15  C7  UNL     1      30.526  42.927  35.604  1.00  0.00     0.041 C 
BRANCH  15  16
HETATM   16  C8  UNL     1      30.202  44.110  34.735  1.00  0.00     0.117 C 
HETATM   17  C9  UNL     1      29.980  45.367  35.547  1.00  0.00     0.045 C 
HETATM   18  C10 UNL     1      31.225  44.366  33.658  1.00  0.00     0.045 C 
BRANCH  16  19
HETATM   19  N1  UNL     1      28.947  43.810  34.055  1.00  0.00    -0.071 N 
ATOM     20  H13 UNL     1      29.064  43.633  33.058  1.00  0.00     0.275 HD
ATOM     21  H12 UNL     1      28.564  42.897  34.305  1.00  0.00     0.275 HD
ATOM     22  H11 UNL     1      28.309  44.580  34.253  1.00  0.00     0.275 HD
ENDBRANCH  16  19
ENDBRANCH  15  16
ENDBRANCH  14  15
ENDBRANCH  13  14
ENDBRANCH   1  12
BRANCH   1  23
HETATM   23  C11 UNL     1      30.969  38.657  38.087  1.00  0.00     0.045 C 
HETATM   24  C12 UNL     1      32.347  39.127  37.749  1.00  0.00     0.041 C 
HETATM   25  C13 UNL     1      32.987  39.569  39.057  1.00  0.00     0.273 C 
HETATM   26  N2  UNL     1      31.928  39.752  39.961  1.00  0.00     0.090 N 
HETATM   27  C21 UNL     1      30.679  39.465  39.360  1.00  0.00     0.281 C 
BRANCH  26  28
HETATM   28  C14 UNL     1      31.969  40.918  40.737  1.00  0.00     0.285 C 
BRANCH  28  29
HETATM   29  C15 UNL     1      32.393  40.802  42.170  1.00  0.00     0.000 C 
HETATM   30  C16 UNL     1      32.205  42.047  42.991  1.00  0.00     0.021 C 
HETATM   31  C17 UNL     1      31.634  39.729  42.855  1.00  0.00    -0.020 C 
HETATM   32  C18 UNL     1      32.423  39.104  43.693  1.00  0.00    -0.030 C 
HETATM   33  C19 UNL     1      33.811  39.683  43.667  1.00  0.00     0.028 C 
HETATM   34  C20 UNL     1      33.829  40.377  42.307  1.00  0.00     0.018 C 
ENDBRANCH  28  29
ENDBRANCH  26  28
ENDBRANCH   1  23
TORSDOF 14
ENDMDL
MODEL 4
REMARK VINA RESULT: -7.993525948      1.856      2.427
REMARK  14 active torsions:
REMARK  status: ('A' for Active; 'I' for Inactive)
REMARK    1  A    between atoms: C2_2  and  C3_3 
REMARK    2  A    between atoms: C2_2  and  C22_27 
REMARK    3  A    between atoms: C3_3  and  C4_4 
REMARK    4  A    between atoms: C3_3  and  C11_15 
REMARK    5  A    between atoms: C5_5  and  C6_6 
REMARK    6  A    between atoms: C6_6  and  C7_7 
REMARK    7  A    between atoms: C7_7  and  C8_8 
REMARK    8  A    between atoms: C8_8  and  N1_11 
REMARK    9  A    between atoms: N2_18  and  C14_19 
REMARK   10  A    between atoms: C14_19  and  C15_20 
REMARK   11  A    between atoms: C22_27  and  C23_28 
REMARK   12  A    between atoms: C22_27  and  N3_30 
REMARK   13  A    between atoms: N3_30  and  O1_31 
REMARK   14  A    between atoms: N3_30  and  C24_33 
ROOT
HETATM    1  C3  UNL     1      29.655  39.193  37.266  1.00  0.00    -0.068 C 
ENDROOT
BRANCH   1   2
HETATM    2  C2  UNL     1      28.364  38.563  37.428  1.00  0.00     0.037 C 
HETATM    3  C1  UNL     1      28.607  37.115  37.914  1.00  0.00     0.017 C 
BRANCH   2   4
HETATM    4  C22 UNL     1      27.278  38.514  36.468  1.00  0.00     0.135 C 
BRANCH   4   5
HETATM    5  C23 UNL     1      27.497  38.943  35.057  1.00  0.00     0.114 C 
HETATM    6  S1  UNL     1      27.112  37.438  34.049  1.00  0.00    -0.095 SA
ENDBRANCH   4   5
BRANCH   4   7
HETATM    7  N3  UNL     1      26.269  39.507  36.949  1.00  0.00    -0.230 N 
BRANCH   7   8
HETATM    8  O1  UNL     1      26.430  40.820  36.842  1.00  0.00    -0.285 OA
ATOM      9  H1  UNL     1      26.660  41.253  36.029  1.00  0.00     0.245 HD
ENDBRANCH   7   8
BRANCH   7  10
HETATM   10  C24 UNL     1      25.100  38.956  37.541  1.00  0.00     0.377 C 
HETATM   11  O2  UNL     1      24.938  39.001  38.815  1.00  0.00    -0.281 OA
ENDBRANCH   7  10
ENDBRANCH   4   7
ENDBRANCH   2   4
ENDBRANCH   1   2
BRANCH   1  12
HETATM   12  C4  UNL     1      29.769  40.644  37.099  1.00  0.00    -0.001 C 
HETATM   13  C5  UNL     1      30.038  41.341  36.013  1.00  0.00    -0.026 C 
BRANCH  13  14
HETATM   14  C6  UNL     1      30.121  42.852  35.998  1.00  0.00     0.029 C 
BRANCH  14  15
HETATM   15  C7  UNL     1      30.481  43.286  34.616  1.00  0.00     0.041 C 
BRANCH  15  16
HETATM   16  C8  UNL     1      30.255  44.750  34.367  1.00  0.00     0.117 C 
HETATM   17  C9  UNL     1      29.756  45.466  35.603  1.00  0.00     0.045 C 
HETATM   18  C10 UNL     1      31.461  45.462  33.810  1.00  0.00     0.045 C 
BRANCH  16  19
HETATM   19  N1  UNL     1      29.206  44.854  33.358  1.00  0.00    -0.071 N 
ATOM     20  H13 UNL     1      28.941  43.953  32.961  1.00  0.00     0.275 HD
ATOM     21  H12 UNL     1      28.296  45.097  33.749  1.00  0.00     0.275 HD
ATOM     22  H11 UNL     1      29.532  45.520  32.657  1.00  0.00     0.275 HD
ENDBRANCH  16  19
ENDBRANCH  15  16
ENDBRANCH  14  15
ENDBRANCH  13  14
ENDBRANCH   1  12
BRANCH   1  23
HETATM   23  C11 UNL     1      30.767  38.741  38.183  1.00  0.00     0.045 C 
HETATM   24  C12 UNL     1      32.138  39.174  37.776  1.00  0.00     0.041 C 
HETATM   25  C13 UNL     1      32.853  39.605  39.048  1.00  0.00     0.273 C 
HETATM   26  N2  UNL     1      31.844  39.821  40.002  1.00  0.00     0.090 N 
HETATM   27  C21 UNL     1      30.560  39.563  39.464  1.00  0.00     0.281 C 
BRANCH  26  28
HETATM   28  C14 UNL     1      31.952  40.989  40.767  1.00  0.00     0.285 C 
BRANCH  28  29
HETATM   29  C15 UNL     1      32.426  40.867  42.184  1.00  0.00     0.000 C 
HETATM   30  C16 UNL     1      32.302  42.120  43.006  1.00  0.00     0.021 C 
HETATM   31  C17 UNL     1      31.664  39.818  42.902  1.00  0.00    -0.020 C 
HETATM   32  C18 UNL     1      32.466  39.174  43.713  1.00  0.00    -0.030 C 
HETATM   33  C19 UNL     1      33.867  39.716  43.633  1.00  0.00     0.028 C 
HETATM   34  C20 UNL     1      33.854  40.403  42.270  1.00  0.00     0.018 C 
ENDBRANCH  28  29
ENDBRANCH  26  28
ENDBRANCH   1  23
TORSDOF 14
ENDMDL
MODEL 5
REMARK VINA RESULT: -7.866568060      2.092      2.966
REMARK  14 active torsions:
REMARK  status: ('A' for Active; 'I' for Inactive)
REMARK    1  A    between atoms: C2_2  and  C3_3 
REMARK    2  A    between atoms: C2_2  and  C22_27 
REMARK    3  A    between atoms: C3_3  and  C4_4 
REMARK    4  A    between atoms: C3_3  and  C11_15 
REMARK    5  A    between atoms: C5_5  and  C6_6 
REMARK    6  A    between atoms: C6_6  and  C7_7 
REMARK    7  A    between atoms: C7_7  and  C8_8 
REMARK    8  A    between atoms: C8_8  and  N1_11 
REMARK    9  A    between atoms: N2_18  and  C14_19 
REMARK   10  A    between atoms: C14_19  and  C15_20 
REMARK   11  A    between atoms: C22_27  and  C23_28 
REMARK   12  A    between atoms: C22_27  and  N3_30 
REMARK   13  A    between atoms: N3_30  and  O1_31 
REMARK   14  A    between atoms: N3_30  and  C24_33 
ROOT
HETATM    1  C3  UNL     1      28.730  40.083  37.120  1.00  0.00    -0.068 C 
ENDROOT
BRANCH   1   2
HETATM    2  C2  UNL     1      27.447  39.774  36.529  1.00  0.00     0.037 C 
HETATM    3  C1  UNL     1      26.427  39.615  37.680  1.00  0.00     0.017 C 
BRANCH   2   4
HETATM    4  C22 UNL     1      27.150  38.744  35.551  1.00  0.00     0.135 C 
BRANCH   4   5
HETATM    5  C23 UNL     1      28.160  37.695  35.227  1.00  0.00     0.114 C 
HETATM    6  S1  UNL     1      27.702  36.261  36.305  1.00  0.00    -0.095 SA
ENDBRANCH   4   5
BRANCH   4   7
HETATM    7  N3  UNL     1      27.002  39.457  34.246  1.00  0.00    -0.230 N 
BRANCH   7   8
HETATM    8  O1  UNL     1      27.053  40.778  34.128  1.00  0.00    -0.285 OA
ATOM      9  H1  UNL     1      27.124  41.366  34.870  1.00  0.00     0.245 HD
ENDBRANCH   7   8
BRANCH   7  10
HETATM   10  C24 UNL     1      26.800  38.626  33.111  1.00  0.00     0.377 C 
HETATM   11  O2  UNL     1      27.037  39.076  31.930  1.00  0.00    -0.281 OA
ENDBRANCH   7  10
ENDBRANCH   4   7
ENDBRANCH   2   4
ENDBRANCH   1   2
BRANCH   1  12
HETATM   12  C4  UNL     1      29.255  41.450  37.105  1.00  0.00    -0.001 C 
HETATM   13  C5  UNL     1      29.644  42.185  36.082  1.00  0.00    -0.026 C 
BRANCH  13  14
HETATM   14  C6  UNL     1      30.167  43.597  36.228  1.00  0.00     0.029 C 
BRANCH  14  15
HETATM   15  C7  UNL     1      30.915  43.948  34.984  1.00  0.00     0.041 C 
BRANCH  15  16
HETATM   16  C8  UNL     1      30.507  45.266  34.389  1.00  0.00     0.117 C 
HETATM   17  C9  UNL     1      29.595  46.048  35.309  1.00  0.00     0.045 C 
HETATM   18  C10 UNL     1      31.671  46.125  33.966  1.00  0.00     0.045 C 
BRANCH  16  19
HETATM   19  N1  UNL     1      29.745  44.971  33.180  1.00  0.00    -0.071 N 
ATOM     20  H13 UNL     1      29.960  44.056  32.785  1.00  0.00     0.275 HD
ATOM     21  H12 UNL     1      28.755  44.806  33.361  1.00  0.00     0.275 HD
ATOM     22  H11 UNL     1      29.912  45.738  32.528  1.00  0.00     0.275 HD
ENDBRANCH  16  19
ENDBRANCH  15  16
ENDBRANCH  14  15
ENDBRANCH  13  14
ENDBRANCH   1  12
BRANCH   1  23
HETATM   23  C11 UNL     1      29.034  39.482  38.471  1.00  0.00     0.045 C 
HETATM   24  C12 UNL     1      30.108  38.443  38.475  1.00  0.00     0.041 C 
HETATM   25  C13 UNL     1      30.962  38.707  39.707  1.00  0.00     0.273 C 
HETATM   26  N2  UNL     1      30.670  40.023  40.103  1.00  0.00     0.090 N 
HETATM   27  C21 UNL     1      29.711  40.619  39.249  1.00  0.00     0.281 C 
BRANCH  26  28
HETATM   28  C14 UNL     1      31.767  40.830  40.433  1.00  0.00     0.285 C 
BRANCH  28  29
HETATM   29  C15 UNL     1      32.139  40.964  41.879  1.00  0.00     0.000 C 
HETATM   30  C16 UNL     1      33.176  39.989  42.361  1.00  0.00     0.021 C 
HETATM   31  C17 UNL     1      32.674  42.317  42.158  1.00  0.00    -0.020 C 
HETATM   32  C18 UNL     1      32.266  42.713  43.338  1.00  0.00    -0.030 C 
HETATM   33  C19 UNL     1      31.403  41.668  43.992  1.00  0.00     0.028 C 
HETATM   34  C20 UNL     1      30.946  40.849  42.788  1.00  0.00     0.018 C 
ENDBRANCH  28  29
ENDBRANCH  26  28
ENDBRANCH   1  23
TORSDOF 14
ENDMDL
