MODEL 1
REMARK VINA RESULT: -8.107255081      0.000      0.000
REMARK  14 active torsions:
REMARK  status: ('A' for Active; 'I' for Inactive)
REMARK    1  A    between atoms: C2_2  and  C3_3 
REMARK    2  A    between atoms: C3_3  and  O1_4 
REMARK    3  A    between atoms: O1_4  and  C4_5 
REMARK       I    between atoms: C4_5  and  N1_7 
REMARK    4  A    between atoms: N1_7  and  C5_9 
REMARK    5  A    between atoms: C9_15  and  C10_16 
REMARK    6  A    between atoms: C10_16  and  O3_17 
REMARK    7  A    between atoms: C10_16  and  C11_19 
REMARK    8  A    between atoms: C11_19  and  N3_20 
REMARK    9  A    between atoms: N3_20  and  C12_21 
REMARK   10  A    between atoms: N3_20  and  C18_28 
REMARK   11  A    between atoms: C12_21  and  C13_22 
REMARK   12  A    between atoms: C13_22  and  S1_23 
REMARK   13  A    between atoms: S1_23  and  C14_24 
REMARK   14  A    between atoms: C14_24  and  C15_25 
ROOT
HETATM    1  C5  UNL     1      32.278  40.532  40.508  1.00  0.00     0.111 A 
HETATM    2  C6  UNL     1      32.496  39.634  39.464  1.00  0.00     0.079 A 
HETATM    3  C7  UNL     1      31.521  39.302  38.561  1.00  0.00     0.048 A 
HETATM    4  N2  UNL     1      31.479  38.496  37.500  1.00  0.00    -0.364 N 
ATOM      5  H2  UNL     1      32.262  37.936  37.164  1.00  0.00     0.165 HD
HETATM    6  C8  UNL     1      30.250  38.527  36.932  1.00  0.00     0.099 A 
HETATM    7  C9  UNL     1      29.456  39.391  37.654  1.00  0.00     0.005 A 
HETATM    8  C21 UNL     1      30.273  39.870  38.679  1.00  0.00     0.017 A 
HETATM    9  C22 UNL     1      30.054  40.755  39.704  1.00  0.00     0.104 A 
HETATM   10  N4  UNL     1      31.038  41.053  40.568  1.00  0.00    -0.351 N 
ATOM     11  H4  UNL     1      30.833  41.716  41.316  1.00  0.00     0.166 HD
ENDROOT
BRANCH   7  12
HETATM   12  C10 UNL     1      28.020  39.771  37.448  1.00  0.00     0.192 C 
BRANCH  12  13
HETATM   13  O3  UNL     1      27.474  39.836  38.720  1.00  0.00    -0.386 OA
ATOM     14  H3  UNL     1      26.551  40.018  38.587  1.00  0.00     0.210 HD
ENDBRANCH  12  13
BRANCH  12  15
HETATM   15  C11 UNL     1      27.938  41.013  36.639  1.00  0.00     0.100 C 
BRANCH  15  16
HETATM   16  N3  UNL     1      27.959  40.974  35.265  1.00  0.00    -0.365 N 
BRANCH  16  17
HETATM   17  C12 UNL     1      28.878  41.848  34.631  1.00  0.00     0.138 C 
BRANCH  17  18
HETATM   18  C13 UNL     1      30.101  42.216  35.392  1.00  0.00     0.094 C 
BRANCH  18  19
HETATM   19  S1  UNL     1      30.415  43.958  35.565  1.00  0.00    -0.167 SA
BRANCH  19  20
HETATM   20  C14 UNL     1      31.284  44.677  34.159  1.00  0.00     0.077 C 
BRANCH  20  21
HETATM   21  C15 UNL     1      31.291  46.187  34.163  1.00  0.00    -0.013 C 
HETATM   22  C16 UNL     1      32.735  46.631  34.260  1.00  0.00     0.010 C 
HETATM   23  C17 UNL     1      30.563  46.717  35.376  1.00  0.00     0.010 C 
ENDBRANCH  20  21
ENDBRANCH  19  20
ENDBRANCH  18  19
ENDBRANCH  17  18
ENDBRANCH  16  17
BRANCH  16  24
HETATM   24  C18 UNL     1      27.135  40.267  34.417  1.00  0.00    -0.019 C 
HETATM   25  C19 UNL     1      27.013  40.969  33.052  1.00  0.00     0.063 C 
HETATM   26  C20 UNL     1      27.234  38.787  34.309  1.00  0.00     0.063 C 
ENDBRANCH  16  24
ENDBRANCH  15  16
ENDBRANCH  12  15
ENDBRANCH   7  12
BRANCH   1  27
HETATM   27  N1  UNL     1      33.222  40.824  41.340  1.00  0.00    -0.288 N 
HETATM   28  C4  UNL     1      32.980  41.636  42.474  1.00  0.00     0.366 C 
HETATM   29  O2  UNL     1      32.721  42.845  42.278  1.00  0.00    -0.238 OA
ATOM     30  H1  UNL     1      34.162  40.463  41.177  1.00  0.00     0.172 HD
BRANCH  28  31
HETATM   31  O1  UNL     1      33.017  41.159  43.761  1.00  0.00    -0.300 OA
BRANCH  31  32
HETATM   32  C3  UNL     1      31.847  40.755  44.428  1.00  0.00     0.207 C 
BRANCH  32  33
HETATM   33  C2  UNL     1      31.698  39.285  44.292  1.00  0.00    -0.011 C 
HETATM   34  C1  UNL     1      32.682  38.410  44.438  1.00  0.00     0.009 C 
ENDBRANCH  32  33
ENDBRANCH  31  32
ENDBRANCH  28  31
ENDBRANCH   1  27
TORSDOF 14
ENDMDL
MODEL 2
REMARK VINA RESULT: -8.079800572      2.510      4.595
REMARK  14 active torsions:
REMARK  status: ('A' for Active; 'I' for Inactive)
REMARK    1  A    between atoms: C2_2  and  C3_3 
REMARK    2  A    between atoms: C3_3  and  O1_4 
REMARK    3  A    between atoms: O1_4  and  C4_5 
REMARK       I    between atoms: C4_5  and  N1_7 
REMARK    4  A    between atoms: N1_7  and  C5_9 
REMARK    5  A    between atoms: C9_15  and  C10_16 
REMARK    6  A    between atoms: C10_16  and  O3_17 
REMARK    7  A    between atoms: C10_16  and  C11_19 
REMARK    8  A    between atoms: C11_19  and  N3_20 
REMARK    9  A    between atoms: N3_20  and  C12_21 
REMARK   10  A    between atoms: N3_20  and  C18_28 
REMARK   11  A    between atoms: C12_21  and  C13_22 
REMARK   12  A    between atoms: C13_22  and  S1_23 
REMARK   13  A    between atoms: S1_23  and  C14_24 
REMARK   14  A    between atoms: C14_24  and  C15_25 
ROOT
HETATM    1  C5  UNL     1      31.672  39.800  40.940  1.00  0.00     0.111 A 
HETATM    2  C6  UNL     1      30.365  40.278  40.857  1.00  0.00     0.079 A 
HETATM    3  C7  UNL     1      29.895  40.955  39.763  1.00  0.00     0.048 A 
HETATM    4  N2  UNL     1      28.719  41.495  39.444  1.00  0.00    -0.364 N 
ATOM      5  H2  UNL     1      27.893  41.486  40.042  1.00  0.00     0.165 HD
HETATM    6  C8  UNL     1      28.775  42.057  38.212  1.00  0.00     0.099 A 
HETATM    7  C9  UNL     1      30.043  41.874  37.706  1.00  0.00     0.005 A 
HETATM    8  C21 UNL     1      30.737  41.178  38.696  1.00  0.00     0.017 A 
HETATM    9  C22 UNL     1      32.024  40.709  38.774  1.00  0.00     0.104 A 
HETATM   10  N4  UNL     1      32.444  40.050  39.866  1.00  0.00    -0.351 N 
ATOM     11  H4  UNL     1      33.409  39.717  39.882  1.00  0.00     0.166 HD
ENDROOT
BRANCH   7  12
HETATM   12  C10 UNL     1      30.622  42.310  36.393  1.00  0.00     0.192 C 
BRANCH  12  13
HETATM   13  O3  UNL     1      30.623  41.174  35.599  1.00  0.00    -0.386 OA
ATOM     14  H3  UNL     1      30.959  41.457  34.758  1.00  0.00     0.210 HD
ENDBRANCH  12  13
BRANCH  12  15
HETATM   15  C11 UNL     1      29.862  43.471  35.867  1.00  0.00     0.100 C 
BRANCH  15  16
HETATM   16  N3  UNL     1      30.406  44.316  34.929  1.00  0.00    -0.365 N 
BRANCH  16  17
HETATM   17  C12 UNL     1      30.424  43.836  33.595  1.00  0.00     0.138 C 
BRANCH  17  18
HETATM   18  C13 UNL     1      29.124  43.425  33.002  1.00  0.00     0.094 C 
BRANCH  18  19
HETATM   19  S1  UNL     1      29.103  43.230  31.234  1.00  0.00    -0.167 SA
BRANCH  19  20
HETATM   20  C14 UNL     1      27.781  42.157  30.644  1.00  0.00     0.077 C 
BRANCH  20  21
HETATM   21  C15 UNL     1      27.027  42.723  29.464  1.00  0.00    -0.013 C 
HETATM   22  C16 UNL     1      26.116  41.631  28.945  1.00  0.00     0.010 C 
HETATM   23  C17 UNL     1      27.981  43.092  28.353  1.00  0.00     0.010 C 
ENDBRANCH  20  21
ENDBRANCH  19  20
ENDBRANCH  18  19
ENDBRANCH  17  18
ENDBRANCH  16  17
BRANCH  16  24
HETATM   24  C18 UNL     1      31.027  45.530  35.128  1.00  0.00    -0.019 C 
HETATM   25  C19 UNL     1      32.095  45.789  34.051  1.00  0.00     0.063 C 
HETATM   26  C20 UNL     1      30.241  46.743  35.480  1.00  0.00     0.063 C 
ENDBRANCH  16  24
ENDBRANCH  15  16
ENDBRANCH  12  15
ENDBRANCH   7  12
BRANCH   1  27
HETATM   27  N1  UNL     1      32.080  39.162  41.987  1.00  0.00    -0.288 N 
HETATM   28  C4  UNL     1      33.143  39.654  42.781  1.00  0.00     0.366 C 
HETATM   29  O2  UNL     1      34.291  39.652  42.281  1.00  0.00    -0.238 OA
ATOM     30  H1  UNL     1      31.626  38.286  42.247  1.00  0.00     0.172 HD
BRANCH  28  31
HETATM   31  O1  UNL     1      32.971  40.126  44.059  1.00  0.00    -0.300 OA
BRANCH  31  32
HETATM   32  C3  UNL     1      31.712  40.554  44.518  1.00  0.00     0.207 C 
BRANCH  32  33
HETATM   33  C2  UNL     1      31.449  41.920  44.002  1.00  0.00    -0.011 C 
HETATM   34  C1  UNL     1      32.320  42.649  43.319  1.00  0.00     0.009 C 
ENDBRANCH  32  33
ENDBRANCH  31  32
ENDBRANCH  28  31
ENDBRANCH   1  27
TORSDOF 14
ENDMDL
MODEL 3
REMARK VINA RESULT: -7.901638494      2.269      4.180
REMARK  14 active torsions:
REMARK  status: ('A' for Active; 'I' for Inactive)
REMARK    1  A    between atoms: C2_2  and  C3_3 
REMARK    2  A    between atoms: C3_3  and  O1_4 
REMARK    3  A    between atoms: O1_4  and  C4_5 
REMARK       I    between atoms: C4_5  and  N1_7 
REMARK    4  A    between atoms: N1_7  and  C5_9 
REMARK    5  A    between atoms: C9_15  and  C10_16 
REMARK    6  A    between atoms: C10_16  and  O3_17 
REMARK    7  A    between atoms: C10_16  and  C11_19 
REMARK    8  A    between atoms: C11_19  and  N3_20 
REMARK    9  A    between atoms: N3_20  and  C12_21 
REMARK   10  A    between atoms: N3_20  and  C18_28 
REMARK   11  A    between atoms: C12_21  and  C13_22 
REMARK   12  A    between atoms: C13_22  and  S1_23 
REMARK   13  A    between atoms: S1_23  and  C14_24 
REMARK   14  A    between atoms: C14_24  and  C15_25 
ROOT
HETATM    1  C5  UNL     1      31.424  39.585  40.757  1.00  0.00     0.111 A 
HETATM    2  C6  UNL     1      31.095  38.754  39.686  1.00  0.00     0.079 A 
HETATM    3  C7  UNL     1      30.546  39.230  38.526  1.00  0.00     0.048 A 
HETATM    4  N2  UNL     1      30.157  38.660  37.385  1.00  0.00    -0.364 N 
ATOM      5  H2  UNL     1      30.214  37.662  37.184  1.00  0.00     0.165 HD
HETATM    6  C8  UNL     1      29.674  39.595  36.531  1.00  0.00     0.099 A 
HETATM    7  C9  UNL     1      29.752  40.827  37.141  1.00  0.00     0.005 A 
HETATM    8  C21 UNL     1      30.304  40.580  38.399  1.00  0.00     0.017 A 
HETATM    9  C22 UNL     1      30.626  41.400  39.450  1.00  0.00     0.104 A 
HETATM   10  N4  UNL     1      31.164  40.892  40.571  1.00  0.00    -0.351 N 
ATOM     11  H4  UNL     1      31.390  41.538  41.328  1.00  0.00     0.166 HD
ENDROOT
BRANCH   7  12
HETATM   12  C10 UNL     1      29.344  42.176  36.630  1.00  0.00     0.192 C 
BRANCH  12  13
HETATM   13  O3  UNL     1      28.579  42.734  37.643  1.00  0.00    -0.386 OA
ATOM     14  H3  UNL     1      27.911  42.088  37.837  1.00  0.00     0.210 HD
ENDBRANCH  12  13
BRANCH  12  15
HETATM   15  C11 UNL     1      30.545  42.947  36.222  1.00  0.00     0.100 C 
BRANCH  15  16
HETATM   16  N3  UNL     1      30.488  43.881  35.215  1.00  0.00    -0.365 N 
BRANCH  16  17
HETATM   17  C12 UNL     1      30.450  43.370  33.893  1.00  0.00     0.138 C 
BRANCH  17  18
HETATM   18  C13 UNL     1      29.116  43.250  33.248  1.00  0.00     0.094 C 
BRANCH  18  19
HETATM   19  S1  UNL     1      29.109  43.258  31.470  1.00  0.00    -0.167 SA
BRANCH  19  20
HETATM   20  C14 UNL     1      28.017  42.019  30.748  1.00  0.00     0.077 C 
BRANCH  20  21
HETATM   21  C15 UNL     1      27.087  42.575  29.695  1.00  0.00    -0.013 C 
HETATM   22  C16 UNL     1      26.206  41.438  29.227  1.00  0.00     0.010 C 
HETATM   23  C17 UNL     1      27.872  43.071  28.504  1.00  0.00     0.010 C 
ENDBRANCH  20  21
ENDBRANCH  19  20
ENDBRANCH  18  19
ENDBRANCH  17  18
ENDBRANCH  16  17
BRANCH  16  24
HETATM   24  C18 UNL     1      30.561  45.253  35.317  1.00  0.00    -0.019 C 
HETATM   25  C19 UNL     1      31.632  45.822  34.368  1.00  0.00     0.063 C 
HETATM   26  C20 UNL     1      29.329  46.083  35.376  1.00  0.00     0.063 C 
ENDBRANCH  16  24
ENDBRANCH  15  16
ENDBRANCH  12  15
ENDBRANCH   7  12
BRANCH   1  27
HETATM   27  N1  UNL     1      31.945  39.101  41.836  1.00  0.00    -0.288 N 
HETATM   28  C4  UNL     1      33.066  39.710  42.450  1.00  0.00     0.366 C 
HETATM   29  O2  UNL     1      34.161  39.652  41.847  1.00  0.00    -0.238 OA
ATOM     30  H1  UNL     1      31.539  38.264  42.255  1.00  0.00     0.172 HD
BRANCH  28  31
HETATM   31  O1  UNL     1      33.002  40.350  43.663  1.00  0.00    -0.300 OA
BRANCH  31  32
HETATM   32  C3  UNL     1      31.774  40.578  44.308  1.00  0.00     0.207 C 
BRANCH  32  33
HETATM   33  C2  UNL     1      31.309  41.951  43.990  1.00  0.00    -0.011 C 
HETATM   34  C1  UNL     1      32.080  42.916  43.509  1.00  0.00     0.009 C 
ENDBRANCH  32  33
ENDBRANCH  31  32
ENDBRANCH  28  31
ENDBRANCH   1  27
TORSDOF 14
ENDMDL
MODEL 4
REMARK VINA RESULT: -7.759657189      1.614      2.039
REMARK  14 active torsions:
REMARK  status: ('A' for Active; 'I' for Inactive)
REMARK    1  A    between atoms: C2_2  and  C3_3 
REMARK    2  A    between atoms: C3_3  and  O1_4 
REMARK    3  A    between atoms: O1_4  and  C4_5 
REMARK       I    between atoms: C4_5  and  N1_7 
REMARK    4  A    between atoms: N1_7  and  C5_9 
REMARK    5  A    between atoms: C9_15  and  C10_16 
REMARK    6  A    between atoms: C10_16  and  O3_17 
REMARK    7  A    between atoms: C10_16  and  C11_19 
REMARK    8  A    between atoms: C11_19  and  N3_20 
REMARK    9  A    between atoms: N3_20  and  C12_21 
REMARK   10  A    between atoms: N3_20  and  C18_28 
REMARK   11  A    between atoms: C12_21  and  C13_22 
REMARK   12  A    between atoms: C13_22  and  S1_23 
REMARK   13  A    between atoms: S1_23  and  C14_24 
REMARK   14  A    between atoms: C14_24  and  C15_25 
ROOT
HETATM    1  C5  UNL     1      31.020  39.299  39.892  1.00  0.00     0.111 A 
HETATM    2  C6  UNL     1      30.609  38.094  39.324  1.00  0.00     0.079 A 
HETATM    3  C7  UNL     1      29.636  38.025  38.363  1.00  0.00     0.048 A 
HETATM    4  N2  UNL     1      29.082  37.025  37.677  1.00  0.00    -0.364 N 
ATOM      5  H2  UNL     1      29.329  36.041  37.781  1.00  0.00     0.165 HD
HETATM    6  C8  UNL     1      28.145  37.501  36.822  1.00  0.00     0.099 A 
HETATM    7  C9  UNL     1      28.085  38.870  36.956  1.00  0.00     0.005 A 
HETATM    8  C21 UNL     1      29.031  39.185  37.932  1.00  0.00     0.017 A 
HETATM    9  C22 UNL     1      29.433  40.373  38.488  1.00  0.00     0.104 A 
HETATM   10  N4  UNL     1      30.392  40.396  39.428  1.00  0.00    -0.351 N 
ATOM     11  H4  UNL     1      30.661  41.301  39.814  1.00  0.00     0.166 HD
ENDROOT
BRANCH   7  12
HETATM   12  C10 UNL     1      27.213  39.865  36.249  1.00  0.00     0.192 C 
BRANCH  12  13
HETATM   13  O3  UNL     1      26.623  40.613  37.256  1.00  0.00    -0.386 OA
ATOM     14  H3  UNL     1      25.960  41.137  36.822  1.00  0.00     0.210 HD
ENDBRANCH  12  13
BRANCH  12  15
HETATM   15  C11 UNL     1      28.015  40.625  35.258  1.00  0.00     0.100 C 
BRANCH  15  16
HETATM   16  N3  UNL     1      27.550  40.853  33.985  1.00  0.00    -0.365 N 
BRANCH  16  17
HETATM   17  C12 UNL     1      28.031  42.023  33.346  1.00  0.00     0.138 C 
BRANCH  17  18
HETATM   18  C13 UNL     1      29.058  42.820  34.069  1.00  0.00     0.094 C 
BRANCH  18  19
HETATM   19  S1  UNL     1      29.922  44.036  33.101  1.00  0.00    -0.167 SA
BRANCH  19  20
HETATM   20  C14 UNL     1      31.394  44.688  33.912  1.00  0.00     0.077 C 
BRANCH  20  21
HETATM   21  C15 UNL     1      31.363  46.186  34.103  1.00  0.00    -0.013 C 
HETATM   22  C16 UNL     1      32.793  46.647  34.287  1.00  0.00     0.010 C 
HETATM   23  C17 UNL     1      30.598  46.545  35.354  1.00  0.00     0.010 C 
ENDBRANCH  20  21
ENDBRANCH  19  20
ENDBRANCH  18  19
ENDBRANCH  17  18
ENDBRANCH  16  17
BRANCH  16  24
HETATM   24  C18 UNL     1      26.599  40.145  33.283  1.00  0.00    -0.019 C 
HETATM   25  C19 UNL     1      26.054  40.971  32.103  1.00  0.00     0.063 C 
HETATM   26  C20 UNL     1      26.803  38.710  32.951  1.00  0.00     0.063 C 
ENDBRANCH  16  24
ENDBRANCH  15  16
ENDBRANCH  12  15
ENDBRANCH   7  12
BRANCH   1  27
HETATM   27  N1  UNL     1      31.944  39.327  40.794  1.00  0.00    -0.288 N 
HETATM   28  C4  UNL     1      33.115  40.103  40.626  1.00  0.00     0.366 C 
HETATM   29  O2  UNL     1      33.929  39.744  39.744  1.00  0.00    -0.238 OA
ATOM     30  H1  UNL     1      31.827  38.778  41.646  1.00  0.00     0.172 HD
BRANCH  28  31
HETATM   31  O1  UNL     1      33.393  41.217  41.378  1.00  0.00    -0.300 OA
BRANCH  31  32
HETATM   32  C3  UNL     1      33.341  41.184  42.783  1.00  0.00     0.207 C 
BRANCH  32  33
HETATM   33  C2  UNL     1      32.232  42.054  43.246  1.00  0.00    -0.011 C 
HETATM   34  C1  UNL     1      31.211  41.646  43.985  1.00  0.00     0.009 C 
ENDBRANCH  32  33
ENDBRANCH  31  32
ENDBRANCH  28  31
ENDBRANCH   1  27
TORSDOF 14
ENDMDL
MODEL 5
REMARK VINA RESULT: -7.679108755      2.874      4.954
REMARK  14 active torsions:
REMARK  status: ('A' for Active; 'I' for Inactive)
REMARK    1  A    between atoms: C2_2  and  C3_3 
REMARK    2  A    between atoms: C3_3  and  O1_4 
REMARK    3  A    between atoms: O1_4  and  C4_5 
REMARK       I    between atoms: C4_5  and  N1_7 
REMARK    4  A    between atoms: N1_7  and  C5_9 
REMARK    5  A    between atoms: C9_15  and  C10_16 
REMARK    6  A    between atoms: C10_16  and  O3_17 
REMARK    7  A    between atoms: C10_16  and  C11_19 
REMARK    8  A    between atoms: C11_19  and  N3_20 
REMARK    9  A    between atoms: N3_20  and  C12_21 
REMARK   10  A    between atoms: N3_20  and  C18_28 
REMARK   11  A    between atoms: C12_21  and  C13_22 
REMARK   12  A    between atoms: C13_22  and  S1_23 
REMARK   13  A    between atoms: S1_23  and  C14_24 
REMARK   14  A    between atoms: C14_24  and  C15_25 
ROOT
HETATM    1  C5  UNL     1      29.950  40.544  40.422  1.00  0.00     0.111 A 
HETATM    2  C6  UNL     1      28.935  40.160  39.548  1.00  0.00     0.079 A 
HETATM    3  C7  UNL     1      28.827  40.660  38.277  1.00  0.00     0.048 A 
HETATM    4  N2  UNL     1      27.975  40.456  37.272  1.00  0.00    -0.364 N 
ATOM      5  H2  UNL     1      27.177  39.822  37.305  1.00  0.00     0.165 HD
HETATM    6  C8  UNL     1      28.320  41.210  36.200  1.00  0.00     0.099 A 
HETATM    7  C9  UNL     1      29.446  41.937  36.521  1.00  0.00     0.005 A 
HETATM    8  C21 UNL     1      29.752  41.578  37.834  1.00  0.00     0.017 A 
HETATM    9  C22 UNL     1      30.754  41.958  38.692  1.00  0.00     0.104 A 
HETATM   10  N4  UNL     1      30.823  41.443  39.930  1.00  0.00    -0.351 N 
ATOM     11  H4  UNL     1      31.584  41.752  40.535  1.00  0.00     0.166 HD
ENDROOT
BRANCH   7  12
HETATM   12  C10 UNL     1      30.218  42.921  35.694  1.00  0.00     0.192 C 
BRANCH  12  13
HETATM   13  O3  UNL     1      31.261  42.195  35.142  1.00  0.00    -0.386 OA
ATOM     14  H3  UNL     1      31.238  42.391  34.213  1.00  0.00     0.210 HD
ENDBRANCH  12  13
BRANCH  12  15
HETATM   15  C11 UNL     1      29.310  43.593  34.731  1.00  0.00     0.100 C 
BRANCH  15  16
HETATM   16  N3  UNL     1      29.798  44.414  33.742  1.00  0.00    -0.365 N 
BRANCH  16  17
HETATM   17  C12 UNL     1      29.802  43.875  32.431  1.00  0.00     0.138 C 
BRANCH  17  18
HETATM   18  C13 UNL     1      28.677  42.976  32.062  1.00  0.00     0.094 C 
BRANCH  18  19
HETATM   19  S1  UNL     1      28.814  42.166  30.484  1.00  0.00    -0.167 SA
BRANCH  19  20
HETATM   20  C14 UNL     1      27.223  41.807  29.718  1.00  0.00     0.077 C 
BRANCH  20  21
HETATM   21  C15 UNL     1      26.842  42.786  28.632  1.00  0.00    -0.013 C 
HETATM   22  C16 UNL     1      25.660  42.199  27.891  1.00  0.00     0.010 C 
HETATM   23  C17 UNL     1      27.973  42.945  27.643  1.00  0.00     0.010 C 
ENDBRANCH  20  21
ENDBRANCH  19  20
ENDBRANCH  18  19
ENDBRANCH  17  18
ENDBRANCH  16  17
BRANCH  16  24
HETATM   24  C18 UNL     1      30.376  45.658  33.871  1.00  0.00    -0.019 C 
HETATM   25  C19 UNL     1      29.576  46.541  34.846  1.00  0.00     0.063 C 
HETATM   26  C20 UNL     1      31.849  45.806  34.018  1.00  0.00     0.063 C 
ENDBRANCH  16  24
ENDBRANCH  15  16
ENDBRANCH  12  15
ENDBRANCH   7  12
BRANCH   1  27
HETATM   27  N1  UNL     1      30.023  40.048  41.613  1.00  0.00    -0.288 N 
HETATM   28  C4  UNL     1      31.225  39.487  42.106  1.00  0.00     0.366 C 
HETATM   29  O2  UNL     1      31.620  38.416  41.592  1.00  0.00    -0.238 OA
ATOM     30  H1  UNL     1      29.197  40.063  42.212  1.00  0.00     0.172 HD
BRANCH  28  31
HETATM   31  O1  UNL     1      31.965  40.060  43.110  1.00  0.00    -0.300 OA
BRANCH  31  32
HETATM   32  C3  UNL     1      33.251  40.577  42.871  1.00  0.00     0.207 C 
BRANCH  32  33
HETATM   33  C2  UNL     1      33.135  42.014  42.519  1.00  0.00    -0.011 C 
HETATM   34  C1  UNL     1      32.384  42.892  43.168  1.00  0.00     0.009 C 
ENDBRANCH  32  33
ENDBRANCH  31  32
ENDBRANCH  28  31
ENDBRANCH   1  27
TORSDOF 14
ENDMDL
