MODEL 1
REMARK VINA RESULT: -7.602772262      0.000      0.000
REMARK  6 active torsions:
REMARK  status: ('A' for Active; 'I' for Inactive)
REMARK    1  A    between atoms: N1_1  and  C1_4 
REMARK    2  A    between atoms: C2_7  and  C3_8 
REMARK       I    between atoms: C3_8  and  N3_10 
REMARK    3  A    between atoms: N3_10  and  C4_12 
REMARK    4  A    between atoms: C4_12  and  C5_13 
REMARK    5  A    between atoms: C6_15  and  O3_17 
REMARK    6  A    between atoms: N5_19  and  O4_20 
ROOT
HETATM    1  C1  UNL     1      66.717  31.765  48.196  1.00  0.00     0.681 A 
HETATM    2  N2  UNL     1      66.943  30.975  49.262  1.00  0.00    -0.169 N 
ATOM      3  H2  UNL     1      67.909  30.818  49.552  1.00  0.00     0.186 HD
HETATM    4  C2  UNL     1      65.961  30.381  49.962  1.00  0.00     0.221 A 
HETATM    5  N5  UNL     1      64.729  30.624  49.528  1.00  0.00    -0.149 N 
HETATM    6  C7  UNL     1      64.463  31.401  48.471  1.00  0.00     0.366 A 
HETATM    7  O5  UNL     1      63.232  31.560  48.122  1.00  0.00    -0.244 OA
HETATM    8  N6  UNL     1      65.467  31.981  47.799  1.00  0.00    -0.139 N 
ATOM      9  H6  UNL     1      65.275  32.579  46.996  1.00  0.00     0.189 HD
ENDROOT
BRANCH   4  10
HETATM   10  C3  UNL     1      66.341  29.467  51.072  1.00  0.00     0.293 C 
HETATM   11  O1  UNL     1      67.485  29.705  51.604  1.00  0.00    -0.264 OA
HETATM   12  N3  UNL     1      65.615  28.426  51.568  1.00  0.00    -0.315 N 
ATOM     13  H3  UNL     1      64.733  28.315  51.069  1.00  0.00     0.169 HD
BRANCH  12  14
HETATM   14  C4  UNL     1      65.759  27.461  52.589  1.00  0.00     0.121 C 
HETATM   15  C6  UNL     1      66.199  27.666  53.927  1.00  0.00     0.180 C 
HETATM   16  N4  UNL     1      67.508  28.037  54.437  1.00  0.00    -0.072 NA
BRANCH  14  17
HETATM   17  C5  UNL     1      65.869  26.070  52.140  1.00  0.00     0.292 C 
HETATM   18  O2  UNL     1      65.448  25.678  51.049  1.00  0.00    -0.300 OA
ENDBRANCH  14  17
BRANCH  15  19
HETATM   19  O3  UNL     1      65.356  27.533  54.917  1.00  0.00    -0.347 OA
ATOM     20  H3  UNL     1      65.663  27.607  55.812  1.00  0.00     0.219 HD
ENDBRANCH  15  19
ENDBRANCH  12  14
ENDBRANCH   4  10
BRANCH   5  21
HETATM   21  O4  UNL     1      63.638  30.106  50.136  1.00  0.00    -0.277 OA
ATOM     22  H4  UNL     1      62.792  30.538  50.109  1.00  0.00     0.245 HD
ENDBRANCH   5  21
BRANCH   1  23
HETATM   23  N1  UNL     1      67.653  32.310  47.538  1.00  0.00    -0.234 N 
ATOM     24  H12 UNL     1      68.608  31.992  47.709  1.00  0.00     0.174 HD
ATOM     25  H11 UNL     1      67.488  33.053  46.859  1.00  0.00     0.174 HD
ENDBRANCH   1  23
TORSDOF 6
ENDMDL
MODEL 2
REMARK VINA RESULT: -7.331489896      1.606      2.238
REMARK  6 active torsions:
REMARK  status: ('A' for Active; 'I' for Inactive)
REMARK    1  A    between atoms: N1_1  and  C1_4 
REMARK    2  A    between atoms: C2_7  and  C3_8 
REMARK       I    between atoms: C3_8  and  N3_10 
REMARK    3  A    between atoms: N3_10  and  C4_12 
REMARK    4  A    between atoms: C4_12  and  C5_13 
REMARK    5  A    between atoms: C6_15  and  O3_17 
REMARK    6  A    between atoms: N5_19  and  O4_20 
ROOT
HETATM    1  C1  UNL     1      64.272  31.231  48.633  1.00  0.00     0.681 A 
HETATM    2  N2  UNL     1      64.754  30.401  49.577  1.00  0.00    -0.169 N 
ATOM      3  H2  UNL     1      64.089  29.879  50.148  1.00  0.00     0.186 HD
HETATM    4  C2  UNL     1      66.067  30.225  49.806  1.00  0.00     0.221 A 
HETATM    5  N5  UNL     1      66.877  30.938  49.030  1.00  0.00    -0.149 N 
HETATM    6  C7  UNL     1      66.437  31.776  48.083  1.00  0.00     0.366 A 
HETATM    7  O5  UNL     1      67.308  32.433  47.394  1.00  0.00    -0.244 OA
HETATM    8  N6  UNL     1      65.121  31.922  47.879  1.00  0.00    -0.139 N 
ATOM      9  H6  UNL     1      64.775  32.553  47.157  1.00  0.00     0.189 HD
ENDROOT
BRANCH   4  10
HETATM   10  C3  UNL     1      66.475  29.341  50.930  1.00  0.00     0.293 C 
HETATM   11  O1  UNL     1      67.604  29.631  51.467  1.00  0.00    -0.264 OA
HETATM   12  N3  UNL     1      65.786  28.279  51.434  1.00  0.00    -0.315 N 
ATOM     13  H3  UNL     1      64.913  28.126  50.931  1.00  0.00     0.169 HD
BRANCH  12  14
HETATM   14  C4  UNL     1      65.961  27.334  52.470  1.00  0.00     0.121 C 
HETATM   15  C6  UNL     1      66.235  27.585  53.843  1.00  0.00     0.180 C 
HETATM   16  N4  UNL     1      67.425  28.127  54.477  1.00  0.00    -0.072 NA
BRANCH  14  17
HETATM   17  C5  UNL     1      66.305  25.975  52.040  1.00  0.00     0.292 C 
HETATM   18  O2  UNL     1      66.721  25.108  52.811  1.00  0.00    -0.300 OA
ENDBRANCH  14  17
BRANCH  15  19
HETATM   19  O3  UNL     1      65.325  27.329  54.746  1.00  0.00    -0.347 OA
ATOM     20  H3  UNL     1      65.417  26.567  55.306  1.00  0.00     0.219 HD
ENDBRANCH  15  19
ENDBRANCH  12  14
ENDBRANCH   4  10
BRANCH   5  21
HETATM   21  O4  UNL     1      68.223  30.861  49.134  1.00  0.00    -0.277 OA
ATOM     22  H4  UNL     1      68.699  30.061  48.942  1.00  0.00     0.245 HD
ENDBRANCH   5  21
BRANCH   1  23
HETATM   23  N1  UNL     1      63.031  31.394  48.436  1.00  0.00    -0.234 N 
ATOM     24  H12 UNL     1      62.402  31.300  49.234  1.00  0.00     0.174 HD
ATOM     25  H11 UNL     1      62.643  31.605  47.517  1.00  0.00     0.174 HD
ENDBRANCH   1  23
TORSDOF 6
ENDMDL
MODEL 3
REMARK VINA RESULT: -7.033676904      2.399      6.546
REMARK  6 active torsions:
REMARK  status: ('A' for Active; 'I' for Inactive)
REMARK    1  A    between atoms: N1_1  and  C1_4 
REMARK    2  A    between atoms: C2_7  and  C3_8 
REMARK       I    between atoms: C3_8  and  N3_10 
REMARK    3  A    between atoms: N3_10  and  C4_12 
REMARK    4  A    between atoms: C4_12  and  C5_13 
REMARK    5  A    between atoms: C6_15  and  O3_17 
REMARK    6  A    between atoms: N5_19  and  O4_20 
ROOT
HETATM    1  C1  UNL     1      66.771  24.812  51.728  1.00  0.00     0.681 A 
HETATM    2  N2  UNL     1      66.677  26.120  51.425  1.00  0.00    -0.169 N 
ATOM      3  H2  UNL     1      66.534  26.382  50.450  1.00  0.00     0.186 HD
HETATM    4  C2  UNL     1      66.762  27.098  52.344  1.00  0.00     0.221 A 
HETATM    5  N5  UNL     1      66.952  26.687  53.593  1.00  0.00    -0.149 N 
HETATM    6  C7  UNL     1      67.055  25.396  53.934  1.00  0.00     0.366 A 
HETATM    7  O5  UNL     1      67.255  25.103  55.174  1.00  0.00    -0.244 OA
HETATM    8  N6  UNL     1      66.960  24.447  52.992  1.00  0.00    -0.139 N 
ATOM      9  H6  UNL     1      67.031  23.461  53.241  1.00  0.00     0.189 HD
ENDROOT
BRANCH   4  10
HETATM   10  C3  UNL     1      66.721  28.509  51.877  1.00  0.00     0.293 C 
HETATM   11  O1  UNL     1      66.340  29.362  52.757  1.00  0.00    -0.264 OA
HETATM   12  N3  UNL     1      67.041  28.976  50.637  1.00  0.00    -0.315 N 
ATOM     13  H3  UNL     1      67.317  28.220  50.012  1.00  0.00     0.169 HD
BRANCH  12  14
HETATM   14  C4  UNL     1      67.091  30.230  49.988  1.00  0.00     0.121 C 
HETATM   15  C6  UNL     1      66.061  30.867  49.241  1.00  0.00     0.180 C 
HETATM   16  N4  UNL     1      65.472  30.509  47.961  1.00  0.00    -0.072 NA
BRANCH  14  17
HETATM   17  C5  UNL     1      68.433  30.742  49.696  1.00  0.00     0.292 C 
HETATM   18  O2  UNL     1      68.702  31.945  49.658  1.00  0.00    -0.300 OA
ENDBRANCH  14  17
BRANCH  15  19
HETATM   19  O3  UNL     1      65.488  31.944  49.709  1.00  0.00    -0.347 OA
ATOM     20  H3  UNL     1      64.682  32.260  49.317  1.00  0.00     0.219 HD
ENDBRANCH  15  19
ENDBRANCH  12  14
ENDBRANCH   4  10
BRANCH   5  21
HETATM   21  O4  UNL     1      67.047  27.552  54.628  1.00  0.00    -0.277 OA
ATOM     22  H4  UNL     1      66.774  27.320  55.507  1.00  0.00     0.245 HD
ENDBRANCH   5  21
BRANCH   1  23
HETATM   23  N1  UNL     1      66.700  23.901  50.850  1.00  0.00    -0.234 N 
ATOM     24  H12 UNL     1      67.571  23.556  50.444  1.00  0.00     0.174 HD
ATOM     25  H11 UNL     1      65.813  23.512  50.532  1.00  0.00     0.174 HD
ENDBRANCH   1  23
TORSDOF 6
ENDMDL
MODEL 4
REMARK VINA RESULT: -6.975738952      2.477      6.462
REMARK  6 active torsions:
REMARK  status: ('A' for Active; 'I' for Inactive)
REMARK    1  A    between atoms: N1_1  and  C1_4 
REMARK    2  A    between atoms: C2_7  and  C3_8 
REMARK       I    between atoms: C3_8  and  N3_10 
REMARK    3  A    between atoms: N3_10  and  C4_12 
REMARK    4  A    between atoms: C4_12  and  C5_13 
REMARK    5  A    between atoms: C6_15  and  O3_17 
REMARK    6  A    between atoms: N5_19  and  O4_20 
ROOT
HETATM    1  C1  UNL     1      66.795  24.602  51.697  1.00  0.00     0.681 A 
HETATM    2  N2  UNL     1      66.721  25.875  51.264  1.00  0.00    -0.169 N 
ATOM      3  H2  UNL     1      66.586  26.039  50.266  1.00  0.00     0.186 HD
HETATM    4  C2  UNL     1      66.816  26.939  52.080  1.00  0.00     0.221 A 
HETATM    5  N5  UNL     1      66.994  26.654  53.365  1.00  0.00    -0.149 N 
HETATM    6  C7  UNL     1      67.078  25.402  53.835  1.00  0.00     0.366 A 
HETATM    7  O5  UNL     1      67.267  25.234  55.099  1.00  0.00    -0.244 OA
HETATM    8  N6  UNL     1      66.973  24.365  52.993  1.00  0.00    -0.139 N 
ATOM      9  H6  UNL     1      67.029  23.408  53.340  1.00  0.00     0.189 HD
ENDROOT
BRANCH   4  10
HETATM   10  C3  UNL     1      66.798  28.296  51.472  1.00  0.00     0.293 C 
HETATM   11  O1  UNL     1      67.143  29.249  52.260  1.00  0.00    -0.264 OA
HETATM   12  N3  UNL     1      66.460  28.622  50.193  1.00  0.00    -0.315 N 
ATOM     13  H3  UNL     1      66.190  27.799  49.656  1.00  0.00     0.169 HD
BRANCH  12  14
HETATM   14  C4  UNL     1      66.384  29.798  49.413  1.00  0.00     0.121 C 
HETATM   15  C6  UNL     1      65.407  30.829  49.484  1.00  0.00     0.180 C 
HETATM   16  N4  UNL     1      63.995  30.809  49.138  1.00  0.00    -0.072 NA
BRANCH  14  17
HETATM   17  C5  UNL     1      67.120  29.770  48.146  1.00  0.00     0.292 C 
HETATM   18  O2  UNL     1      67.187  30.736  47.382  1.00  0.00    -0.300 OA
ENDBRANCH  14  17
BRANCH  15  19
HETATM   19  O3  UNL     1      65.740  32.012  49.930  1.00  0.00    -0.347 OA
ATOM     20  H3  UNL     1      65.242  32.776  49.661  1.00  0.00     0.219 HD
ENDBRANCH  15  19
ENDBRANCH  12  14
ENDBRANCH   4  10
BRANCH   5  21
HETATM   21  O4  UNL     1      67.098  27.618  54.307  1.00  0.00    -0.277 OA
ATOM     22  H4  UNL     1      66.565  27.614  55.094  1.00  0.00     0.245 HD
ENDBRANCH   5  21
BRANCH   1  23
HETATM   23  N1  UNL     1      66.714  23.609  50.915  1.00  0.00    -0.234 N 
ATOM     24  H12 UNL     1      66.640  22.678  51.328  1.00  0.00     0.174 HD
ATOM     25  H11 UNL     1      66.729  23.705  49.900  1.00  0.00     0.174 HD
ENDBRANCH   1  23
TORSDOF 6
ENDMDL
MODEL 5
REMARK VINA RESULT: -6.860126824      2.051      2.442
REMARK  6 active torsions:
REMARK  status: ('A' for Active; 'I' for Inactive)
REMARK    1  A    between atoms: N1_1  and  C1_4 
REMARK    2  A    between atoms: C2_7  and  C3_8 
REMARK       I    between atoms: C3_8  and  N3_10 
REMARK    3  A    between atoms: N3_10  and  C4_12 
REMARK    4  A    between atoms: C4_12  and  C5_13 
REMARK    5  A    between atoms: C6_15  and  O3_17 
REMARK    6  A    between atoms: N5_19  and  O4_20 
ROOT
HETATM    1  C1  UNL     1      68.155  31.176  49.678  1.00  0.00     0.681 A 
HETATM    2  N2  UNL     1      67.889  29.992  50.260  1.00  0.00    -0.169 N 
ATOM      3  H2  UNL     1      68.673  29.406  50.546  1.00  0.00     0.186 HD
HETATM    4  C2  UNL     1      66.641  29.544  50.484  1.00  0.00     0.221 A 
HETATM    5  N5  UNL     1      65.667  30.354  50.084  1.00  0.00    -0.149 N 
HETATM    6  C7  UNL     1      65.891  31.537  49.497  1.00  0.00     0.366 A 
HETATM    7  O5  UNL     1      64.874  32.241  49.132  1.00  0.00    -0.244 OA
HETATM    8  N6  UNL     1      67.148  31.955  49.295  1.00  0.00    -0.139 N 
ATOM      9  H6  UNL     1      67.329  32.856  48.854  1.00  0.00     0.189 HD
ENDROOT
BRANCH   4  10
HETATM   10  C3  UNL     1      66.475  28.184  51.064  1.00  0.00     0.293 C 
HETATM   11  O1  UNL     1      66.037  27.295  50.248  1.00  0.00    -0.264 OA
HETATM   12  N3  UNL     1      66.734  27.797  52.345  1.00  0.00    -0.315 N 
ATOM     13  H3  UNL     1      67.064  28.577  52.912  1.00  0.00     0.169 HD
BRANCH  12  14
HETATM   14  C4  UNL     1      66.669  26.601  53.095  1.00  0.00     0.121 C 
HETATM   15  C6  UNL     1      67.381  25.391  52.869  1.00  0.00     0.180 C 
HETATM   16  N4  UNL     1      67.270  24.424  51.789  1.00  0.00    -0.072 NA
BRANCH  14  17
HETATM   17  C5  UNL     1      65.470  26.435  53.922  1.00  0.00     0.292 C 
HETATM   18  O2  UNL     1      65.357  25.552  54.777  1.00  0.00    -0.300 OA
ENDBRANCH  14  17
BRANCH  15  19
HETATM   19  O3  UNL     1      68.309  25.015  53.710  1.00  0.00    -0.347 OA
ATOM     20  H3  UNL     1      69.224  25.133  53.487  1.00  0.00     0.219 HD
ENDBRANCH  15  19
ENDBRANCH  12  14
ENDBRANCH   4  10
BRANCH   5  21
HETATM   21  O4  UNL     1      64.362  30.044  50.250  1.00  0.00    -0.277 OA
ATOM     22  H4  UNL     1      63.941  30.069  51.102  1.00  0.00     0.245 HD
ENDBRANCH   5  21
BRANCH   1  23
HETATM   23  N1  UNL     1      69.336  31.582  49.463  1.00  0.00    -0.234 N 
ATOM     24  H12 UNL     1      69.528  32.578  49.570  1.00  0.00     0.174 HD
ATOM     25  H11 UNL     1      70.091  30.955  49.183  1.00  0.00     0.174 HD
ENDBRANCH   1  23
TORSDOF 6
ENDMDL
