MODEL 1
REMARK VINA RESULT: -6.999438462      0.000      0.000
REMARK  5 active torsions:
REMARK  status: ('A' for Active; 'I' for Inactive)
REMARK    1  A    between atoms: C2_2  and  C3_3 
REMARK    2  A    between atoms: C3_3  and  C4_4 
REMARK    3  A    between atoms: C4_4  and  O2_6 
REMARK    4  A    between atoms: O2_6  and  C5_7 
REMARK    5  A    between atoms: C21_26  and  C23_28 
ROOT
HETATM    1  C5  UNL     1       2.367   5.619  21.008  1.00  0.00     0.177 C 
HETATM    2  C6  UNL     1       2.069   4.180  20.746  1.00  0.00     0.044 C 
HETATM    3  C7  UNL     1       1.699   3.554  22.069  1.00  0.00     0.030 C 
HETATM    4  C8  UNL     1       0.241   3.161  22.133  1.00  0.00     0.184 C 
HETATM    5  O3  UNL     1       0.251   2.297  23.280  1.00  0.00    -0.320 OA
HETATM    6  C9  UNL     1       1.484   1.665  23.375  1.00  0.00     0.267 C 
HETATM    7  O4  UNL     1       1.758   0.802  24.235  1.00  0.00    -0.264 OA
HETATM    8  C10 UNL     1       2.362   2.212  22.286  1.00  0.00     0.050 C 
HETATM    9  C11 UNL     1       2.188   1.313  21.087  1.00  0.00     0.026 C 
HETATM   10  C12 UNL     1       3.793   2.312  22.720  1.00  0.00     0.020 C 
HETATM   11  C13 UNL     1       3.972   2.860  24.092  1.00  0.00     0.001 C 
HETATM   12  C14 UNL     1       4.866   4.107  24.084  1.00  0.00     0.000 C 
HETATM   13  C15 UNL     1       6.307   3.789  24.211  1.00  0.00     0.000 C 
HETATM   14  C16 UNL     1       7.205   4.381  23.192  1.00  0.00     0.000 C 
HETATM   15  C17 UNL     1       6.794   5.734  22.691  1.00  0.00     0.002 C 
HETATM   16  C18 UNL     1       6.368   5.571  21.226  1.00  0.00     0.032 C 
HETATM   17  C19 UNL     1       5.629   6.756  20.712  1.00  0.00     0.119 C 
HETATM   18  C20 UNL     1       6.132   7.985  21.517  1.00  0.00     0.039 C 
HETATM   19  O5  UNL     1       4.327   6.812  20.757  1.00  0.00    -0.362 OA
HETATM   20  C21 UNL     1       3.386   6.218  20.055  1.00  0.00     0.171 C 
HETATM   21  C22 UNL     1       2.607   7.399  19.395  1.00  0.00     0.061 C 
ENDROOT
BRANCH   1  22
HETATM   22  O2  UNL     1       1.135   6.320  21.008  1.00  0.00    -0.312 OA
BRANCH  22  23
HETATM   23  C4  UNL     1       0.584   6.951  22.100  1.00  0.00     0.259 C 
HETATM   24  O1  UNL     1       1.058   6.705  23.236  1.00  0.00    -0.265 OA
BRANCH  23  25
HETATM   25  C3  UNL     1      -0.543   7.894  21.908  1.00  0.00     0.111 C 
BRANCH  25  26
HETATM   26  C2  UNL     1      -0.216   9.234  22.546  1.00  0.00     0.005 C 
HETATM   27  C1  UNL     1       0.571  10.079  21.583  1.00  0.00     0.005 C 
ENDBRANCH  25  26
ENDBRANCH  23  25
ENDBRANCH  22  23
ENDBRANCH   1  22
BRANCH  20  28
HETATM   28  C23 UNL     1       3.688   5.378  18.913  1.00  0.00     0.211 C 
HETATM   29  O6  UNL     1       3.358   5.729  17.766  1.00  0.00    -0.646 OA
HETATM   30  O7  UNL     1       4.337   4.185  19.047  1.00  0.00    -0.646 OA
ENDBRANCH  20  28
TORSDOF 5
ENDMDL
MODEL 2
REMARK VINA RESULT: -6.609990623      0.953      1.252
REMARK  5 active torsions:
REMARK  status: ('A' for Active; 'I' for Inactive)
REMARK    1  A    between atoms: C2_2  and  C3_3 
REMARK    2  A    between atoms: C3_3  and  C4_4 
REMARK    3  A    between atoms: C4_4  and  O2_6 
REMARK    4  A    between atoms: O2_6  and  C5_7 
REMARK    5  A    between atoms: C21_26  and  C23_28 
ROOT
HETATM    1  C5  UNL     1       2.751   5.428  20.516  1.00  0.00     0.177 C 
HETATM    2  C6  UNL     1       2.501   3.969  20.317  1.00  0.00     0.044 C 
HETATM    3  C7  UNL     1       1.933   3.435  21.609  1.00  0.00     0.030 C 
HETATM    4  C8  UNL     1       0.484   3.027  21.476  1.00  0.00     0.184 C 
HETATM    5  O3  UNL     1       0.319   2.247  22.671  1.00  0.00    -0.320 OA
HETATM    6  C9  UNL     1       1.524   1.641  23.001  1.00  0.00     0.267 C 
HETATM    7  O4  UNL     1       1.664   0.846  23.953  1.00  0.00    -0.264 OA
HETATM    8  C10 UNL     1       2.558   2.121  22.024  1.00  0.00     0.050 C 
HETATM    9  C11 UNL     1       2.575   1.137  20.881  1.00  0.00     0.026 C 
HETATM   10  C12 UNL     1       3.904   2.272  22.665  1.00  0.00     0.020 C 
HETATM   11  C13 UNL     1       3.867   2.920  24.004  1.00  0.00     0.001 C 
HETATM   12  C14 UNL     1       4.748   4.176  24.043  1.00  0.00     0.000 C 
HETATM   13  C15 UNL     1       6.152   3.889  24.414  1.00  0.00     0.000 C 
HETATM   14  C16 UNL     1       7.196   4.419  23.505  1.00  0.00     0.000 C 
HETATM   15  C17 UNL     1       6.864   5.726  22.849  1.00  0.00     0.002 C 
HETATM   16  C18 UNL     1       6.670   5.452  21.352  1.00  0.00     0.032 C 
HETATM   17  C19 UNL     1       6.016   6.587  20.645  1.00  0.00     0.119 C 
HETATM   18  C20 UNL     1       6.384   7.878  21.426  1.00  0.00     0.039 C 
HETATM   19  O5  UNL     1       4.723   6.627  20.484  1.00  0.00    -0.362 OA
HETATM   20  C21 UNL     1       3.904   5.971  19.691  1.00  0.00     0.171 C 
HETATM   21  C22 UNL     1       3.233   7.091  18.834  1.00  0.00     0.061 C 
ENDROOT
BRANCH   1  22
HETATM   22  O2  UNL     1       1.531   6.109  20.275  1.00  0.00    -0.312 OA
BRANCH  22  23
HETATM   23  C4  UNL     1       0.917   6.967  21.158  1.00  0.00     0.259 C 
HETATM   24  O1  UNL     1       1.585   7.414  22.123  1.00  0.00    -0.265 OA
BRANCH  23  25
HETATM   25  C3  UNL     1      -0.504   7.336  20.950  1.00  0.00     0.111 C 
BRANCH  25  26
HETATM   26  C2  UNL     1      -1.403   6.156  21.277  1.00  0.00     0.005 C 
HETATM   27  C1  UNL     1      -1.423   5.925  22.762  1.00  0.00     0.005 C 
ENDBRANCH  25  26
ENDBRANCH  23  25
ENDBRANCH  22  23
ENDBRANCH   1  22
BRANCH  20  28
HETATM   28  C23 UNL     1       4.381   5.056  18.674  1.00  0.00     0.211 C 
HETATM   29  O6  UNL     1       4.203   5.304  17.467  1.00  0.00    -0.646 OA
HETATM   30  O7  UNL     1       5.037   3.902  18.992  1.00  0.00    -0.646 OA
ENDBRANCH  20  28
TORSDOF 5
ENDMDL
MODEL 3
REMARK VINA RESULT: -6.444090663      1.992      6.328
REMARK  5 active torsions:
REMARK  status: ('A' for Active; 'I' for Inactive)
REMARK    1  A    between atoms: C2_2  and  C3_3 
REMARK    2  A    between atoms: C3_3  and  C4_4 
REMARK    3  A    between atoms: C4_4  and  O2_6 
REMARK    4  A    between atoms: O2_6  and  C5_7 
REMARK    5  A    between atoms: C21_26  and  C23_28 
ROOT
HETATM    1  C5  UNL     1       3.810   4.819  21.461  1.00  0.00     0.177 C 
HETATM    2  C6  UNL     1       3.945   3.989  20.227  1.00  0.00     0.044 C 
HETATM    3  C7  UNL     1       4.791   4.773  19.254  1.00  0.00     0.030 C 
HETATM    4  C8  UNL     1       6.145   4.142  19.029  1.00  0.00     0.184 C 
HETATM    5  O3  UNL     1       6.567   4.837  17.845  1.00  0.00    -0.320 OA
HETATM    6  C9  UNL     1       5.456   5.170  17.082  1.00  0.00     0.267 C 
HETATM    7  O4  UNL     1       5.523   5.719  15.962  1.00  0.00    -0.264 OA
HETATM    8  C10 UNL     1       4.234   4.753  17.847  1.00  0.00     0.050 C 
HETATM    9  C11 UNL     1       3.898   3.349  17.410  1.00  0.00     0.026 C 
HETATM   10  C12 UNL     1       3.094   5.702  17.639  1.00  0.00     0.020 C 
HETATM   11  C13 UNL     1       3.485   7.138  17.691  1.00  0.00     0.001 C 
HETATM   12  C14 UNL     1       2.692   7.896  18.764  1.00  0.00     0.000 C 
HETATM   13  C15 UNL     1       1.410   8.442  18.261  1.00  0.00     0.000 C 
HETATM   14  C16 UNL     1       0.198   8.109  19.044  1.00  0.00     0.000 C 
HETATM   15  C17 UNL     1       0.412   7.984  20.524  1.00  0.00     0.002 C 
HETATM   16  C18 UNL     1       0.221   6.506  20.892  1.00  0.00     0.032 C 
HETATM   17  C19 UNL     1       0.726   6.189  22.256  1.00  0.00     0.119 C 
HETATM   18  C20 UNL     1       0.613   7.492  23.094  1.00  0.00     0.039 C 
HETATM   19  O5  UNL     1       1.941   5.753  22.441  1.00  0.00    -0.362 OA
HETATM   20  C21 UNL     1       2.513   4.590  22.216  1.00  0.00     0.171 C 
HETATM   21  C22 UNL     1       2.998   4.130  23.628  1.00  0.00     0.061 C 
ENDROOT
BRANCH   1  22
HETATM   22  O2  UNL     1       4.960   4.591  22.259  1.00  0.00    -0.312 OA
BRANCH  22  23
HETATM   23  C4  UNL     1       5.814   5.570  22.712  1.00  0.00     0.259 C 
HETATM   24  O1  UNL     1       6.374   5.409  23.824  1.00  0.00    -0.265 OA
BRANCH  23  25
HETATM   25  C3  UNL     1       6.049   6.777  21.882  1.00  0.00     0.111 C 
BRANCH  25  26
HETATM   26  C2  UNL     1       7.523   7.144  21.902  1.00  0.00     0.005 C 
HETATM   27  C1  UNL     1       8.289   6.234  20.983  1.00  0.00     0.005 C 
ENDBRANCH  25  26
ENDBRANCH  23  25
ENDBRANCH  22  23
ENDBRANCH   1  22
BRANCH  20  28
HETATM   28  C23 UNL     1       1.764   3.436  21.762  1.00  0.00     0.211 C 
HETATM   29  O6  UNL     1       1.675   2.420  22.475  1.00  0.00    -0.646 OA
HETATM   30  O7  UNL     1       1.135   3.415  20.551  1.00  0.00    -0.646 OA
ENDBRANCH  20  28
TORSDOF 5
ENDMDL
MODEL 4
REMARK VINA RESULT: -6.180772058      1.011      1.023
REMARK  5 active torsions:
REMARK  status: ('A' for Active; 'I' for Inactive)
REMARK    1  A    between atoms: C2_2  and  C3_3 
REMARK    2  A    between atoms: C3_3  and  C4_4 
REMARK    3  A    between atoms: C4_4  and  O2_6 
REMARK    4  A    between atoms: O2_6  and  C5_7 
REMARK    5  A    between atoms: C21_26  and  C23_28 
ROOT
HETATM    1  C5  UNL     1       3.234   5.332  20.409  1.00  0.00     0.177 C 
HETATM    2  C6  UNL     1       2.902   3.898  20.161  1.00  0.00     0.044 C 
HETATM    3  C7  UNL     1       2.217   3.378  21.401  1.00  0.00     0.030 C 
HETATM    4  C8  UNL     1       0.756   3.071  21.168  1.00  0.00     0.184 C 
HETATM    5  O3  UNL     1       0.463   2.281  22.331  1.00  0.00    -0.320 OA
HETATM    6  C9  UNL     1       1.602   1.590  22.721  1.00  0.00     0.267 C 
HETATM    7  O4  UNL     1       1.627   0.769  23.662  1.00  0.00    -0.264 OA
HETATM    8  C10 UNL     1       2.726   2.017  21.823  1.00  0.00     0.050 C 
HETATM    9  C11 UNL     1       2.752   1.056  20.661  1.00  0.00     0.026 C 
HETATM   10  C12 UNL     1       4.035   2.065  22.551  1.00  0.00     0.020 C 
HETATM   11  C13 UNL     1       3.954   2.688  23.901  1.00  0.00     0.001 C 
HETATM   12  C14 UNL     1       4.912   3.881  24.025  1.00  0.00     0.000 C 
HETATM   13  C15 UNL     1       6.268   3.492  24.476  1.00  0.00     0.000 C 
HETATM   14  C16 UNL     1       7.401   3.968  23.648  1.00  0.00     0.000 C 
HETATM   15  C17 UNL     1       7.198   5.307  23.004  1.00  0.00     0.002 C 
HETATM   16  C18 UNL     1       7.084   5.076  21.491  1.00  0.00     0.032 C 
HETATM   17  C19 UNL     1       6.553   6.267  20.771  1.00  0.00     0.119 C 
HETATM   18  C20 UNL     1       6.955   7.514  21.605  1.00  0.00     0.039 C 
HETATM   19  O5  UNL     1       5.278   6.397  20.530  1.00  0.00    -0.362 OA
HETATM   20  C21 UNL     1       4.471   5.813  19.672  1.00  0.00     0.171 C 
HETATM   21  C22 UNL     1       3.931   6.991  18.800  1.00  0.00     0.061 C 
ENDROOT
BRANCH   1  22
HETATM   22  O2  UNL     1       2.080   6.099  20.108  1.00  0.00    -0.312 OA
BRANCH  22  23
HETATM   23  C4  UNL     1       1.423   6.920  20.995  1.00  0.00     0.259 C 
HETATM   24  O1  UNL     1       1.624   6.759  22.224  1.00  0.00    -0.265 OA
BRANCH  23  25
HETATM   25  C3  UNL     1       0.503   7.964  20.481  1.00  0.00     0.111 C 
BRANCH  25  26
HETATM   26  C2  UNL     1      -0.042   8.791  21.633  1.00  0.00     0.005 C 
HETATM   27  C1  UNL     1       0.508  10.189  21.563  1.00  0.00     0.005 C 
ENDBRANCH  25  26
ENDBRANCH  23  25
ENDBRANCH  22  23
ENDBRANCH   1  22
BRANCH  20  28
HETATM   28  C23 UNL     1       4.951   4.887  18.665  1.00  0.00     0.211 C 
HETATM   29  O6  UNL     1       4.849   5.160  17.455  1.00  0.00    -0.646 OA
HETATM   30  O7  UNL     1       5.528   3.696  18.997  1.00  0.00    -0.646 OA
ENDBRANCH  20  28
TORSDOF 5
ENDMDL
MODEL 5
REMARK VINA RESULT: -6.124171323      1.940      5.136
REMARK  5 active torsions:
REMARK  status: ('A' for Active; 'I' for Inactive)
REMARK    1  A    between atoms: C2_2  and  C3_3 
REMARK    2  A    between atoms: C3_3  and  C4_4 
REMARK    3  A    between atoms: C4_4  and  O2_6 
REMARK    4  A    between atoms: O2_6  and  C5_7 
REMARK    5  A    between atoms: C21_26  and  C23_28 
ROOT
HETATM    1  C5  UNL     1       4.613   4.076  19.923  1.00  0.00     0.177 C 
HETATM    2  C6  UNL     1       4.687   3.753  21.379  1.00  0.00     0.044 C 
HETATM    3  C7  UNL     1       3.543   2.819  21.687  1.00  0.00     0.030 C 
HETATM    4  C8  UNL     1       4.014   1.424  22.029  1.00  0.00     0.184 C 
HETATM    5  O3  UNL     1       2.822   0.880  22.616  1.00  0.00    -0.320 OA
HETATM    6  C9  UNL     1       2.103   1.895  23.233  1.00  0.00     0.267 C 
HETATM    7  O4  UNL     1       1.056   1.705  23.888  1.00  0.00    -0.264 OA
HETATM    8  C10 UNL     1       2.813   3.189  22.959  1.00  0.00     0.050 C 
HETATM    9  C11 UNL     1       3.775   3.414  24.099  1.00  0.00     0.026 C 
HETATM   10  C12 UNL     1       1.853   4.328  22.791  1.00  0.00     0.020 C 
HETATM   11  C13 UNL     1       0.667   4.000  21.954  1.00  0.00     0.001 C 
HETATM   12  C14 UNL     1       0.547   4.953  20.756  1.00  0.00     0.000 C 
HETATM   13  C15 UNL     1      -0.226   6.178  21.064  1.00  0.00     0.000 C 
HETATM   14  C16 UNL     1       0.423   7.468  20.731  1.00  0.00     0.000 C 
HETATM   15  C17 UNL     1       1.303   7.442  19.517  1.00  0.00     0.002 C 
HETATM   16  C18 UNL     1       2.750   7.623  19.995  1.00  0.00     0.032 C 
HETATM   17  C19 UNL     1       3.745   7.285  18.940  1.00  0.00     0.119 C 
HETATM   18  C20 UNL     1       3.061   7.554  17.572  1.00  0.00     0.039 C 
HETATM   19  O5  UNL     1       4.256   6.089  18.852  1.00  0.00    -0.362 OA
HETATM   20  C21 UNL     1       5.153   5.450  19.570  1.00  0.00     0.171 C 
HETATM   21  C22 UNL     1       6.295   5.134  18.552  1.00  0.00     0.061 C 
ENDROOT
BRANCH   1  22
HETATM   22  O2  UNL     1       5.261   3.031  19.218  1.00  0.00    -0.312 OA
BRANCH  22  23
HETATM   23  C4  UNL     1       4.630   2.112  18.411  1.00  0.00     0.259 C 
HETATM   24  O1  UNL     1       5.041   0.926  18.418  1.00  0.00    -0.265 OA
BRANCH  23  25
HETATM   25  C3  UNL     1       3.493   2.543  17.562  1.00  0.00     0.111 C 
BRANCH  25  26
HETATM   26  C2  UNL     1       2.332   1.575  17.716  1.00  0.00     0.005 C 
HETATM   27  C1  UNL     1       1.556   1.902  18.962  1.00  0.00     0.005 C 
ENDBRANCH  25  26
ENDBRANCH  23  25
ENDBRANCH  22  23
ENDBRANCH   1  22
BRANCH  20  28
HETATM   28  C23 UNL     1       5.879   6.091  20.649  1.00  0.00     0.211 C 
HETATM   29  O6  UNL     1       7.122   6.150  20.627  1.00  0.00    -0.646 OA
HETATM   30  O7  UNL     1       5.239   6.648  21.717  1.00  0.00    -0.646 OA
ENDBRANCH  20  28
TORSDOF 5
ENDMDL
