MODEL 1
REMARK VINA RESULT: -7.209198480      0.000      0.000
REMARK  5 active torsions:
REMARK  status: ('A' for Active; 'I' for Inactive)
REMARK    1  A    between atoms: C4_4  and  C5_5 
REMARK    2  A    between atoms: C5_5  and  N1_6 
REMARK    3  A    between atoms: N1_6  and  C6_8 
REMARK    4  A    between atoms: C10_16  and  N4_17 
REMARK    5  A    between atoms: C19_26  and  C20_27 
ROOT
HETATM    1  C1  UNL     1      14.185   8.442 -11.269  1.00  0.00     0.048 C 
HETATM    2  C2  UNL     1      15.467   9.177 -11.032  1.00  0.00    -0.056 A 
HETATM    3  C3  UNL     1      16.466   8.684 -10.208  1.00  0.00     0.035 A 
HETATM    4  C4  UNL     1      17.640   9.380 -10.005  1.00  0.00     0.054 A 
HETATM    5  N2  UNL     1      17.839  10.564 -10.609  1.00  0.00    -0.228 N 
HETATM    6  N3  UNL     1      18.873  11.419 -10.576  1.00  0.00    -0.123 N 
ATOM      7  H3  UNL     1      19.729  11.279 -10.039  1.00  0.00     0.206 HD
HETATM    8  C10 UNL     1      18.618  12.485 -11.350  1.00  0.00     0.697 A 
HETATM    9  N5  UNL     1      17.388  12.266 -11.869  1.00  0.00    -0.173 N 
ATOM     10  H5  UNL     1      16.901  12.897 -12.505  1.00  0.00     0.186 HD
HETATM   11  C21 UNL     1      16.900  11.095 -11.424  1.00  0.00     0.143 A 
HETATM   12  C22 UNL     1      15.714  10.395 -11.632  1.00  0.00     0.057 A 
ENDROOT
BRANCH   8  13
HETATM   13  N4  UNL     1      19.472  13.611 -11.576  1.00  0.00    -0.216 N 
HETATM   14  C11 UNL     1      18.958  14.524 -12.577  1.00  0.00     0.141 C 
HETATM   15  C12 UNL     1      19.917  14.421 -13.766  1.00  0.00     0.020 C 
HETATM   16  C13 UNL     1      21.028  15.463 -13.663  1.00  0.00     0.002 C 
HETATM   17  C14 UNL     1      22.334  14.858 -13.282  1.00  0.00     0.010 C 
HETATM   18  C15 UNL     1      22.599  14.691 -11.845  1.00  0.00    -0.034 A 
HETATM   19  C16 UNL     1      21.445  14.841 -10.927  1.00  0.00     0.030 C 
HETATM   20  C18 UNL     1      23.969  15.242 -11.334  1.00  0.00     0.016 A 
HETATM   21  C19 UNL     1      23.667  13.732 -11.459  1.00  0.00     0.009 A 
HETATM   22  C17 UNL     1      20.646  13.562 -10.741  1.00  0.00     0.142 C 
BRANCH  21  23
HETATM   23  C20 UNL     1      24.489  13.038 -12.521  1.00  0.00     0.120 C 
HETATM   24 CL1  UNL     1      23.702  11.521 -13.006  1.00  0.00    -0.130 Cl
ENDBRANCH  21  23
ENDBRANCH   8  13
BRANCH   4  25
HETATM   25  C5  UNL     1      18.693   8.796  -9.102  1.00  0.00     0.174 C 
BRANCH  25  26
HETATM   26  N1  UNL     1      19.759   8.302  -9.929  1.00  0.00    -0.410 N 
ATOM     27  H1  UNL     1      19.589   7.757 -10.774  1.00  0.00     0.154 HD
BRANCH  26  28
HETATM   28  C6  UNL     1      21.078   8.632  -9.477  1.00  0.00     0.102 C 
HETATM   29  C7  UNL     1      21.858   9.482 -10.455  1.00  0.00     0.053 C 
HETATM   30  C8  UNL     1      22.286   8.449 -11.471  1.00  0.00     0.169 C 
HETATM   31  O1  UNL     1      22.080   7.209 -10.927  1.00  0.00    -0.389 OA
HETATM   32  C9  UNL     1      21.891   7.333  -9.560  1.00  0.00     0.192 C 
ENDBRANCH  26  28
ENDBRANCH  25  26
ENDBRANCH   4  25
TORSDOF 5
ENDMDL
MODEL 2
REMARK VINA RESULT: -6.994449787      3.164      5.598
REMARK  5 active torsions:
REMARK  status: ('A' for Active; 'I' for Inactive)
REMARK    1  A    between atoms: C4_4  and  C5_5 
REMARK    2  A    between atoms: C5_5  and  N1_6 
REMARK    3  A    between atoms: N1_6  and  C6_8 
REMARK    4  A    between atoms: C10_16  and  N4_17 
REMARK    5  A    between atoms: C19_26  and  C20_27 
ROOT
HETATM    1  C1  UNL     1      20.840   7.354  -6.190  1.00  0.00     0.048 C 
HETATM    2  C2  UNL     1      20.655   7.922  -7.562  1.00  0.00    -0.056 A 
HETATM    3  C3  UNL     1      19.454   8.470  -7.984  1.00  0.00     0.035 A 
HETATM    4  C4  UNL     1      19.306   8.987  -9.254  1.00  0.00     0.054 A 
HETATM    5  N2  UNL     1      20.336   8.969 -10.118  1.00  0.00    -0.228 N 
HETATM    6  N3  UNL     1      20.446   9.401 -11.383  1.00  0.00    -0.123 N 
ATOM      7  H3  UNL     1      19.696   9.843 -11.916  1.00  0.00     0.206 HD
HETATM    8  C10 UNL     1      21.684   9.169 -11.847  1.00  0.00     0.697 A 
HETATM    9  N5  UNL     1      22.343   8.575 -10.825  1.00  0.00    -0.173 N 
ATOM     10  H5  UNL     1      23.316   8.270 -10.857  1.00  0.00     0.186 HD
HETATM   11  C21 UNL     1      21.532   8.447  -9.762  1.00  0.00     0.143 A 
HETATM   12  C22 UNL     1      21.684   7.924  -8.480  1.00  0.00     0.057 A 
ENDROOT
BRANCH   8  13
HETATM   13  N4  UNL     1      22.191   9.484 -13.146  1.00  0.00    -0.216 N 
HETATM   14  C11 UNL     1      23.626   9.312 -13.255  1.00  0.00     0.141 C 
HETATM   15  C12 UNL     1      24.202  10.719 -13.436  1.00  0.00     0.020 C 
HETATM   16  C13 UNL     1      24.325  11.073 -14.915  1.00  0.00     0.002 C 
HETATM   17  C14 UNL     1      23.291  12.053 -15.349  1.00  0.00     0.010 C 
HETATM   18  C15 UNL     1      21.990  11.510 -15.769  1.00  0.00    -0.034 A 
HETATM   19  C16 UNL     1      21.714  10.093 -15.434  1.00  0.00     0.030 C 
HETATM   20  C18 UNL     1      21.450  12.016 -17.144  1.00  0.00     0.016 A 
HETATM   21  C19 UNL     1      20.839  12.449 -15.794  1.00  0.00     0.009 A 
HETATM   22  C17 UNL     1      21.139   9.899 -14.040  1.00  0.00     0.142 C 
BRANCH  21  23
HETATM   23  C20 UNL     1      21.044  13.915 -15.482  1.00  0.00     0.120 C 
HETATM   24 CL1  UNL     1      20.850  14.198 -13.738  1.00  0.00    -0.130 Cl
ENDBRANCH  21  23
ENDBRANCH   8  13
BRANCH   4  25
HETATM   25  C5  UNL     1      17.980   9.574  -9.658  1.00  0.00     0.174 C 
BRANCH  25  26
HETATM   26  N1  UNL     1      17.006   8.518  -9.642  1.00  0.00    -0.410 N 
ATOM     27  H1  UNL     1      16.938   7.848  -8.875  1.00  0.00     0.154 HD
BRANCH  26  28
HETATM   28  C6  UNL     1      16.138   8.478 -10.781  1.00  0.00     0.102 C 
HETATM   29  C7  UNL     1      15.438   9.790 -11.055  1.00  0.00     0.053 C 
HETATM   30  C8  UNL     1      14.344   9.766 -10.014  1.00  0.00     0.169 C 
HETATM   31  O1  UNL     1      14.256   8.492  -9.520  1.00  0.00    -0.389 OA
HETATM   32  C9  UNL     1      14.932   7.626 -10.364  1.00  0.00     0.192 C 
ENDBRANCH  26  28
ENDBRANCH  25  26
ENDBRANCH   4  25
TORSDOF 5
ENDMDL
MODEL 3
REMARK VINA RESULT: -6.887150063      3.416      5.462
REMARK  5 active torsions:
REMARK  status: ('A' for Active; 'I' for Inactive)
REMARK    1  A    between atoms: C4_4  and  C5_5 
REMARK    2  A    between atoms: C5_5  and  N1_6 
REMARK    3  A    between atoms: N1_6  and  C6_8 
REMARK    4  A    between atoms: C10_16  and  N4_17 
REMARK    5  A    between atoms: C19_26  and  C20_27 
ROOT
HETATM    1  C1  UNL     1      20.764   7.383  -6.843  1.00  0.00     0.048 C 
HETATM    2  C2  UNL     1      20.559   8.147  -8.113  1.00  0.00    -0.056 A 
HETATM    3  C3  UNL     1      19.315   8.618  -8.506  1.00  0.00     0.035 A 
HETATM    4  C4  UNL     1      19.151   9.320  -9.681  1.00  0.00     0.054 A 
HETATM    5  N2  UNL     1      20.204   9.563 -10.480  1.00  0.00    -0.228 N 
HETATM    6  N3  UNL     1      20.305  10.210 -11.651  1.00  0.00    -0.123 N 
ATOM      7  H3  UNL     1      19.527  10.646 -12.145  1.00  0.00     0.206 HD
HETATM    8  C10 UNL     1      21.577  10.200 -12.079  1.00  0.00     0.697 A 
HETATM    9  N5  UNL     1      22.268   9.523 -11.132  1.00  0.00    -0.173 N 
ATOM     10  H5  UNL     1      23.271   9.340 -11.160  1.00  0.00     0.186 HD
HETATM   11  C21 UNL     1      21.442   9.128 -10.149  1.00  0.00     0.143 A 
HETATM   12  C22 UNL     1      21.612   8.419  -8.962  1.00  0.00     0.057 A 
ENDROOT
BRANCH   8  13
HETATM   13  N4  UNL     1      22.088  10.783 -13.281  1.00  0.00    -0.216 N 
HETATM   14  C11 UNL     1      21.058  11.052 -14.265  1.00  0.00     0.141 C 
HETATM   15  C12 UNL     1      21.328  10.090 -15.425  1.00  0.00     0.020 C 
HETATM   16  C13 UNL     1      22.230  10.737 -16.472  1.00  0.00     0.002 C 
HETATM   17  C14 UNL     1      23.615  10.190 -16.440  1.00  0.00     0.010 C 
HETATM   18  C15 UNL     1      24.557  10.815 -15.498  1.00  0.00    -0.034 A 
HETATM   19  C16 UNL     1      23.982  11.703 -14.461  1.00  0.00     0.030 C 
HETATM   20  C18 UNL     1      25.935  11.247 -16.097  1.00  0.00     0.016 A 
HETATM   21  C19 UNL     1      25.776  10.041 -15.145  1.00  0.00     0.009 A 
HETATM   22  C17 UNL     1      23.516  10.964 -13.218  1.00  0.00     0.142 C 
BRANCH  21  23
HETATM   23  C20 UNL     1      26.053   8.710 -15.806  1.00  0.00     0.120 C 
HETATM   24 CL1  UNL     1      27.541   8.000 -15.145  1.00  0.00    -0.130 Cl
ENDBRANCH  21  23
ENDBRANCH   8  13
BRANCH   4  25
HETATM   25  C5  UNL     1      17.778   9.811 -10.057  1.00  0.00     0.174 C 
BRANCH  25  26
HETATM   26  N1  UNL     1      16.830   8.798  -9.687  1.00  0.00    -0.410 N 
ATOM     27  H1  UNL     1      16.846   8.339  -8.777  1.00  0.00     0.154 HD
BRANCH  26  28
HETATM   28  C6  UNL     1      15.859   8.482 -10.693  1.00  0.00     0.102 C 
HETATM   29  C7  UNL     1      15.187   9.699 -11.289  1.00  0.00     0.053 C 
HETATM   30  C8  UNL     1      14.194  10.051 -10.207  1.00  0.00     0.169 C 
HETATM   31  O1  UNL     1      14.104   8.985  -9.352  1.00  0.00    -0.389 OA
HETATM   32  C9  UNL     1      14.664   7.868  -9.950  1.00  0.00     0.192 C 
ENDBRANCH  26  28
ENDBRANCH  25  26
ENDBRANCH   4  25
TORSDOF 5
ENDMDL
MODEL 4
REMARK VINA RESULT: -6.840415323      2.917      5.290
REMARK  5 active torsions:
REMARK  status: ('A' for Active; 'I' for Inactive)
REMARK    1  A    between atoms: C4_4  and  C5_5 
REMARK    2  A    between atoms: C5_5  and  N1_6 
REMARK    3  A    between atoms: N1_6  and  C6_8 
REMARK    4  A    between atoms: C10_16  and  N4_17 
REMARK    5  A    between atoms: C19_26  and  C20_27 
ROOT
HETATM    1  C1  UNL     1      20.517   7.409  -6.487  1.00  0.00     0.048 C 
HETATM    2  C2  UNL     1      20.444   8.080  -7.822  1.00  0.00    -0.056 A 
HETATM    3  C3  UNL     1      19.270   8.625  -8.317  1.00  0.00     0.035 A 
HETATM    4  C4  UNL     1      19.228   9.239  -9.552  1.00  0.00     0.054 A 
HETATM    5  N2  UNL     1      20.335   9.322 -10.307  1.00  0.00    -0.228 N 
HETATM    6  N3  UNL     1      20.552   9.858 -11.518  1.00  0.00    -0.123 N 
ATOM      7  H3  UNL     1      19.842  10.320 -12.087  1.00  0.00     0.206 HD
HETATM    8  C10 UNL     1      21.837   9.701 -11.873  1.00  0.00     0.697 A 
HETATM    9  N5  UNL     1      22.416   9.046 -10.840  1.00  0.00    -0.173 N 
ATOM     10  H5  UNL     1      23.398   8.773 -10.798  1.00  0.00     0.186 HD
HETATM   11  C21 UNL     1      21.510   8.808  -9.876  1.00  0.00     0.143 A 
HETATM   12  C22 UNL     1      21.557   8.187  -8.630  1.00  0.00     0.057 A 
ENDROOT
BRANCH   8  13
HETATM   13  N4  UNL     1      22.455  10.135 -13.087  1.00  0.00    -0.216 N 
HETATM   14  C11 UNL     1      23.380   9.163 -13.634  1.00  0.00     0.141 C 
HETATM   15  C12 UNL     1      24.771   9.789 -13.501  1.00  0.00     0.020 C 
HETATM   16  C13 UNL     1      25.143  10.568 -14.760  1.00  0.00     0.002 C 
HETATM   17  C14 UNL     1      25.079  12.040 -14.552  1.00  0.00     0.010 C 
HETATM   18  C15 UNL     1      23.773  12.687 -14.751  1.00  0.00    -0.034 A 
HETATM   19  C16 UNL     1      22.589  11.800 -14.830  1.00  0.00     0.030 C 
HETATM   20  C18 UNL     1      23.766  13.940 -15.684  1.00  0.00     0.016 A 
HETATM   21  C19 UNL     1      23.586  14.035 -14.154  1.00  0.00     0.009 A 
HETATM   22  C17 UNL     1      22.002  11.448 -13.473  1.00  0.00     0.142 C 
BRANCH  21  23
HETATM   23  C20 UNL     1      24.735  14.725 -13.453  1.00  0.00     0.120 C 
HETATM   24 CL1  UNL     1      24.256  15.181 -11.804  1.00  0.00    -0.130 Cl
ENDBRANCH  21  23
ENDBRANCH   8  13
BRANCH   4  25
HETATM   25  C5  UNL     1      17.926   9.818 -10.039  1.00  0.00     0.174 C 
BRANCH  25  26
HETATM   26  N1  UNL     1      16.873   8.918  -9.659  1.00  0.00    -0.410 N 
ATOM     27  H1  UNL     1      16.797   8.530  -8.719  1.00  0.00     0.154 HD
BRANCH  26  28
HETATM   28  C6  UNL     1      15.936   8.609 -10.698  1.00  0.00     0.102 C 
HETATM   29  C7  UNL     1      15.247   9.826 -11.275  1.00  0.00     0.053 C 
HETATM   30  C8  UNL     1      14.218  10.117 -10.208  1.00  0.00     0.169 C 
HETATM   31  O1  UNL     1      14.135   9.023  -9.388  1.00  0.00    -0.389 OA
HETATM   32  C9  UNL     1      14.740   7.941 -10.006  1.00  0.00     0.192 C 
ENDBRANCH  26  28
ENDBRANCH  25  26
ENDBRANCH   4  25
TORSDOF 5
ENDMDL
MODEL 5
REMARK VINA RESULT: -6.817936013      2.662      6.938
REMARK  5 active torsions:
REMARK  status: ('A' for Active; 'I' for Inactive)
REMARK    1  A    between atoms: C4_4  and  C5_5 
REMARK    2  A    between atoms: C5_5  and  N1_6 
REMARK    3  A    between atoms: N1_6  and  C6_8 
REMARK    4  A    between atoms: C10_16  and  N4_17 
REMARK    5  A    between atoms: C19_26  and  C20_27 
ROOT
HETATM    1  C1  UNL     1      20.197  18.772 -10.097  1.00  0.00     0.048 C 
HETATM    2  C2  UNL     1      20.615  17.372 -10.419  1.00  0.00    -0.056 A 
HETATM    3  C3  UNL     1      21.913  17.048 -10.781  1.00  0.00     0.035 A 
HETATM    4  C4  UNL     1      22.275  15.750 -11.074  1.00  0.00     0.054 A 
HETATM    5  N2  UNL     1      21.366  14.762 -11.016  1.00  0.00    -0.228 N 
HETATM    6  N3  UNL     1      21.464  13.445 -11.249  1.00  0.00    -0.123 N 
ATOM      7  H3  UNL     1      22.319  12.964 -11.529  1.00  0.00     0.206 HD
HETATM    8  C10 UNL     1      20.276  12.850 -11.061  1.00  0.00     0.697 A 
HETATM    9  N5  UNL     1      19.431  13.844 -10.701  1.00  0.00    -0.173 N 
ATOM     10  H5  UNL     1      18.442  13.720 -10.485  1.00  0.00     0.186 HD
HETATM   11  C21 UNL     1      20.083  15.018 -10.670  1.00  0.00     0.143 A 
HETATM   12  C22 UNL     1      19.714  16.328 -10.373  1.00  0.00     0.057 A 
ENDROOT
BRANCH   8  13
HETATM   13  N4  UNL     1      19.974  11.460 -11.210  1.00  0.00    -0.216 N 
HETATM   14  C11 UNL     1      18.558  11.200 -11.377  1.00  0.00     0.141 C 
HETATM   15  C12 UNL     1      18.117  10.461 -10.111  1.00  0.00     0.020 C 
HETATM   16  C13 UNL     1      18.222   8.949 -10.295  1.00  0.00     0.002 C 
HETATM   17  C14 UNL     1      19.374   8.369  -9.552  1.00  0.00     0.010 C 
HETATM   18  C15 UNL     1      20.676   8.365 -10.237  1.00  0.00    -0.034 A 
HETATM   19  C16 UNL     1      20.800   9.204 -11.452  1.00  0.00     0.030 C 
HETATM   20  C18 UNL     1      21.434   6.999 -10.257  1.00  0.00     0.016 A 
HETATM   21  C19 UNL     1      21.887   8.195  -9.391  1.00  0.00     0.009 A 
HETATM   22  C17 UNL     1      21.165  10.650 -11.158  1.00  0.00     0.142 C 
BRANCH  21  23
HETATM   23  C20 UNL     1      21.750   7.950  -7.905  1.00  0.00     0.120 C 
HETATM   24 CL1  UNL     1      22.801   6.605  -7.412  1.00  0.00    -0.130 Cl
ENDBRANCH  21  23
ENDBRANCH   8  13
BRANCH   4  25
HETATM   25  C5  UNL     1      23.701  15.454 -11.457  1.00  0.00     0.174 C 
BRANCH  25  26
HETATM   26  N1  UNL     1      23.749  15.281 -12.882  1.00  0.00    -0.410 N 
ATOM     27  H1  UNL     1      23.094  15.744 -13.512  1.00  0.00     0.154 HD
BRANCH  26  28
HETATM   28  C6  UNL     1      24.785  14.410 -13.351  1.00  0.00     0.102 C 
HETATM   29  C7  UNL     1      24.607  13.976 -14.789  1.00  0.00     0.053 C 
HETATM   30  C8  UNL     1      23.546  12.910 -14.648  1.00  0.00     0.169 C 
HETATM   31  O1  UNL     1      23.450  12.580 -13.322  1.00  0.00    -0.389 OA
HETATM   32  C9  UNL     1      24.558  13.065 -12.648  1.00  0.00     0.192 C 
ENDBRANCH  26  28
ENDBRANCH  25  26
ENDBRANCH   4  25
TORSDOF 5
ENDMDL
