MODEL 1
REMARK VINA RESULT: -7.375600513      0.000      0.000
REMARK  6 active torsions:
REMARK  status: ('A' for Active; 'I' for Inactive)
REMARK    1  A    between atoms: C2_2  and  C3_3 
REMARK    2  A    between atoms: C2_2  and  C5_12 
REMARK    3  A    between atoms: C3_3  and  C4_4 
REMARK    4  A    between atoms: C4_4  and  N1_5 
REMARK    5  A    between atoms: N1_5  and  N2_7 
REMARK    6  A    between atoms: C5_12  and  C7_14 
ROOT
HETATM    1  C7  UNL     1      19.481  10.455 -11.204  1.00  0.00     0.139 C 
HETATM    2  C8  UNL     1      20.557   9.561 -11.731  1.00  0.00     0.035 C 
HETATM    3  C9  UNL     1      21.016  10.154 -13.071  1.00  0.00     0.034 C 
HETATM    4  C10 UNL     1      21.582  11.537 -12.880  1.00  0.00     0.146 C 
HETATM    5  C11 UNL     1      21.451  12.239 -14.195  1.00  0.00     0.243 C 
HETATM    6  O1  UNL     1      20.665  13.210 -14.275  1.00  0.00    -0.272 OA
HETATM    7  N4  UNL     1      22.193  11.816 -15.317  1.00  0.00    -0.311 N 
ATOM      8  H4  UNL     1      21.861  11.988 -16.265  1.00  0.00     0.170 HD
HETATM    9  C12 UNL     1      23.450  11.127 -15.070  1.00  0.00     0.122 A 
HETATM   10  N5  UNL     1      24.249  10.659 -15.986  1.00  0.00    -0.345 N 
ATOM     11  H5  UNL     1      24.013  10.774 -16.972  1.00  0.00     0.167 HD
HETATM   12  C13 UNL     1      25.356  10.039 -15.649  1.00  0.00     0.140 A 
HETATM   13  S1  UNL     1      25.306  10.097 -13.950  1.00  0.00    -0.084 SA
HETATM   14  C14 UNL     1      23.803  10.951 -13.763  1.00  0.00     0.044 A 
HETATM   15  C15 UNL     1      23.029  11.425 -12.575  1.00  0.00     0.129 C 
HETATM   16 BR1  UNL     1      23.815  13.102 -12.028  1.00  0.00    -0.084 Br
HETATM   17  C16 UNL     1      20.899  12.306 -11.841  1.00  0.00     0.279 C 
HETATM   18  O2  UNL     1      21.073  13.543 -11.783  1.00  0.00    -0.264 OA
HETATM   19  O3  UNL     1      20.056  11.715 -10.909  1.00  0.00    -0.314 OA
ENDROOT
BRANCH   1  20
HETATM   20  C5  UNL     1      18.808   9.961  -9.971  1.00  0.00     0.039 C 
HETATM   21  C6  UNL     1      19.583   8.862  -9.281  1.00  0.00     0.017 C 
BRANCH  20  22
HETATM   22  C2  UNL     1      17.386   9.561 -10.202  1.00  0.00    -0.081 C 
HETATM   23  C1  UNL     1      16.473  10.408 -10.642  1.00  0.00     0.015 C 
BRANCH  22  24
HETATM   24  C3  UNL     1      16.962   8.160  -9.934  1.00  0.00     0.055 C 
BRANCH  24  25
HETATM   25  C4  UNL     1      15.584   7.841 -10.384  1.00  0.00     0.145 C 
BRANCH  25  26
HETATM   26  N1  UNL     1      14.839   7.406  -9.192  1.00  0.00    -0.322 N 
ATOM     27  H1  UNL     1      15.084   6.551  -8.693  1.00  0.00     0.181 HD
BRANCH  26  28
HETATM   28  N2  UNL     1      13.913   8.117  -8.827  1.00  0.00    -0.254 N 
HETATM   29  N3  UNL     1      13.227   8.852  -8.098  1.00  0.00    -0.331 N 
ATOM     30  H32 UNL     1      13.853   8.850  -7.293  1.00  0.00     0.178 HD
ATOM     31  H31 UNL     1      12.455   9.445  -7.794  1.00  0.00     0.178 HD
ATOM     32  H2  UNL     1      13.323   8.087  -9.659  1.00  0.00     0.207 HD
ENDBRANCH  26  28
ENDBRANCH  25  26
ENDBRANCH  24  25
ENDBRANCH  22  24
ENDBRANCH  20  22
ENDBRANCH   1  20
TORSDOF 6
ENDMDL
MODEL 2
REMARK VINA RESULT: -7.360596074      3.862      4.583
REMARK  6 active torsions:
REMARK  status: ('A' for Active; 'I' for Inactive)
REMARK    1  A    between atoms: C2_2  and  C3_3 
REMARK    2  A    between atoms: C2_2  and  C5_12 
REMARK    3  A    between atoms: C3_3  and  C4_4 
REMARK    4  A    between atoms: C4_4  and  N1_5 
REMARK    5  A    between atoms: N1_5  and  N2_7 
REMARK    6  A    between atoms: C5_12  and  C7_14 
ROOT
HETATM    1  C7  UNL     1      20.144   9.625 -10.821  1.00  0.00     0.139 C 
HETATM    2  C8  UNL     1      21.516  10.220 -10.826  1.00  0.00     0.035 C 
HETATM    3  C9  UNL     1      21.539  11.285 -11.931  1.00  0.00     0.034 C 
HETATM    4  C10 UNL     1      20.537  12.375 -11.648  1.00  0.00     0.146 C 
HETATM    5  C11 UNL     1      20.205  13.004 -12.964  1.00  0.00     0.243 C 
HETATM    6  O1  UNL     1      19.045  12.866 -13.414  1.00  0.00    -0.272 OA
HETATM    7  N4  UNL     1      21.175  13.735 -13.680  1.00  0.00    -0.311 N 
ATOM      8  H4  UNL     1      21.123  13.830 -14.694  1.00  0.00     0.170 HD
HETATM    9  C12 UNL     1      22.252  14.349 -12.918  1.00  0.00     0.122 A 
HETATM   10  N5  UNL     1      23.234  15.043 -13.420  1.00  0.00    -0.345 N 
ATOM     11  H5  UNL     1      23.281  15.200 -14.427  1.00  0.00     0.167 HD
HETATM   12  C13 UNL     1      24.163  15.542 -12.638  1.00  0.00     0.140 A 
HETATM   13  S1  UNL     1      23.661  15.025 -11.098  1.00  0.00    -0.084 SA
HETATM   14  C14 UNL     1      22.226  14.163 -11.567  1.00  0.00     0.044 A 
HETATM   15  C15 UNL     1      21.181  13.411 -10.806  1.00  0.00     0.129 C 
HETATM   16 BR1  UNL     1      19.930  14.720 -10.133  1.00  0.00    -0.084 Br
HETATM   17  C16 UNL     1      19.314  11.887 -11.012  1.00  0.00     0.279 C 
HETATM   18  O2  UNL     1      18.303  12.624 -10.989  1.00  0.00    -0.264 OA
HETATM   19  O3  UNL     1      19.227  10.630 -10.430  1.00  0.00    -0.314 OA
ENDROOT
BRANCH   1  20
HETATM   20  C5  UNL     1      19.970   8.465  -9.905  1.00  0.00     0.039 C 
HETATM   21  C6  UNL     1      19.073   8.778  -8.729  1.00  0.00     0.017 C 
BRANCH  20  22
HETATM   22  C2  UNL     1      21.269   7.875  -9.456  1.00  0.00    -0.081 C 
HETATM   23  C1  UNL     1      22.044   7.172 -10.262  1.00  0.00     0.015 C 
BRANCH  22  24
HETATM   24  C3  UNL     1      21.724   8.075  -8.054  1.00  0.00     0.055 C 
BRANCH  24  25
HETATM   25  C4  UNL     1      21.987   6.818  -7.311  1.00  0.00     0.145 C 
BRANCH  25  26
HETATM   26  N1  UNL     1      21.132   6.846  -6.114  1.00  0.00    -0.322 N 
ATOM     27  H1  UNL     1      20.648   7.695  -5.825  1.00  0.00     0.181 HD
BRANCH  26  28
HETATM   28  N2  UNL     1      21.029   5.803  -5.482  1.00  0.00    -0.254 N 
HETATM   29  N3  UNL     1      20.537   4.930  -4.749  1.00  0.00    -0.331 N 
ATOM     30  H32 UNL     1      19.651   5.402  -4.570  1.00  0.00     0.178 HD
ATOM     31  H31 UNL     1      20.452   4.061  -4.221  1.00  0.00     0.178 HD
ATOM     32  H2  UNL     1      21.931   5.375  -5.693  1.00  0.00     0.207 HD
ENDBRANCH  26  28
ENDBRANCH  25  26
ENDBRANCH  24  25
ENDBRANCH  22  24
ENDBRANCH  20  22
ENDBRANCH   1  20
TORSDOF 6
ENDMDL
MODEL 3
REMARK VINA RESULT: -7.223204245      4.390      6.136
REMARK  6 active torsions:
REMARK  status: ('A' for Active; 'I' for Inactive)
REMARK    1  A    between atoms: C2_2  and  C3_3 
REMARK    2  A    between atoms: C2_2  and  C5_12 
REMARK    3  A    between atoms: C3_3  and  C4_4 
REMARK    4  A    between atoms: C4_4  and  N1_5 
REMARK    5  A    between atoms: N1_5  and  N2_7 
REMARK    6  A    between atoms: C5_12  and  C7_14 
ROOT
HETATM    1  C7  UNL     1      19.529  11.603 -10.725  1.00  0.00     0.139 C 
HETATM    2  C8  UNL     1      18.686  12.829 -10.581  1.00  0.00     0.035 C 
HETATM    3  C9  UNL     1      19.638  13.998 -10.295  1.00  0.00     0.034 C 
HETATM    4  C10 UNL     1      20.600  14.200 -11.437  1.00  0.00     0.146 C 
HETATM    5  C11 UNL     1      21.797  14.897 -10.871  1.00  0.00     0.243 C 
HETATM    6  O1  UNL     1      22.885  14.278 -10.838  1.00  0.00    -0.272 OA
HETATM    7  N4  UNL     1      21.703  16.217 -10.386  1.00  0.00    -0.311 N 
ATOM      8  H4  UNL     1      22.342  16.565  -9.671  1.00  0.00     0.170 HD
HETATM    9  C12 UNL     1      20.660  17.065 -10.944  1.00  0.00     0.122 A 
HETATM   10  N5  UNL     1      20.425  18.299 -10.601  1.00  0.00    -0.345 N 
ATOM     11  H5  UNL     1      21.005  18.748  -9.892  1.00  0.00     0.167 HD
HETATM   12  C13 UNL     1      19.445  18.969 -11.162  1.00  0.00     0.140 A 
HETATM   13  S1  UNL     1      18.792  17.829 -12.242  1.00  0.00    -0.084 SA
HETATM   14  C14 UNL     1      19.862  16.502 -11.897  1.00  0.00     0.044 A 
HETATM   15  C15 UNL     1      19.981  15.110 -12.430  1.00  0.00     0.129 C 
HETATM   16 BR1  UNL     1      20.986  15.227 -14.075  1.00  0.00    -0.084 Br
HETATM   17  C16 UNL     1      21.013  12.951 -12.076  1.00  0.00     0.279 C 
HETATM   18  O2  UNL     1      22.011  12.952 -12.830  1.00  0.00    -0.264 OA
HETATM   19  O3  UNL     1      20.338  11.754 -11.877  1.00  0.00    -0.314 OA
ENDROOT
BRANCH   1  20
HETATM   20  C5  UNL     1      18.765  10.333 -10.866  1.00  0.00     0.039 C 
HETATM   21  C6  UNL     1      17.292  10.500 -10.569  1.00  0.00     0.017 C 
BRANCH  20  22
HETATM   22  C2  UNL     1      19.355   9.206 -10.081  1.00  0.00    -0.081 C 
HETATM   23  C1  UNL     1      18.927   8.884  -8.873  1.00  0.00     0.015 C 
BRANCH  22  24
HETATM   24  C3  UNL     1      20.464   8.403 -10.663  1.00  0.00     0.055 C 
BRANCH  24  25
HETATM   25  C4  UNL     1      21.767   8.571  -9.974  1.00  0.00     0.145 C 
BRANCH  25  26
HETATM   26  N1  UNL     1      22.354   9.823 -10.477  1.00  0.00    -0.322 N 
ATOM     27  H1  UNL     1      22.505  10.625  -9.865  1.00  0.00     0.181 HD
BRANCH  26  28
HETATM   28  N2  UNL     1      22.653   9.858 -11.663  1.00  0.00    -0.254 N 
HETATM   29  N3  UNL     1      23.206  10.221 -12.713  1.00  0.00    -0.331 N 
ATOM     30  H32 UNL     1      23.767  10.969 -12.308  1.00  0.00     0.178 HD
ATOM     31  H31 UNL     1      23.455  10.250 -13.702  1.00  0.00     0.178 HD
ATOM     32  H2  UNL     1      22.071   9.099 -12.018  1.00  0.00     0.207 HD
ENDBRANCH  26  28
ENDBRANCH  25  26
ENDBRANCH  24  25
ENDBRANCH  22  24
ENDBRANCH  20  22
ENDBRANCH   1  20
TORSDOF 6
ENDMDL
MODEL 4
REMARK VINA RESULT: -7.216424885      1.251      1.279
REMARK  6 active torsions:
REMARK  status: ('A' for Active; 'I' for Inactive)
REMARK    1  A    between atoms: C2_2  and  C3_3 
REMARK    2  A    between atoms: C2_2  and  C5_12 
REMARK    3  A    between atoms: C3_3  and  C4_4 
REMARK    4  A    between atoms: C4_4  and  N1_5 
REMARK    5  A    between atoms: N1_5  and  N2_7 
REMARK    6  A    between atoms: C5_12  and  C7_14 
ROOT
HETATM    1  C7  UNL     1      19.164  10.819 -11.066  1.00  0.00     0.139 C 
HETATM    2  C8  UNL     1      20.418  10.266 -11.664  1.00  0.00     0.035 C 
HETATM    3  C9  UNL     1      20.765  11.148 -12.872  1.00  0.00     0.034 C 
HETATM    4  C10 UNL     1      21.016  12.571 -12.444  1.00  0.00     0.146 C 
HETATM    5  C11 UNL     1      20.763  13.430 -13.643  1.00  0.00     0.243 C 
HETATM    6  O1  UNL     1      19.788  14.216 -13.616  1.00  0.00    -0.272 OA
HETATM    7  N4  UNL     1      21.601  13.358 -14.773  1.00  0.00    -0.311 N 
ATOM      8  H4  UNL     1      21.259  13.604 -15.702  1.00  0.00     0.170 HD
HETATM    9  C12 UNL     1      22.973  12.917 -14.566  1.00  0.00     0.122 A 
HETATM   10  N5  UNL     1      23.872  12.779 -15.499  1.00  0.00    -0.345 N 
ATOM     11  H5  UNL     1      23.636  12.999 -16.467  1.00  0.00     0.167 HD
HETATM   12  C13 UNL     1      25.079  12.360 -15.201  1.00  0.00     0.140 A 
HETATM   13  S1  UNL     1      24.984  12.135 -13.518  1.00  0.00    -0.084 SA
HETATM   14  C14 UNL     1      23.328  12.613 -13.285  1.00  0.00     0.044 A 
HETATM   15  C15 UNL     1      22.446  12.718 -12.082  1.00  0.00     0.129 C 
HETATM   16 BR1  UNL     1      22.841  14.414 -11.245  1.00  0.00    -0.084 Br
HETATM   17  C16 UNL     1      20.162  13.004 -11.339  1.00  0.00     0.279 C 
HETATM   18  O2  UNL     1      20.064  14.225 -11.084  1.00  0.00    -0.264 OA
HETATM   19  O3  UNL     1      19.448  12.108 -10.554  1.00  0.00    -0.314 OA
ENDROOT
BRANCH   1  20
HETATM   20  C5  UNL     1      18.589  10.004  -9.961  1.00  0.00     0.039 C 
HETATM   21  C6  UNL     1      19.481   8.852  -9.557  1.00  0.00     0.017 C 
BRANCH  20  22
HETATM   22  C2  UNL     1      17.195   9.541 -10.240  1.00  0.00    -0.081 C 
HETATM   23  C1  UNL     1      16.264  10.346 -10.719  1.00  0.00     0.015 C 
BRANCH  22  24
HETATM   24  C3  UNL     1      16.823   8.125  -9.977  1.00  0.00     0.055 C 
BRANCH  24  25
HETATM   25  C4  UNL     1      15.448   7.765 -10.405  1.00  0.00     0.145 C 
BRANCH  25  26
HETATM   26  N1  UNL     1      14.714   7.376  -9.191  1.00  0.00    -0.322 N 
ATOM     27  H1  UNL     1      14.930   6.514  -8.691  1.00  0.00     0.181 HD
BRANCH  26  28
HETATM   28  N2  UNL     1      13.833   8.134  -8.809  1.00  0.00    -0.254 N 
HETATM   29  N3  UNL     1      13.190   8.890  -8.062  1.00  0.00    -0.331 N 
ATOM     30  H32 UNL     1      13.808   8.822  -7.254  1.00  0.00     0.178 HD
ATOM     31  H31 UNL     1      12.455   9.521  -7.744  1.00  0.00     0.178 HD
ATOM     32  H2  UNL     1      13.249   8.167  -9.645  1.00  0.00     0.207 HD
ENDBRANCH  26  28
ENDBRANCH  25  26
ENDBRANCH  24  25
ENDBRANCH  22  24
ENDBRANCH  20  22
ENDBRANCH   1  20
TORSDOF 6
ENDMDL
MODEL 5
REMARK VINA RESULT: -7.213610426      2.913      7.792
REMARK  6 active torsions:
REMARK  status: ('A' for Active; 'I' for Inactive)
REMARK    1  A    between atoms: C2_2  and  C3_3 
REMARK    2  A    between atoms: C2_2  and  C5_12 
REMARK    3  A    between atoms: C3_3  and  C4_4 
REMARK    4  A    between atoms: C4_4  and  N1_5 
REMARK    5  A    between atoms: N1_5  and  N2_7 
REMARK    6  A    between atoms: C5_12  and  C7_14 
ROOT
HETATM    1  C7  UNL     1      22.741  10.331 -14.390  1.00  0.00     0.139 C 
HETATM    2  C8  UNL     1      21.264  10.106 -14.435  1.00  0.00     0.035 C 
HETATM    3  C9  UNL     1      20.842   9.620 -13.042  1.00  0.00     0.034 C 
HETATM    4  C10 UNL     1      21.144  10.661 -11.995  1.00  0.00     0.146 C 
HETATM    5  C11 UNL     1      21.266   9.936 -10.692  1.00  0.00     0.243 C 
HETATM    6  O1  UNL     1      22.386   9.900 -10.134  1.00  0.00    -0.272 OA
HETATM    7  N4  UNL     1      20.147   9.310 -10.106  1.00  0.00    -0.311 N 
ATOM      8  H4  UNL     1      20.255   8.517  -9.475  1.00  0.00     0.170 HD
HETATM    9  C12 UNL     1      18.831   9.838 -10.437  1.00  0.00     0.122 A 
HETATM   10  N5  UNL     1      17.697   9.371  -9.999  1.00  0.00    -0.345 N 
ATOM     11  H5  UNL     1      17.688   8.576  -9.359  1.00  0.00     0.167 HD
HETATM   12  C13 UNL     1      16.564   9.918 -10.375  1.00  0.00     0.140 A 
HETATM   13  S1  UNL     1      17.084  11.166 -11.407  1.00  0.00    -0.084 SA
HETATM   14  C14 UNL     1      18.799  10.902 -11.290  1.00  0.00     0.044 A 
HETATM   15  C15 UNL     1      19.988  11.583 -11.888  1.00  0.00     0.129 C 
HETATM   16 BR1  UNL     1      20.356  13.130 -10.791  1.00  0.00    -0.084 Br
HETATM   17  C16 UNL     1      22.372  11.410 -12.259  1.00  0.00     0.279 C 
HETATM   18  O2  UNL     1      22.883  12.088 -11.340  1.00  0.00    -0.264 OA
HETATM   19  O3  UNL     1      23.001  11.399 -13.497  1.00  0.00    -0.314 OA
ENDROOT
BRANCH   1  20
HETATM   20  C5  UNL     1      23.361  10.671 -15.701  1.00  0.00     0.039 C 
HETATM   21  C6  UNL     1      22.414  10.479 -16.863  1.00  0.00     0.017 C 
BRANCH  20  22
HETATM   22  C2  UNL     1      24.659   9.967 -15.934  1.00  0.00    -0.081 C 
HETATM   23  C1  UNL     1      25.203   9.862 -17.133  1.00  0.00     0.015 C 
BRANCH  22  24
HETATM   24  C3  UNL     1      25.382   9.356 -14.786  1.00  0.00     0.055 C 
BRANCH  24  25
HETATM   25  C4  UNL     1      26.509  10.172 -14.270  1.00  0.00     0.145 C 
BRANCH  25  26
HETATM   26  N1  UNL     1      26.090  10.694 -12.960  1.00  0.00    -0.322 N 
ATOM     27  H1  UNL     1      26.117  10.114 -12.122  1.00  0.00     0.181 HD
BRANCH  26  28
HETATM   28  N2  UNL     1      25.706  11.856 -12.923  1.00  0.00    -0.254 N 
HETATM   29  N3  UNL     1      25.435  13.005 -13.307  1.00  0.00    -0.331 N 
ATOM     30  H32 UNL     1      25.721  12.883 -14.278  1.00  0.00     0.178 HD
ATOM     31  H31 UNL     1      25.115  13.973 -13.276  1.00  0.00     0.178 HD
ATOM     32  H2  UNL     1      25.434  11.924 -11.942  1.00  0.00     0.207 HD
ENDBRANCH  26  28
ENDBRANCH  25  26
ENDBRANCH  24  25
ENDBRANCH  22  24
ENDBRANCH  20  22
ENDBRANCH   1  20
TORSDOF 6
ENDMDL
