MODEL 1
REMARK VINA RESULT: -8.352205735      0.000      0.000
REMARK  6 active torsions:
REMARK  status: ('A' for Active; 'I' for Inactive)
REMARK    1  A    between atoms: O1_2  and  N1_3 
REMARK    2  A    between atoms: C16_20  and  O3_21 
REMARK    3  A    between atoms: O3_21  and  C17_22 
REMARK    4  A    between atoms: C17_22  and  C18_24 
REMARK    5  A    between atoms: C18_24  and  C19_25 
REMARK    6  A    between atoms: C19_25  and  C20_26 
ROOT
HETATM    1  N1  UNL     1      -9.294  -6.115  -1.780  1.00  0.00    -0.275 N 
ATOM      2  H1  UNL     1      -9.511  -5.891  -2.751  1.00  0.00     0.193 HD
HETATM    3  C2  UNL     1     -10.213  -6.077  -0.902  1.00  0.00     0.015 C 
HETATM    4  C3  UNL     1     -10.082  -6.370   0.554  1.00  0.00     0.065 C 
HETATM    5  C4  UNL     1     -11.198  -7.395   0.665  1.00  0.00     0.030 C 
HETATM    6  C5  UNL     1     -11.625  -7.687   2.045  1.00  0.00    -0.062 C 
HETATM    7  C6  UNL     1     -11.874  -8.925   2.465  1.00  0.00    -0.015 C 
HETATM    8  C7  UNL     1     -12.290  -8.986   3.874  1.00  0.00     0.107 C 
HETATM    9  C8  UNL     1     -12.703  -7.607   4.158  1.00  0.00     0.142 C 
HETATM   10  O2  UNL     1     -13.480  -7.159   4.932  1.00  0.00    -0.296 OA
HETATM   11  C9  UNL     1     -11.870  -6.802   3.185  1.00  0.00     0.041 C 
HETATM   12  C10 UNL     1     -10.691  -6.342   3.956  1.00  0.00     0.028 C 
HETATM   13  C11 UNL     1     -12.787  -5.701   2.690  1.00  0.00     0.022 C 
HETATM   14  C12 UNL     1     -13.801  -6.323   1.813  1.00  0.00     0.007 C 
HETATM   15  C13 UNL     1     -13.584  -6.603   0.406  1.00  0.00    -0.005 C 
HETATM   16  C14 UNL     1     -14.357  -5.623  -0.501  1.00  0.00     0.008 C 
HETATM   17  C15 UNL     1     -14.207  -4.219  -0.085  1.00  0.00     0.033 C 
HETATM   18  C16 UNL     1     -13.066  -3.624  -0.935  1.00  0.00     0.132 C 
HETATM   19  C21 UNL     1     -11.782  -4.314  -0.699  1.00  0.00     0.044 C 
HETATM   20  C22 UNL     1     -11.675  -5.734  -1.036  1.00  0.00     0.045 C 
HETATM   21  C23 UNL     1     -12.274  -6.803  -0.212  1.00  0.00    -0.024 C 
HETATM   22  C24 UNL     1     -12.479  -7.926  -1.287  1.00  0.00     0.017 C 
ENDROOT
BRANCH  18  23
HETATM   23  O3  UNL     1     -13.553  -3.616  -2.238  1.00  0.00    -0.316 OA
BRANCH  23  24
HETATM   24  C17 UNL     1     -14.186  -2.549  -2.852  1.00  0.00     0.259 C 
HETATM   25  O4  UNL     1     -15.357  -2.321  -2.468  1.00  0.00    -0.265 OA
BRANCH  24  26
HETATM   26  C18 UNL     1     -13.589  -1.701  -3.889  1.00  0.00     0.121 C 
BRANCH  26  27
HETATM   27  C19 UNL     1     -12.485  -2.351  -4.679  1.00  0.00     0.123 C 
BRANCH  27  28
HETATM   28  C20 UNL     1     -12.994  -3.258  -5.729  1.00  0.00     0.172 C 
HETATM   29  O5  UNL     1     -12.249  -3.862  -6.524  1.00  0.00    -0.648 OA
HETATM   30  O6  UNL     1     -14.368  -3.446  -5.839  1.00  0.00    -0.648 OA
ENDBRANCH  27  28
ENDBRANCH  26  27
ENDBRANCH  24  26
ENDBRANCH  23  24
ENDBRANCH  18  23
BRANCH   1  31
HETATM   31  O1  UNL     1      -8.030  -6.450  -1.434  1.00  0.00    -0.285 OA
HETATM   32  C1  UNL     1      -7.402  -7.664  -1.748  1.00  0.00     0.237 C 
ENDBRANCH   1  31
TORSDOF 6
ENDMDL
MODEL 2
REMARK VINA RESULT: -7.855291697      2.887      5.502
REMARK  6 active torsions:
REMARK  status: ('A' for Active; 'I' for Inactive)
REMARK    1  A    between atoms: O1_2  and  N1_3 
REMARK    2  A    between atoms: C16_20  and  O3_21 
REMARK    3  A    between atoms: O3_21  and  C17_22 
REMARK    4  A    between atoms: C17_22  and  C18_24 
REMARK    5  A    between atoms: C18_24  and  C19_25 
REMARK    6  A    between atoms: C19_25  and  C20_26 
ROOT
HETATM    1  N1  UNL     1     -14.139  -6.324   6.053  1.00  0.00    -0.275 N 
ATOM      2  H1  UNL     1     -14.332  -5.352   5.808  1.00  0.00     0.193 HD
HETATM    3  C2  UNL     1     -13.468  -7.054   5.258  1.00  0.00     0.015 C 
HETATM    4  C3  UNL     1     -13.092  -8.485   5.447  1.00  0.00     0.065 C 
HETATM    5  C4  UNL     1     -11.597  -8.345   5.217  1.00  0.00     0.030 C 
HETATM    6  C5  UNL     1     -10.893  -9.617   4.978  1.00  0.00    -0.062 C 
HETATM    7  C6  UNL     1      -9.716  -9.892   5.534  1.00  0.00    -0.015 C 
HETATM    8  C7  UNL     1      -9.193 -11.214   5.156  1.00  0.00     0.107 C 
HETATM    9  C8  UNL     1      -9.963 -11.544   3.952  1.00  0.00     0.142 C 
HETATM   10  O2  UNL     1      -9.713 -12.227   3.018  1.00  0.00    -0.296 OA
HETATM   11  C9  UNL     1     -11.250 -10.776   4.158  1.00  0.00     0.041 C 
HETATM   12  C10 UNL     1     -12.208 -11.749   4.733  1.00  0.00     0.028 C 
HETATM   13  C11 UNL     1     -11.618 -10.240   2.788  1.00  0.00     0.022 C 
HETATM   14  C12 UNL     1     -10.652  -9.174   2.449  1.00  0.00     0.007 C 
HETATM   15  C13 UNL     1     -10.789  -7.797   2.887  1.00  0.00    -0.005 C 
HETATM   16  C14 UNL     1     -11.216  -6.868   1.731  1.00  0.00     0.008 C 
HETATM   17  C15 UNL     1     -12.331  -7.414   0.940  1.00  0.00     0.033 C 
HETATM   18  C16 UNL     1     -13.624  -6.795   1.507  1.00  0.00     0.132 C 
HETATM   19  C21 UNL     1     -13.839  -7.164   2.921  1.00  0.00     0.044 C 
HETATM   20  C22 UNL     1     -12.858  -6.732   3.917  1.00  0.00     0.045 C 
HETATM   21  C23 UNL     1     -11.534  -7.367   4.069  1.00  0.00    -0.024 C 
HETATM   22  C24 UNL     1     -10.707  -6.186   4.685  1.00  0.00     0.017 C 
ENDROOT
BRANCH  18  23
HETATM   23  O3  UNL     1     -13.536  -5.439   1.210  1.00  0.00    -0.316 OA
BRANCH  23  24
HETATM   24  C17 UNL     1     -13.985  -4.841   0.045  1.00  0.00     0.259 C 
HETATM   25  O4  UNL     1     -15.218  -4.921  -0.163  1.00  0.00    -0.265 OA
BRANCH  24  26
HETATM   26  C18 UNL     1     -13.133  -4.145  -0.925  1.00  0.00     0.121 C 
BRANCH  26  27
HETATM   27  C19 UNL     1     -13.545  -2.731  -1.229  1.00  0.00     0.123 C 
BRANCH  27  28
HETATM   28  C20 UNL     1     -14.064  -2.573  -2.604  1.00  0.00     0.172 C 
HETATM   29  O5  UNL     1     -13.342  -2.663  -3.616  1.00  0.00    -0.648 OA
HETATM   30  O6  UNL     1     -15.419  -2.311  -2.780  1.00  0.00    -0.648 OA
ENDBRANCH  27  28
ENDBRANCH  26  27
ENDBRANCH  24  26
ENDBRANCH  23  24
ENDBRANCH  18  23
BRANCH   1  31
HETATM   31  O1  UNL     1     -14.600  -6.826   7.221  1.00  0.00    -0.285 OA
HETATM   32  C1  UNL     1     -13.895  -6.828   8.433  1.00  0.00     0.237 C 
ENDBRANCH   1  31
TORSDOF 6
ENDMDL
MODEL 3
REMARK VINA RESULT: -7.776553254      3.615      6.282
REMARK  6 active torsions:
REMARK  status: ('A' for Active; 'I' for Inactive)
REMARK    1  A    between atoms: O1_2  and  N1_3 
REMARK    2  A    between atoms: C16_20  and  O3_21 
REMARK    3  A    between atoms: O3_21  and  C17_22 
REMARK    4  A    between atoms: C17_22  and  C18_24 
REMARK    5  A    between atoms: C18_24  and  C19_25 
REMARK    6  A    between atoms: C19_25  and  C20_26 
ROOT
HETATM    1  N1  UNL     1     -11.470  -5.311   6.631  1.00  0.00    -0.275 N 
ATOM      2  H1  UNL     1     -12.073  -4.564   6.284  1.00  0.00     0.193 HD
HETATM    3  C2  UNL     1     -10.743  -5.965   5.818  1.00  0.00     0.015 C 
HETATM    4  C3  UNL     1      -9.808  -7.080   6.141  1.00  0.00     0.065 C 
HETATM    5  C4  UNL     1      -8.567  -6.520   5.467  1.00  0.00     0.030 C 
HETATM    6  C5  UNL     1      -7.486  -7.500   5.264  1.00  0.00    -0.062 C 
HETATM    7  C6  UNL     1      -6.209  -7.207   5.494  1.00  0.00    -0.015 C 
HETATM    8  C7  UNL     1      -5.299  -8.330   5.222  1.00  0.00     0.107 C 
HETATM    9  C8  UNL     1      -6.105  -9.211   4.371  1.00  0.00     0.142 C 
HETATM   10  O2  UNL     1      -5.803  -9.999   3.540  1.00  0.00    -0.296 OA
HETATM   11  C9  UNL     1      -7.519  -8.888   4.801  1.00  0.00     0.041 C 
HETATM   12  C10 UNL     1      -7.882  -9.928   5.791  1.00  0.00     0.028 C 
HETATM   13  C11 UNL     1      -8.336  -8.900   3.524  1.00  0.00     0.022 C 
HETATM   14  C12 UNL     1      -7.955  -7.709   2.736  1.00  0.00     0.007 C 
HETATM   15  C13 UNL     1      -8.528  -6.391   2.944  1.00  0.00    -0.005 C 
HETATM   16  C14 UNL     1      -9.509  -6.008   1.816  1.00  0.00     0.008 C 
HETATM   17  C15 UNL     1     -10.456  -7.087   1.490  1.00  0.00     0.033 C 
HETATM   18  C16 UNL     1     -11.744  -6.803   2.289  1.00  0.00     0.132 C 
HETATM   19  C21 UNL     1     -11.507  -6.823   3.747  1.00  0.00     0.044 C 
HETATM   20  C22 UNL     1     -10.593  -5.836   4.323  1.00  0.00     0.045 C 
HETATM   21  C23 UNL     1      -9.125  -5.928   4.195  1.00  0.00    -0.024 C 
HETATM   22  C24 UNL     1      -8.720  -4.420   4.327  1.00  0.00     0.017 C 
ENDROOT
BRANCH  18  23
HETATM   23  O3  UNL     1     -12.256  -5.630   1.744  1.00  0.00    -0.316 OA
BRANCH  23  24
HETATM   24  C17 UNL     1     -13.248  -5.558   0.781  1.00  0.00     0.259 C 
HETATM   25  O4  UNL     1     -14.355  -6.046   1.108  1.00  0.00    -0.265 OA
BRANCH  24  26
HETATM   26  C18 UNL     1     -13.085  -4.965  -0.550  1.00  0.00     0.121 C 
BRANCH  26  27
HETATM   27  C19 UNL     1     -13.523  -3.530  -0.662  1.00  0.00     0.123 C 
BRANCH  27  28
HETATM   28  C20 UNL     1     -14.820  -3.383  -1.355  1.00  0.00     0.172 C 
HETATM   29  O5  UNL     1     -14.930  -2.883  -2.491  1.00  0.00    -0.648 OA
HETATM   30  O6  UNL     1     -15.973  -3.822  -0.712  1.00  0.00    -0.648 OA
ENDBRANCH  27  28
ENDBRANCH  26  27
ENDBRANCH  24  26
ENDBRANCH  23  24
ENDBRANCH  18  23
BRANCH   1  31
HETATM   31  O1  UNL     1     -11.451  -5.599   7.952  1.00  0.00    -0.285 OA
HETATM   32  C1  UNL     1     -12.576  -5.628   8.789  1.00  0.00     0.237 C 
ENDBRANCH   1  31
TORSDOF 6
ENDMDL
MODEL 4
REMARK VINA RESULT: -7.618742819      2.332      4.094
REMARK  6 active torsions:
REMARK  status: ('A' for Active; 'I' for Inactive)
REMARK    1  A    between atoms: O1_2  and  N1_3 
REMARK    2  A    between atoms: C16_20  and  O3_21 
REMARK    3  A    between atoms: O3_21  and  C17_22 
REMARK    4  A    between atoms: C17_22  and  C18_24 
REMARK    5  A    between atoms: C18_24  and  C19_25 
REMARK    6  A    between atoms: C19_25  and  C20_26 
ROOT
HETATM    1  N1  UNL     1      -8.909  -6.947  -0.227  1.00  0.00    -0.275 N 
ATOM      2  H1  UNL     1      -9.551  -7.323  -0.926  1.00  0.00     0.193 HD
HETATM    3  C2  UNL     1      -9.299  -6.798   0.974  1.00  0.00     0.015 C 
HETATM    4  C3  UNL     1      -8.507  -6.269   2.121  1.00  0.00     0.065 C 
HETATM    5  C4  UNL     1      -8.741  -7.415   3.089  1.00  0.00     0.030 C 
HETATM    6  C5  UNL     1      -8.397  -7.113   4.489  1.00  0.00    -0.062 C 
HETATM    7  C6  UNL     1      -7.751  -7.981   5.265  1.00  0.00    -0.015 C 
HETATM    8  C7  UNL     1      -7.514  -7.476   6.625  1.00  0.00     0.107 C 
HETATM    9  C8  UNL     1      -8.477  -6.375   6.744  1.00  0.00     0.142 C 
HETATM   10  O2  UNL     1      -9.023  -5.902   7.682  1.00  0.00    -0.296 OA
HETATM   11  C9  UNL     1      -8.649  -5.927   5.309  1.00  0.00     0.041 C 
HETATM   12  C10 UNL     1      -7.734  -4.774   5.140  1.00  0.00     0.028 C 
HETATM   13  C11 UNL     1     -10.124  -5.607   5.166  1.00  0.00     0.022 C 
HETATM   14  C12 UNL     1     -10.866  -6.884   5.199  1.00  0.00     0.007 C 
HETATM   15  C13 UNL     1     -11.064  -7.729   4.035  1.00  0.00    -0.005 C 
HETATM   16  C14 UNL     1     -12.515  -7.659   3.516  1.00  0.00     0.008 C 
HETATM   17  C15 UNL     1     -13.021  -6.280   3.414  1.00  0.00     0.033 C 
HETATM   18  C16 UNL     1     -12.802  -5.833   1.954  1.00  0.00     0.132 C 
HETATM   19  C21 UNL     1     -11.371  -5.828   1.586  1.00  0.00     0.044 C 
HETATM   20  C22 UNL     1     -10.635  -7.092   1.609  1.00  0.00     0.045 C 
HETATM   21  C23 UNL     1     -10.196  -7.745   2.858  1.00  0.00    -0.024 C 
HETATM   22  C24 UNL     1     -10.127  -9.243   2.402  1.00  0.00     0.017 C 
ENDROOT
BRANCH  18  23
HETATM   23  O3  UNL     1     -13.649  -6.638   1.199  1.00  0.00    -0.316 OA
BRANCH  23  24
HETATM   24  C17 UNL     1     -14.072  -6.370  -0.091  1.00  0.00     0.259 C 
HETATM   25  O4  UNL     1     -13.827  -7.262  -0.936  1.00  0.00    -0.265 OA
BRANCH  24  26
HETATM   26  C18 UNL     1     -14.763  -5.146  -0.512  1.00  0.00     0.121 C 
BRANCH  26  27
HETATM   27  C19 UNL     1     -13.856  -4.012  -0.909  1.00  0.00     0.123 C 
BRANCH  27  28
HETATM   28  C20 UNL     1     -14.507  -3.061  -1.835  1.00  0.00     0.172 C 
HETATM   29  O5  UNL     1     -13.873  -2.218  -2.497  1.00  0.00    -0.648 OA
HETATM   30  O6  UNL     1     -15.890  -3.106  -1.974  1.00  0.00    -0.648 OA
ENDBRANCH  27  28
ENDBRANCH  26  27
ENDBRANCH  24  26
ENDBRANCH  23  24
ENDBRANCH  18  23
BRANCH   1  31
HETATM   31  O1  UNL     1      -7.649  -6.611  -0.585  1.00  0.00    -0.285 OA
HETATM   32  C1  UNL     1      -7.030  -6.966  -1.792  1.00  0.00     0.237 C 
ENDBRANCH   1  31
TORSDOF 6
ENDMDL
MODEL 5
REMARK VINA RESULT: -7.541112329      3.122      5.710
REMARK  6 active torsions:
REMARK  status: ('A' for Active; 'I' for Inactive)
REMARK    1  A    between atoms: O1_2  and  N1_3 
REMARK    2  A    between atoms: C16_20  and  O3_21 
REMARK    3  A    between atoms: O3_21  and  C17_22 
REMARK    4  A    between atoms: C17_22  and  C18_24 
REMARK    5  A    between atoms: C18_24  and  C19_25 
REMARK    6  A    between atoms: C19_25  and  C20_26 
ROOT
HETATM    1  N1  UNL     1     -13.424  -6.812   4.427  1.00  0.00    -0.275 N 
ATOM      2  H1  UNL     1     -13.821  -5.971   4.006  1.00  0.00     0.193 HD
HETATM    3  C2  UNL     1     -12.226  -7.146   4.161  1.00  0.00     0.015 C 
HETATM    4  C3  UNL     1     -11.485  -8.332   4.680  1.00  0.00     0.065 C 
HETATM    5  C4  UNL     1     -10.260  -7.604   5.205  1.00  0.00     0.030 C 
HETATM    6  C5  UNL     1      -9.109  -8.475   5.498  1.00  0.00    -0.062 C 
HETATM    7  C6  UNL     1      -8.365  -8.327   6.592  1.00  0.00    -0.015 C 
HETATM    8  C7  UNL     1      -7.268  -9.301   6.682  1.00  0.00     0.107 C 
HETATM    9  C8  UNL     1      -7.140  -9.786   5.303  1.00  0.00     0.142 C 
HETATM   10  O2  UNL     1      -6.218 -10.226   4.703  1.00  0.00    -0.296 OA
HETATM   11  C9  UNL     1      -8.536  -9.598   4.753  1.00  0.00     0.041 C 
HETATM   12  C10 UNL     1      -9.199 -10.915   4.889  1.00  0.00     0.028 C 
HETATM   13  C11 UNL     1      -8.341  -9.117   3.328  1.00  0.00     0.022 C 
HETATM   14  C12 UNL     1      -7.826  -7.733   3.388  1.00  0.00     0.007 C 
HETATM   15  C13 UNL     1      -8.674  -6.565   3.534  1.00  0.00    -0.005 C 
HETATM   16  C14 UNL     1      -8.782  -5.767   2.218  1.00  0.00     0.008 C 
HETATM   17  C15 UNL     1      -9.047  -6.622   1.049  1.00  0.00     0.033 C 
HETATM   18  C16 UNL     1     -10.572  -6.609   0.825  1.00  0.00     0.132 C 
HETATM   19  C21 UNL     1     -11.306  -7.166   1.979  1.00  0.00     0.044 C 
HETATM   20  C22 UNL     1     -11.204  -6.486   3.271  1.00  0.00     0.045 C 
HETATM   21  C23 UNL     1     -10.008  -6.572   4.132  1.00  0.00    -0.024 C 
HETATM   22  C24 UNL     1     -10.122  -5.229   4.932  1.00  0.00     0.017 C 
ENDROOT
BRANCH  18  23
HETATM   23  O3  UNL     1     -10.871  -5.302   0.452  1.00  0.00    -0.316 OA
BRANCH  23  24
HETATM   24  C17 UNL     1     -11.083  -4.865  -0.844  1.00  0.00     0.259 C 
HETATM   25  O4  UNL     1     -10.840  -5.704  -1.744  1.00  0.00    -0.265 OA
BRANCH  24  26
HETATM   26  C18 UNL     1     -11.556  -3.527  -1.213  1.00  0.00     0.121 C 
BRANCH  26  27
HETATM   27  C19 UNL     1     -12.999  -3.254  -0.884  1.00  0.00     0.123 C 
BRANCH  27  28
HETATM   28  C20 UNL     1     -13.821  -3.011  -2.088  1.00  0.00     0.172 C 
HETATM   29  O5  UNL     1     -13.334  -2.679  -3.186  1.00  0.00    -0.648 OA
HETATM   30  O6  UNL     1     -15.201  -3.156  -1.995  1.00  0.00    -0.648 OA
ENDBRANCH  27  28
ENDBRANCH  26  27
ENDBRANCH  24  26
ENDBRANCH  23  24
ENDBRANCH  18  23
BRANCH   1  31
HETATM   31  O1  UNL     1     -14.175  -7.563   5.264  1.00  0.00    -0.285 OA
HETATM   32  C1  UNL     1     -14.565  -7.186   6.557  1.00  0.00     0.237 C 
ENDBRANCH   1  31
TORSDOF 6
ENDMDL
