MODEL 1
REMARK VINA RESULT: -6.200973427      0.000      0.000
REMARK  7 active torsions:
REMARK  status: ('A' for Active; 'I' for Inactive)
REMARK    1  A    between atoms: C3_3  and  C5_5 
REMARK    2  A    between atoms: C5_5  and  O2_7 
REMARK    3  A    between atoms: O2_7  and  C6_8 
REMARK    4  A    between atoms: C17_19  and  O3_20 
REMARK    5  A    between atoms: O3_20  and  C18_21 
REMARK    6  A    between atoms: C20_24  and  O5_25 
REMARK    7  A    between atoms: C20_24  and  C21_27 
ROOT
HETATM    1  C21 UNL     1     -12.831  -7.697   4.507  1.00  0.00     0.057 C 
HETATM    2  C22 UNL     1     -14.035  -8.437   4.793  1.00  0.00     0.098 C 
HETATM    3  N1  UNL     1     -15.025  -9.021   5.036  1.00  0.00    -0.192 NA
HETATM    4  C23 UNL     1     -12.688  -6.584   5.251  1.00  0.00    -0.010 C 
HETATM    5  C24 UNL     1     -13.636  -6.131   6.261  1.00  0.00     0.037 C 
ENDROOT
BRANCH   1   6
HETATM    6  C20 UNL     1     -11.850  -8.107   3.507  1.00  0.00     0.148 C 
HETATM    7  C6  UNL     1     -11.839  -7.290   2.235  1.00  0.00     0.175 C 
HETATM    8  C7  UNL     1     -10.986  -6.072   2.272  1.00  0.00     0.050 C 
HETATM    9  C8  UNL     1      -9.537  -6.308   1.948  1.00  0.00    -0.014 C 
HETATM   10  C9  UNL     1      -8.710  -5.427   2.906  1.00  0.00     0.020 C 
HETATM   11  C10 UNL     1      -9.085  -7.684   2.132  1.00  0.00    -0.069 C 
HETATM   12  C13 UNL     1      -9.129  -5.911   0.581  1.00  0.00    -0.003 C 
HETATM   13  C11 UNL     1      -8.128  -7.946   1.254  1.00  0.00    -0.022 C 
HETATM   14  C15 UNL     1      -9.479  -8.776   3.075  1.00  0.00     0.044 C 
HETATM   15  C12 UNL     1      -7.861  -6.765   0.408  1.00  0.00     0.032 C 
HETATM   16  C16 UNL     1      -8.274  -9.282   3.842  1.00  0.00     0.017 C 
HETATM   17  C17 UNL     1     -10.470  -8.269   4.106  1.00  0.00     0.182 C 
HETATM   18  C14 UNL     1     -10.025  -6.225  -0.542  1.00  0.00     0.011 C 
BRANCH   7  19
HETATM   19  O2  UNL     1     -13.141  -7.083   1.780  1.00  0.00    -0.309 OA
BRANCH  19  20
HETATM   20  C5  UNL     1     -13.539  -6.004   1.037  1.00  0.00     0.289 C 
HETATM   21  O1  UNL     1     -13.834  -4.967   1.731  1.00  0.00    -0.260 OA
BRANCH  20  22
HETATM   22  C3  UNL     1     -13.630  -6.003  -0.398  1.00  0.00     0.009 C 
HETATM   23  C2  UNL     1     -13.462  -4.942  -1.136  1.00  0.00    -0.018 C 
HETATM   24  C1  UNL     1     -13.154  -3.611  -0.562  1.00  0.00     0.036 C 
HETATM   25  C4  UNL     1     -13.941  -7.306  -1.083  1.00  0.00     0.054 C 
ENDBRANCH  20  22
ENDBRANCH  19  20
ENDBRANCH   7  19
BRANCH  17  26
HETATM   26  O3  UNL     1     -10.564  -9.322   5.071  1.00  0.00    -0.312 OA
BRANCH  26  27
HETATM   27  C18 UNL     1     -10.544  -9.124   6.421  1.00  0.00     0.255 C 
HETATM   28  C19 UNL     1     -11.464  -9.936   7.260  1.00  0.00     0.126 C 
HETATM   29  O4  UNL     1      -9.749  -8.267   6.886  1.00  0.00    -0.266 OA
ENDBRANCH  26  27
ENDBRANCH  17  26
BRANCH   6  30
HETATM   30  O5  UNL     1     -12.238  -9.409   3.085  1.00  0.00    -0.379 OA
ATOM     31  H5  UNL     1     -12.123  -9.949   3.857  1.00  0.00     0.211 HD
ENDBRANCH   6  30
ENDBRANCH   1   6
TORSDOF 7
ENDMDL
MODEL 2
REMARK VINA RESULT: -6.184562111      1.903      3.265
REMARK  7 active torsions:
REMARK  status: ('A' for Active; 'I' for Inactive)
REMARK    1  A    between atoms: C3_3  and  C5_5 
REMARK    2  A    between atoms: C5_5  and  O2_7 
REMARK    3  A    between atoms: O2_7  and  C6_8 
REMARK    4  A    between atoms: C17_19  and  O3_20 
REMARK    5  A    between atoms: O3_20  and  C18_21 
REMARK    6  A    between atoms: C20_24  and  O5_25 
REMARK    7  A    between atoms: C20_24  and  C21_27 
ROOT
HETATM    1  C21 UNL     1     -13.121  -8.072   4.648  1.00  0.00     0.057 C 
HETATM    2  C22 UNL     1     -13.817  -7.285   5.635  1.00  0.00     0.098 C 
HETATM    3  N1  UNL     1     -14.403  -6.658   6.437  1.00  0.00    -0.192 NA
HETATM    4  C23 UNL     1     -13.932  -8.836   3.892  1.00  0.00    -0.010 C 
HETATM    5  C24 UNL     1     -15.382  -8.894   4.024  1.00  0.00     0.037 C 
ENDROOT
BRANCH   1   6
HETATM    6  C20 UNL     1     -11.672  -8.050   4.474  1.00  0.00     0.148 C 
HETATM    7  C6  UNL     1     -11.102  -6.759   3.930  1.00  0.00     0.175 C 
HETATM    8  C7  UNL     1     -10.788  -5.725   4.951  1.00  0.00     0.050 C 
HETATM    9  C8  UNL     1      -9.437  -5.867   5.595  1.00  0.00    -0.014 C 
HETATM   10  C9  UNL     1      -9.613  -5.538   7.092  1.00  0.00     0.020 C 
HETATM   11  C10 UNL     1      -8.858  -7.205   5.515  1.00  0.00    -0.069 C 
HETATM   12  C13 UNL     1      -8.405  -4.931   5.095  1.00  0.00    -0.003 C 
HETATM   13  C11 UNL     1      -7.539  -7.102   5.460  1.00  0.00    -0.022 C 
HETATM   14  C15 UNL     1      -9.449  -8.579   5.491  1.00  0.00     0.044 C 
HETATM   15  C12 UNL     1      -7.125  -5.685   5.499  1.00  0.00     0.032 C 
HETATM   16  C16 UNL     1      -8.872  -9.430   6.605  1.00  0.00     0.017 C 
HETATM   17  C17 UNL     1     -10.948  -8.527   5.714  1.00  0.00     0.182 C 
HETATM   18  C14 UNL     1      -8.324  -4.676   3.649  1.00  0.00     0.011 C 
BRANCH   7  19
HETATM   19  O2  UNL     1     -11.865  -6.309   2.852  1.00  0.00    -0.309 OA
BRANCH  19  20
HETATM   20  C5  UNL     1     -11.653  -6.672   1.549  1.00  0.00     0.289 C 
HETATM   21  O1  UNL     1     -12.400  -7.632   1.142  1.00  0.00    -0.260 OA
BRANCH  20  22
HETATM   22  C3  UNL     1     -10.686  -6.051   0.686  1.00  0.00     0.009 C 
HETATM   23  C2  UNL     1      -9.433  -6.403   0.626  1.00  0.00    -0.018 C 
HETATM   24  C1  UNL     1      -8.872  -7.498   1.453  1.00  0.00     0.036 C 
HETATM   25  C4  UNL     1     -11.152  -4.925  -0.197  1.00  0.00     0.054 C 
ENDBRANCH  20  22
ENDBRANCH  19  20
ENDBRANCH   7  19
BRANCH  17  26
HETATM   26  O3  UNL     1     -11.335  -9.890   5.915  1.00  0.00    -0.312 OA
BRANCH  26  27
HETATM   27  C18 UNL     1     -12.199 -10.303   6.888  1.00  0.00     0.255 C 
HETATM   28  C19 UNL     1     -13.132 -11.415   6.567  1.00  0.00     0.126 C 
HETATM   29  O4  UNL     1     -12.161  -9.724   8.004  1.00  0.00    -0.266 OA
ENDBRANCH  26  27
ENDBRANCH  17  26
BRANCH   6  30
HETATM   30  O5  UNL     1     -11.381  -9.013   3.469  1.00  0.00    -0.379 OA
ATOM     31  H5  UNL     1     -12.079  -9.651   3.547  1.00  0.00     0.211 HD
ENDBRANCH   6  30
ENDBRANCH   1   6
TORSDOF 7
ENDMDL
MODEL 3
REMARK VINA RESULT: -6.156055063      1.976      3.012
REMARK  7 active torsions:
REMARK  status: ('A' for Active; 'I' for Inactive)
REMARK    1  A    between atoms: C3_3  and  C5_5 
REMARK    2  A    between atoms: C5_5  and  O2_7 
REMARK    3  A    between atoms: O2_7  and  C6_8 
REMARK    4  A    between atoms: C17_19  and  O3_20 
REMARK    5  A    between atoms: O3_20  and  C18_21 
REMARK    6  A    between atoms: C20_24  and  O5_25 
REMARK    7  A    between atoms: C20_24  and  C21_27 
ROOT
HETATM    1  C21 UNL     1     -13.102  -8.074   4.508  1.00  0.00     0.057 C 
HETATM    2  C22 UNL     1     -13.796  -7.335   5.533  1.00  0.00     0.098 C 
HETATM    3  N1  UNL     1     -14.380  -6.746   6.364  1.00  0.00    -0.192 NA
HETATM    4  C23 UNL     1     -13.914  -8.800   3.717  1.00  0.00    -0.010 C 
HETATM    5  C24 UNL     1     -15.364  -8.862   3.848  1.00  0.00     0.037 C 
ENDROOT
BRANCH   1   6
HETATM    6  C20 UNL     1     -11.653  -8.045   4.333  1.00  0.00     0.148 C 
HETATM    7  C6  UNL     1     -11.081  -6.725   3.865  1.00  0.00     0.175 C 
HETATM    8  C7  UNL     1     -10.763  -5.754   4.945  1.00  0.00     0.050 C 
HETATM    9  C8  UNL     1      -9.411  -5.937   5.577  1.00  0.00    -0.014 C 
HETATM   10  C9  UNL     1      -9.585  -5.695   7.091  1.00  0.00     0.020 C 
HETATM   11  C10 UNL     1      -8.835  -7.269   5.418  1.00  0.00    -0.069 C 
HETATM   12  C13 UNL     1      -8.377  -4.976   5.131  1.00  0.00    -0.003 C 
HETATM   13  C11 UNL     1      -7.516  -7.166   5.367  1.00  0.00    -0.022 C 
HETATM   14  C15 UNL     1      -9.430  -8.638   5.314  1.00  0.00     0.044 C 
HETATM   15  C12 UNL     1      -7.099  -5.755   5.488  1.00  0.00     0.032 C 
HETATM   16  C16 UNL     1      -8.854  -9.554   6.375  1.00  0.00     0.017 C 
HETATM   17  C17 UNL     1     -10.929  -8.595   5.542  1.00  0.00     0.182 C 
HETATM   18  C14 UNL     1      -8.298  -4.636   3.703  1.00  0.00     0.011 C 
BRANCH   7  19
HETATM   19  O2  UNL     1     -11.844  -6.211   2.817  1.00  0.00    -0.309 OA
BRANCH  19  20
HETATM   20  C5  UNL     1     -11.486  -6.271   1.497  1.00  0.00     0.289 C 
HETATM   21  O1  UNL     1     -10.460  -7.004   1.262  1.00  0.00    -0.260 OA
BRANCH  20  22
HETATM   22  C3  UNL     1     -12.179  -5.585   0.441  1.00  0.00     0.009 C 
HETATM   23  C2  UNL     1     -13.451  -5.726   0.193  1.00  0.00    -0.018 C 
HETATM   24  C1  UNL     1     -14.323  -6.623   0.988  1.00  0.00     0.036 C 
HETATM   25  C4  UNL     1     -11.385  -4.649  -0.428  1.00  0.00     0.054 C 
ENDBRANCH  20  22
ENDBRANCH  19  20
ENDBRANCH   7  19
BRANCH  17  26
HETATM   26  O3  UNL     1     -11.319  -9.967   5.663  1.00  0.00    -0.312 OA
BRANCH  26  27
HETATM   27  C18 UNL     1     -12.179 -10.436   6.614  1.00  0.00     0.255 C 
HETATM   28  C19 UNL     1     -13.120 -11.521   6.231  1.00  0.00     0.126 C 
HETATM   29  O4  UNL     1     -12.131  -9.927   7.764  1.00  0.00    -0.266 OA
ENDBRANCH  26  27
ENDBRANCH  17  26
BRANCH   6  30
HETATM   30  O5  UNL     1     -11.366  -8.948   3.273  1.00  0.00    -0.379 OA
ATOM     31  H5  UNL     1     -10.632  -9.459   3.594  1.00  0.00     0.211 HD
ENDBRANCH   6  30
ENDBRANCH   1   6
TORSDOF 7
ENDMDL
MODEL 4
REMARK VINA RESULT: -6.134787415      3.096      5.526
REMARK  7 active torsions:
REMARK  status: ('A' for Active; 'I' for Inactive)
REMARK    1  A    between atoms: C3_3  and  C5_5 
REMARK    2  A    between atoms: C5_5  and  O2_7 
REMARK    3  A    between atoms: O2_7  and  C6_8 
REMARK    4  A    between atoms: C17_19  and  O3_20 
REMARK    5  A    between atoms: O3_20  and  C18_21 
REMARK    6  A    between atoms: C20_24  and  O5_25 
REMARK    7  A    between atoms: C20_24  and  C21_27 
ROOT
HETATM    1  C21 UNL     1      -8.872  -6.291   6.865  1.00  0.00     0.057 C 
HETATM    2  C22 UNL     1      -7.962  -5.177   6.966  1.00  0.00     0.098 C 
HETATM    3  N1  UNL     1      -7.204  -4.285   7.057  1.00  0.00    -0.192 NA
HETATM    4  C23 UNL     1      -8.496  -7.367   7.582  1.00  0.00    -0.010 C 
HETATM    5  C24 UNL     1      -7.291  -7.443   8.397  1.00  0.00     0.037 C 
ENDROOT
BRANCH   1   6
HETATM    6  C20 UNL     1     -10.092  -6.265   6.065  1.00  0.00     0.148 C 
HETATM    7  C6  UNL     1     -10.043  -7.063   4.780  1.00  0.00     0.175 C 
HETATM    8  C7  UNL     1     -10.405  -8.498   4.911  1.00  0.00     0.050 C 
HETATM    9  C8  UNL     1     -11.880  -8.784   4.848  1.00  0.00    -0.014 C 
HETATM   10  C9  UNL     1     -12.174  -9.877   5.897  1.00  0.00     0.020 C 
HETATM   11  C10 UNL     1     -12.738  -7.645   5.163  1.00  0.00    -0.069 C 
HETATM   12  C13 UNL     1     -12.357  -9.326   3.556  1.00  0.00    -0.003 C 
HETATM   13  C11 UNL     1     -13.863  -7.748   4.472  1.00  0.00    -0.022 C 
HETATM   14  C15 UNL     1     -12.586  -6.466   6.069  1.00  0.00     0.044 C 
HETATM   15  C12 UNL     1     -13.852  -8.966   3.636  1.00  0.00     0.032 C 
HETATM   16  C16 UNL     1     -13.738  -6.390   7.050  1.00  0.00     0.017 C 
HETATM   17  C17 UNL     1     -11.318  -6.578   6.895  1.00  0.00     0.182 C 
HETATM   18  C14 UNL     1     -11.834  -8.745   2.310  1.00  0.00     0.011 C 
BRANCH   7  19
HETATM   19  O2  UNL     1      -8.849  -6.816   4.102  1.00  0.00    -0.309 OA
BRANCH  19  20
HETATM   20  C5  UNL     1      -8.734  -6.003   3.007  1.00  0.00     0.289 C 
HETATM   21  O1  UNL     1      -8.250  -4.843   3.262  1.00  0.00    -0.260 OA
BRANCH  20  22
HETATM   22  C3  UNL     1      -9.115  -6.385   1.675  1.00  0.00     0.009 C 
HETATM   23  C2  UNL     1      -8.507  -7.305   0.980  1.00  0.00    -0.018 C 
HETATM   24  C1  UNL     1      -7.344  -8.061   1.504  1.00  0.00     0.036 C 
HETATM   25  C4  UNL     1     -10.285  -5.677   1.048  1.00  0.00     0.054 C 
ENDBRANCH  20  22
ENDBRANCH  19  20
ENDBRANCH   7  19
BRANCH  17  26
HETATM   26  O3  UNL     1     -11.425  -5.538   7.873  1.00  0.00    -0.312 OA
BRANCH  26  27
HETATM   27  C18 UNL     1     -11.584  -5.760   9.209  1.00  0.00     0.255 C 
HETATM   28  C19 UNL     1     -11.222  -7.100   9.743  1.00  0.00     0.126 C 
HETATM   29  O4  UNL     1     -12.027  -4.822   9.922  1.00  0.00    -0.266 OA
ENDBRANCH  26  27
ENDBRANCH  17  26
BRANCH   6  30
HETATM   30  O5  UNL     1     -10.255  -4.919   5.636  1.00  0.00    -0.379 OA
ATOM     31  H5  UNL     1     -10.316  -4.422   6.443  1.00  0.00     0.211 HD
ENDBRANCH   6  30
ENDBRANCH   1   6
TORSDOF 7
ENDMDL
MODEL 5
REMARK VINA RESULT: -6.107580897      2.686      5.163
REMARK  7 active torsions:
REMARK  status: ('A' for Active; 'I' for Inactive)
REMARK    1  A    between atoms: C3_3  and  C5_5 
REMARK    2  A    between atoms: C5_5  and  O2_7 
REMARK    3  A    between atoms: O2_7  and  C6_8 
REMARK    4  A    between atoms: C17_19  and  O3_20 
REMARK    5  A    between atoms: O3_20  and  C18_21 
REMARK    6  A    between atoms: C20_24  and  O5_25 
REMARK    7  A    between atoms: C20_24  and  C21_27 
ROOT
HETATM    1  C21 UNL     1     -10.784  -7.396   6.650  1.00  0.00     0.057 C 
HETATM    2  C22 UNL     1     -10.613  -6.683   7.891  1.00  0.00     0.098 C 
HETATM    3  N1  UNL     1     -10.455  -6.114   8.907  1.00  0.00    -0.192 NA
HETATM    4  C23 UNL     1     -10.061  -8.529   6.571  1.00  0.00    -0.010 C 
HETATM    5  C24 UNL     1      -9.177  -9.026   7.617  1.00  0.00     0.037 C 
ENDROOT
BRANCH   1   6
HETATM    6  C20 UNL     1     -11.656  -6.942   5.572  1.00  0.00     0.148 C 
HETATM    7  C6  UNL     1     -10.951  -6.383   4.356  1.00  0.00     0.175 C 
HETATM    8  C7  UNL     1     -10.556  -7.389   3.335  1.00  0.00     0.050 C 
HETATM    9  C8  UNL     1     -11.636  -7.743   2.351  1.00  0.00    -0.014 C 
HETATM   10  C9  UNL     1     -11.545  -9.264   2.108  1.00  0.00     0.020 C 
HETATM   11  C10 UNL     1     -12.995  -7.462   2.805  1.00  0.00    -0.069 C 
HETATM   12  C13 UNL     1     -11.500  -7.113   1.018  1.00  0.00    -0.003 C 
HETATM   13  C11 UNL     1     -13.746  -7.155   1.759  1.00  0.00    -0.022 C 
HETATM   14  C15 UNL     1     -13.648  -7.464   4.151  1.00  0.00     0.044 C 
HETATM   15  C12 UNL     1     -12.951  -7.206   0.515  1.00  0.00     0.032 C 
HETATM   16  C16 UNL     1     -14.852  -8.383   4.162  1.00  0.00     0.017 C 
HETATM   17  C17 UNL     1     -12.696  -7.981   5.213  1.00  0.00     0.182 C 
HETATM   18  C14 UNL     1     -11.100  -5.700   0.943  1.00  0.00     0.011 C 
BRANCH   7  19
HETATM   19  O2  UNL     1      -9.936  -5.509   4.744  1.00  0.00    -0.309 OA
BRANCH  19  20
HETATM   20  C5  UNL     1      -8.633  -5.605   4.335  1.00  0.00     0.289 C 
HETATM   21  O1  UNL     1      -8.366  -4.944   3.269  1.00  0.00    -0.260 OA
BRANCH  20  22
HETATM   22  C3  UNL     1      -7.628  -6.373   5.018  1.00  0.00     0.009 C 
HETATM   23  C2  UNL     1      -7.059  -6.001   6.130  1.00  0.00    -0.018 C 
HETATM   24  C1  UNL     1      -7.398  -4.730   6.813  1.00  0.00     0.036 C 
HETATM   25  C4  UNL     1      -7.209  -7.682   4.407  1.00  0.00     0.054 C 
ENDBRANCH  20  22
ENDBRANCH  19  20
ENDBRANCH   7  19
BRANCH  17  26
HETATM   26  O3  UNL     1     -13.510  -8.163   6.376  1.00  0.00    -0.312 OA
BRANCH  26  27
HETATM   27  C18 UNL     1     -13.470  -9.272   7.170  1.00  0.00     0.255 C 
HETATM   28  C19 UNL     1     -13.177 -10.581   6.529  1.00  0.00     0.126 C 
HETATM   29  O4  UNL     1     -13.683  -9.131   8.402  1.00  0.00    -0.266 OA
ENDBRANCH  26  27
ENDBRANCH  17  26
BRANCH   6  30
HETATM   30  O5  UNL     1     -12.385  -5.837   6.093  1.00  0.00    -0.379 OA
ATOM     31  H5  UNL     1     -12.777  -6.171   6.891  1.00  0.00     0.211 HD
ENDBRANCH   6  30
ENDBRANCH   1   6
TORSDOF 7
ENDMDL
