MODEL 1
REMARK VINA RESULT: -6.629345996      0.000      0.000
REMARK  6 active torsions:
REMARK  status: ('A' for Active; 'I' for Inactive)
REMARK    1  A    between atoms: O1_2  and  C2_3 
REMARK    2  A    between atoms: C2_3  and  C5_6 
REMARK    3  A    between atoms: N1_10  and  C9_11 
REMARK       I    between atoms: N2_14  and  C12_15 
REMARK    4  A    between atoms: C12_15  and  O3_17 
REMARK    5  A    between atoms: O3_17  and  C13_18 
REMARK    6  A    between atoms: C19_24  and  C20_25 
ROOT
HETATM    1  C5  UNL     1     -10.863  -7.544   2.646  1.00  0.00     0.048 C 
HETATM    2  C6  UNL     1     -10.876  -6.276   3.454  1.00  0.00     0.011 C 
HETATM    3  C7  UNL     1      -9.649  -5.495   3.115  1.00  0.00     0.020 C 
HETATM    4  C8  UNL     1      -8.943  -6.030   1.933  1.00  0.00     0.118 C 
HETATM    5  N1  UNL     1      -9.749  -6.473   0.853  1.00  0.00    -0.397 N 
HETATM    6  C19 UNL     1     -10.876  -7.290   1.216  1.00  0.00     0.143 C 
ENDROOT
BRANCH   5   7
HETATM    7  C9  UNL     1      -9.020  -6.933  -0.285  1.00  0.00     0.083 C 
HETATM    8  C10 UNL     1      -9.313  -6.252  -1.574  1.00  0.00     0.045 C 
HETATM    9  C11 UNL     1      -8.664  -7.002  -2.700  1.00  0.00     0.130 C 
HETATM   10  N2  UNL     1      -7.673  -7.962  -2.284  1.00  0.00    -0.328 N 
HETATM   11  C12 UNL     1      -7.499  -9.144  -3.033  1.00  0.00     0.363 C 
HETATM   12  C17 UNL     1      -6.828  -7.784  -1.116  1.00  0.00     0.130 C 
HETATM   13  O2  UNL     1      -8.219  -9.326  -4.049  1.00  0.00    -0.238 OA
HETATM   14  C18 UNL     1      -7.545  -6.969  -0.051  1.00  0.00     0.045 C 
BRANCH  11  15
HETATM   15  O3  UNL     1      -6.572 -10.124  -2.708  1.00  0.00    -0.294 OA
BRANCH  15  16
HETATM   16  C13 UNL     1      -5.385 -10.328  -3.419  1.00  0.00     0.061 C 
HETATM   17  C14 UNL     1      -4.285 -10.652  -2.422  1.00  0.00     0.046 C 
HETATM   18  C15 UNL     1      -4.937  -9.119  -4.201  1.00  0.00     0.046 C 
HETATM   19  C16 UNL     1      -5.520 -11.507  -4.354  1.00  0.00     0.046 C 
ENDBRANCH  15  16
ENDBRANCH  11  15
ENDBRANCH   5   7
BRANCH   6  20
HETATM   20  C20 UNL     1     -12.089  -6.675   0.618  1.00  0.00     0.073 A 
HETATM   21  N3  UNL     1     -13.252  -7.237   0.304  1.00  0.00    -0.361 N 
HETATM   22  C21 UNL     1     -14.200  -6.537  -0.220  1.00  0.00     0.096 A 
ATOM     23  H3  UNL     1     -13.396  -8.231   0.480  1.00  0.00     0.165 HD
HETATM   24  C22 UNL     1     -13.955  -5.199  -0.440  1.00  0.00     0.068 A 
HETATM   25  S1  UNL     1     -12.355  -5.056   0.138  1.00  0.00    -0.085 SA
ENDBRANCH   6  20
BRANCH   1  26
HETATM   26  C2  UNL     1     -11.823  -8.504   3.262  1.00  0.00     0.059 C 
HETATM   27  C3  UNL     1     -11.659  -8.731   4.713  1.00  0.00     0.046 C 
HETATM   28  C4  UNL     1     -11.952  -9.821   2.525  1.00  0.00     0.046 C 
BRANCH  26  29
HETATM   29  O1  UNL     1     -13.098  -7.898   3.070  1.00  0.00    -0.385 OA
HETATM   30  C1  UNL     1     -14.125  -8.625   3.600  1.00  0.00     0.202 C 
ENDBRANCH  26  29
ENDBRANCH   1  26
TORSDOF 6
ENDMDL
MODEL 2
REMARK VINA RESULT: -6.378572807      0.531      1.209
REMARK  6 active torsions:
REMARK  status: ('A' for Active; 'I' for Inactive)
REMARK    1  A    between atoms: O1_2  and  C2_3 
REMARK    2  A    between atoms: C2_3  and  C5_6 
REMARK    3  A    between atoms: N1_10  and  C9_11 
REMARK       I    between atoms: N2_14  and  C12_15 
REMARK    4  A    between atoms: C12_15  and  O3_17 
REMARK    5  A    between atoms: O3_17  and  C13_18 
REMARK    6  A    between atoms: C19_24  and  C20_25 
ROOT
HETATM    1  C5  UNL     1     -10.916  -7.539   2.546  1.00  0.00     0.048 C 
HETATM    2  C6  UNL     1     -10.939  -6.268   3.348  1.00  0.00     0.011 C 
HETATM    3  C7  UNL     1      -9.698  -5.498   3.037  1.00  0.00     0.020 C 
HETATM    4  C8  UNL     1      -8.966  -6.045   1.875  1.00  0.00     0.118 C 
HETATM    5  N1  UNL     1      -9.748  -6.487   0.777  1.00  0.00    -0.397 N 
HETATM    6  C19 UNL     1     -10.891  -7.292   1.116  1.00  0.00     0.143 C 
ENDROOT
BRANCH   5   7
HETATM    7  C9  UNL     1      -8.994  -6.957  -0.339  1.00  0.00     0.083 C 
HETATM    8  C10 UNL     1      -9.256  -6.286  -1.641  1.00  0.00     0.045 C 
HETATM    9  C11 UNL     1      -8.583  -7.048  -2.746  1.00  0.00     0.130 C 
HETATM   10  N2  UNL     1      -7.605  -8.007  -2.299  1.00  0.00    -0.328 N 
HETATM   11  C12 UNL     1      -7.417  -9.195  -3.034  1.00  0.00     0.363 C 
HETATM   12  C17 UNL     1      -6.787  -7.821  -1.113  1.00  0.00     0.130 C 
HETATM   13  O2  UNL     1      -8.114  -9.383  -4.064  1.00  0.00    -0.238 OA
HETATM   14  C18 UNL     1      -7.526  -6.995  -0.071  1.00  0.00     0.045 C 
BRANCH  11  15
HETATM   15  O3  UNL     1      -6.500 -10.175  -2.680  1.00  0.00    -0.294 OA
BRANCH  15  16
HETATM   16  C13 UNL     1      -5.314 -10.410  -3.382  1.00  0.00     0.061 C 
HETATM   17  C14 UNL     1      -4.965  -9.152  -4.159  1.00  0.00     0.046 C 
HETATM   18  C15 UNL     1      -5.417 -11.536  -4.380  1.00  0.00     0.046 C 
HETATM   19  C16 UNL     1      -4.177 -10.690  -2.426  1.00  0.00     0.046 C 
ENDBRANCH  15  16
ENDBRANCH  11  15
ENDBRANCH   5   7
BRANCH   6  20
HETATM   20  C20 UNL     1     -12.083  -6.671   0.484  1.00  0.00     0.073 A 
HETATM   21  N3  UNL     1     -13.183  -7.247   0.010  1.00  0.00    -0.361 N 
HETATM   22  C21 UNL     1     -14.122  -6.537  -0.516  1.00  0.00     0.096 A 
ATOM     23  H3  UNL     1     -13.285  -8.260   0.062  1.00  0.00     0.165 HD
HETATM   24  C22 UNL     1     -13.936  -5.172  -0.565  1.00  0.00     0.068 A 
HETATM   25  S1  UNL     1     -12.400  -5.021   0.163  1.00  0.00    -0.085 SA
ENDBRANCH   6  20
BRANCH   1  26
HETATM   26  C2  UNL     1     -11.899  -8.489   3.142  1.00  0.00     0.059 C 
HETATM   27  C3  UNL     1     -11.979  -9.817   2.497  1.00  0.00     0.046 C 
HETATM   28  C4  UNL     1     -13.283  -7.910   3.350  1.00  0.00     0.046 C 
BRANCH  26  29
HETATM   29  O1  UNL     1     -11.429  -8.692   4.472  1.00  0.00    -0.385 OA
HETATM   30  C1  UNL     1     -12.373  -9.226   5.301  1.00  0.00     0.202 C 
ENDBRANCH  26  29
ENDBRANCH   1  26
TORSDOF 6
ENDMDL
MODEL 3
REMARK VINA RESULT: -6.266155760      2.122      3.555
REMARK  6 active torsions:
REMARK  status: ('A' for Active; 'I' for Inactive)
REMARK    1  A    between atoms: O1_2  and  C2_3 
REMARK    2  A    between atoms: C2_3  and  C5_6 
REMARK    3  A    between atoms: N1_10  and  C9_11 
REMARK       I    between atoms: N2_14  and  C12_15 
REMARK    4  A    between atoms: C12_15  and  O3_17 
REMARK    5  A    between atoms: O3_17  and  C13_18 
REMARK    6  A    between atoms: C19_24  and  C20_25 
ROOT
HETATM    1  C5  UNL     1     -10.374  -6.282   3.492  1.00  0.00     0.048 C 
HETATM    2  C6  UNL     1     -11.865  -6.267   3.678  1.00  0.00     0.011 C 
HETATM    3  C7  UNL     1     -12.497  -5.977   2.357  1.00  0.00     0.020 C 
HETATM    4  C8  UNL     1     -11.536  -6.058   1.238  1.00  0.00     0.118 C 
HETATM    5  N1  UNL     1     -10.586  -7.111   1.286  1.00  0.00    -0.397 N 
HETATM    6  C19 UNL     1      -9.942  -7.305   2.557  1.00  0.00     0.143 C 
ENDROOT
BRANCH   5   7
HETATM    7  C9  UNL     1      -9.715  -7.178   0.158  1.00  0.00     0.083 C 
HETATM    8  C10 UNL     1      -9.982  -6.209  -0.939  1.00  0.00     0.045 C 
HETATM    9  C11 UNL     1      -9.155  -6.567  -2.141  1.00  0.00     0.130 C 
HETATM   10  N2  UNL     1      -8.092  -7.503  -1.875  1.00  0.00    -0.328 N 
HETATM   11  C12 UNL     1      -7.713  -8.420  -2.877  1.00  0.00     0.363 C 
HETATM   12  C17 UNL     1      -7.374  -7.561  -0.613  1.00  0.00     0.130 C 
HETATM   13  O2  UNL     1      -8.320  -8.393  -3.979  1.00  0.00    -0.238 OA
HETATM   14  C18 UNL     1      -8.271  -7.132   0.538  1.00  0.00     0.045 C 
BRANCH  11  15
HETATM   15  O3  UNL     1      -6.703  -9.357  -2.712  1.00  0.00    -0.294 OA
BRANCH  15  16
HETATM   16  C13 UNL     1      -5.446  -9.249  -3.316  1.00  0.00     0.061 C 
HETATM   17  C14 UNL     1      -4.544 -10.321  -2.728  1.00  0.00     0.046 C 
HETATM   18  C15 UNL     1      -4.775  -7.920  -3.074  1.00  0.00     0.046 C 
HETATM   19  C16 UNL     1      -5.547  -9.497  -4.803  1.00  0.00     0.046 C 
ENDBRANCH  15  16
ENDBRANCH  11  15
ENDBRANCH   5   7
BRANCH   6  20
HETATM   20  C20 UNL     1     -10.118  -8.730   2.937  1.00  0.00     0.073 A 
HETATM   21  N3  UNL     1      -9.283  -9.541   3.579  1.00  0.00    -0.361 N 
HETATM   22  C21 UNL     1      -9.609 -10.766   3.819  1.00  0.00     0.096 A 
ATOM     23  H3  UNL     1      -8.375  -9.191   3.886  1.00  0.00     0.165 HD
HETATM   24  C22 UNL     1     -10.845 -11.191   3.383  1.00  0.00     0.068 A 
HETATM   25  S1  UNL     1     -11.446  -9.769   2.654  1.00  0.00    -0.085 SA
ENDBRANCH   6  20
BRANCH   1  26
HETATM   26  C2  UNL     1      -9.731  -6.148   4.832  1.00  0.00     0.059 C 
HETATM   27  C3  UNL     1     -10.415  -6.842   5.942  1.00  0.00     0.046 C 
HETATM   28  C4  UNL     1      -9.384  -4.726   5.220  1.00  0.00     0.046 C 
BRANCH  26  29
HETATM   29  O1  UNL     1      -8.454  -6.761   4.671  1.00  0.00    -0.385 OA
HETATM   30  C1  UNL     1      -7.480  -6.182   5.432  1.00  0.00     0.202 C 
ENDBRANCH  26  29
ENDBRANCH   1  26
TORSDOF 6
ENDMDL
MODEL 4
REMARK VINA RESULT: -6.220075786      2.153      3.377
REMARK  6 active torsions:
REMARK  status: ('A' for Active; 'I' for Inactive)
REMARK    1  A    between atoms: O1_2  and  C2_3 
REMARK    2  A    between atoms: C2_3  and  C5_6 
REMARK    3  A    between atoms: N1_10  and  C9_11 
REMARK       I    between atoms: N2_14  and  C12_15 
REMARK    4  A    between atoms: C12_15  and  O3_17 
REMARK    5  A    between atoms: O3_17  and  C13_18 
REMARK    6  A    between atoms: C19_24  and  C20_25 
ROOT
HETATM    1  C5  UNL     1     -10.700  -6.488   3.626  1.00  0.00     0.048 C 
HETATM    2  C6  UNL     1     -12.196  -6.415   3.745  1.00  0.00     0.011 C 
HETATM    3  C7  UNL     1     -12.750  -5.996   2.423  1.00  0.00     0.020 C 
HETATM    4  C8  UNL     1     -11.740  -6.039   1.346  1.00  0.00     0.118 C 
HETATM    5  N1  UNL     1     -10.841  -7.136   1.354  1.00  0.00    -0.397 N 
HETATM    6  C19 UNL     1     -10.269  -7.457   2.634  1.00  0.00     0.143 C 
ENDROOT
BRANCH   5   7
HETATM    7  C9  UNL     1      -9.920  -7.160   0.265  1.00  0.00     0.083 C 
HETATM    8  C10 UNL     1     -10.141  -6.152  -0.806  1.00  0.00     0.045 C 
HETATM    9  C11 UNL     1      -9.260  -6.463  -1.982  1.00  0.00     0.130 C 
HETATM   10  N2  UNL     1      -8.206  -7.406  -1.703  1.00  0.00    -0.328 N 
HETATM   11  C12 UNL     1      -7.780  -8.285  -2.721  1.00  0.00     0.363 C 
HETATM   12  C17 UNL     1      -7.546  -7.510  -0.413  1.00  0.00     0.130 C 
HETATM   13  O2  UNL     1      -8.336  -8.218  -3.847  1.00  0.00    -0.238 OA
HETATM   14  C18 UNL     1      -8.495  -7.126   0.711  1.00  0.00     0.045 C 
BRANCH  11  15
HETATM   15  O3  UNL     1      -6.775  -9.225  -2.545  1.00  0.00    -0.294 OA
BRANCH  15  16
HETATM   16  C13 UNL     1      -5.472  -9.061  -3.028  1.00  0.00     0.061 C 
HETATM   17  C14 UNL     1      -4.578 -10.076  -2.336  1.00  0.00     0.046 C 
HETATM   18  C15 UNL     1      -4.895  -7.696  -2.751  1.00  0.00     0.046 C 
HETATM   19  C16 UNL     1      -5.418  -9.336  -4.513  1.00  0.00     0.046 C 
ENDBRANCH  15  16
ENDBRANCH  11  15
ENDBRANCH   5   7
BRANCH   6  20
HETATM   20  C20 UNL     1     -10.526  -8.897   2.894  1.00  0.00     0.073 A 
HETATM   21  N3  UNL     1     -11.589  -9.633   2.585  1.00  0.00    -0.361 N 
HETATM   22  C21 UNL     1     -11.637 -10.883   2.901  1.00  0.00     0.096 A 
ATOM     23  H3  UNL     1     -12.374  -9.206   2.093  1.00  0.00     0.165 HD
HETATM   24  C22 UNL     1     -10.553 -11.413   3.567  1.00  0.00     0.068 A 
HETATM   25  S1  UNL     1      -9.536 -10.046   3.683  1.00  0.00    -0.085 SA
ENDBRANCH   6  20
BRANCH   1  26
HETATM   26  C2  UNL     1     -10.117  -6.486   4.999  1.00  0.00     0.059 C 
HETATM   27  C3  UNL     1      -8.674  -6.792   5.083  1.00  0.00     0.046 C 
HETATM   28  C4  UNL     1     -10.898  -7.299   6.011  1.00  0.00     0.046 C 
BRANCH  26  29
HETATM   29  O1  UNL     1     -10.293  -5.147   5.453  1.00  0.00    -0.385 OA
HETATM   30  C1  UNL     1      -9.131  -4.431   5.480  1.00  0.00     0.202 C 
ENDBRANCH  26  29
ENDBRANCH   1  26
TORSDOF 6
ENDMDL
MODEL 5
REMARK VINA RESULT: -6.032696739      2.466      4.362
REMARK  6 active torsions:
REMARK  status: ('A' for Active; 'I' for Inactive)
REMARK    1  A    between atoms: O1_2  and  C2_3 
REMARK    2  A    between atoms: C2_3  and  C5_6 
REMARK    3  A    between atoms: N1_10  and  C9_11 
REMARK       I    between atoms: N2_14  and  C12_15 
REMARK    4  A    between atoms: C12_15  and  O3_17 
REMARK    5  A    between atoms: O3_17  and  C13_18 
REMARK    6  A    between atoms: C19_24  and  C20_25 
ROOT
HETATM    1  C5  UNL     1     -12.514  -7.276   4.410  1.00  0.00     0.048 C 
HETATM    2  C6  UNL     1     -13.740  -8.139   4.513  1.00  0.00     0.011 C 
HETATM    3  C7  UNL     1     -14.465  -8.080   3.209  1.00  0.00     0.020 C 
HETATM    4  C8  UNL     1     -13.664  -7.441   2.144  1.00  0.00     0.118 C 
HETATM    5  N1  UNL     1     -12.282  -7.759   2.105  1.00  0.00    -0.397 N 
HETATM    6  C19 UNL     1     -11.604  -7.728   3.373  1.00  0.00     0.143 C 
ENDROOT
BRANCH   5   7
HETATM    7  C9  UNL     1     -11.563  -7.160   1.028  1.00  0.00     0.083 C 
HETATM    8  C10 UNL     1     -12.383  -6.613  -0.087  1.00  0.00     0.045 C 
HETATM    9  C11 UNL     1     -11.490  -6.249  -1.238  1.00  0.00     0.130 C 
HETATM   10  N2  UNL     1     -10.088  -6.188  -0.909  1.00  0.00    -0.328 N 
HETATM   11  C12 UNL     1      -9.134  -6.544  -1.885  1.00  0.00     0.363 C 
HETATM   12  C17 UNL     1      -9.590  -5.775   0.391  1.00  0.00     0.130 C 
HETATM   13  O2  UNL     1      -9.538  -6.908  -3.019  1.00  0.00    -0.238 OA
HETATM   14  C18 UNL     1     -10.580  -6.134   1.488  1.00  0.00     0.045 C 
BRANCH  11  15
HETATM   15  O3  UNL     1      -7.765  -6.517  -1.658  1.00  0.00    -0.294 OA
BRANCH  15  16
HETATM   16  C13 UNL     1      -6.974  -7.668  -1.579  1.00  0.00     0.061 C 
HETATM   17  C14 UNL     1      -5.551  -7.293  -1.957  1.00  0.00     0.046 C 
HETATM   18  C15 UNL     1      -7.411  -8.764  -2.518  1.00  0.00     0.046 C 
HETATM   19  C16 UNL     1      -6.950  -8.200  -0.165  1.00  0.00     0.046 C 
ENDBRANCH  15  16
ENDBRANCH  11  15
ENDBRANCH   5   7
BRANCH   6  20
HETATM   20  C20 UNL     1     -10.922  -9.036   3.551  1.00  0.00     0.073 A 
HETATM   21  N3  UNL     1      -9.743  -9.304   4.105  1.00  0.00    -0.361 N 
HETATM   22  C21 UNL     1      -9.306 -10.515   4.165  1.00  0.00     0.096 A 
ATOM     23  H3  UNL     1      -9.179  -8.544   4.485  1.00  0.00     0.165 HD
HETATM   24  C22 UNL     1     -10.104 -11.507   3.636  1.00  0.00     0.068 A 
HETATM   25  S1  UNL     1     -11.441 -10.597   3.087  1.00  0.00    -0.085 SA
ENDBRANCH   6  20
BRANCH   1  26
HETATM   26  C2  UNL     1     -12.023  -6.989   5.788  1.00  0.00     0.059 C 
HETATM   27  C3  UNL     1     -10.726  -6.285   5.872  1.00  0.00     0.046 C 
HETATM   28  C4  UNL     1     -12.048  -8.180   6.723  1.00  0.00     0.046 C 
BRANCH  26  29
HETATM   29  O1  UNL     1     -13.011  -6.122   6.339  1.00  0.00    -0.385 OA
HETATM   30  C1  UNL     1     -12.530  -5.324   7.337  1.00  0.00     0.202 C 
ENDBRANCH  26  29
ENDBRANCH   1  26
TORSDOF 6
ENDMDL
