MODEL 1
REMARK VINA RESULT: -7.228149410      0.000      0.000
REMARK  5 active torsions:
REMARK  status: ('A' for Active; 'I' for Inactive)
REMARK    1  A    between atoms: C14_16  and  O3_17 
REMARK    2  A    between atoms: C14_16  and  C20_24 
REMARK    3  A    between atoms: O3_17  and  C15_18 
REMARK    4  A    between atoms: C15_18  and  C16_20 
REMARK    5  A    between atoms: C22_27  and  O6_28 
ROOT
HETATM    1  C1  UNL     1     -12.261 -12.633   4.436  1.00  0.00     0.017 C 
HETATM    2  C2  UNL     1     -12.484 -11.714   5.176  1.00  0.00    -0.082 C 
HETATM    3  C3  UNL     1     -12.753 -10.609   6.066  1.00  0.00    -0.002 C 
HETATM    4  C4  UNL     1     -13.248  -9.417   5.721  1.00  0.00    -0.051 C 
HETATM    5  C5  UNL     1     -13.393  -8.537   6.860  1.00  0.00     0.053 C 
HETATM    6  C6  UNL     1     -12.675  -9.257   7.988  1.00  0.00     0.017 C 
HETATM    7  C7  UNL     1     -12.636 -10.665   7.551  1.00  0.00     0.049 C 
HETATM    8  C8  UNL     1     -12.800  -7.160   6.702  1.00  0.00     0.096 C 
HETATM    9  C9  UNL     1     -11.939  -6.874   7.932  1.00  0.00     0.049 C 
HETATM   10  C10 UNL     1     -13.887  -6.118   6.770  1.00  0.00     0.049 C 
HETATM   11  O1  UNL     1     -12.016  -6.938   5.620  1.00  0.00    -0.229 OA
HETATM   12  O2  UNL     1     -11.612  -7.955   4.945  1.00  0.00    -0.225 OA
HETATM   13  C11 UNL     1     -12.463  -8.151   3.808  1.00  0.00     0.132 C 
HETATM   14  C12 UNL     1     -11.575  -8.857   2.765  1.00  0.00     0.048 C 
HETATM   15  C13 UNL     1     -11.606  -7.973   1.571  1.00  0.00     0.053 C 
HETATM   16  C14 UNL     1     -11.652  -6.622   2.122  1.00  0.00     0.159 C 
HETATM   17  C22 UNL     1     -12.685  -6.839   3.271  1.00  0.00     0.199 C 
HETATM   18  C23 UNL     1     -13.519  -9.086   4.254  1.00  0.00     0.052 C 
HETATM   19  C24 UNL     1     -14.940  -8.745   4.127  1.00  0.00     0.018 C 
ENDROOT
BRANCH  17  20
HETATM   20  O6  UNL     1     -13.878  -6.501   2.711  1.00  0.00    -0.389 OA
ATOM     21  H6  UNL     1     -13.933  -6.213   1.808  1.00  0.00     0.210 HD
ENDBRANCH  17  20
BRANCH  16  22
HETATM   22  O3  UNL     1     -12.153  -5.616   1.275  1.00  0.00    -0.296 OA
BRANCH  22  23
HETATM   23  C15 UNL     1     -12.348  -5.759  -0.075  1.00  0.00     0.289 C 
HETATM   24  O4  UNL     1     -13.388  -6.382  -0.417  1.00  0.00    -0.260 OA
BRANCH  23  25
HETATM   25  C16 UNL     1     -11.469  -5.267  -1.101  1.00  0.00     0.009 C 
HETATM   26  C17 UNL     1     -10.366  -6.161  -1.627  1.00  0.00     0.054 C 
HETATM   27  C18 UNL     1     -11.575  -4.066  -1.624  1.00  0.00    -0.018 C 
HETATM   28  C19 UNL     1     -12.602  -3.094  -1.217  1.00  0.00     0.036 C 
ENDBRANCH  23  25
ENDBRANCH  22  23
ENDBRANCH  16  22
BRANCH  16  29
HETATM   29  C20 UNL     1     -10.341  -6.190   2.618  1.00  0.00     0.160 C 
HETATM   30  C21 UNL     1      -9.055  -6.549   1.907  1.00  0.00     0.094 C 
HETATM   31  O5  UNL     1     -10.161  -5.511   3.633  1.00  0.00    -0.295 OA
ENDBRANCH  16  29
TORSDOF 5
ENDMDL
MODEL 2
REMARK VINA RESULT: -7.033423957      0.870      1.071
REMARK  5 active torsions:
REMARK  status: ('A' for Active; 'I' for Inactive)
REMARK    1  A    between atoms: C14_16  and  O3_17 
REMARK    2  A    between atoms: C14_16  and  C20_24 
REMARK    3  A    between atoms: O3_17  and  C15_18 
REMARK    4  A    between atoms: C15_18  and  C16_20 
REMARK    5  A    between atoms: C22_27  and  O6_28 
ROOT
HETATM    1  C1  UNL     1     -12.194 -12.475   4.428  1.00  0.00     0.017 C 
HETATM    2  C2  UNL     1     -12.380 -11.563   5.187  1.00  0.00    -0.082 C 
HETATM    3  C3  UNL     1     -12.605 -10.467   6.099  1.00  0.00    -0.002 C 
HETATM    4  C4  UNL     1     -13.054  -9.249   5.779  1.00  0.00    -0.051 C 
HETATM    5  C5  UNL     1     -13.163  -8.387   6.936  1.00  0.00     0.053 C 
HETATM    6  C6  UNL     1     -12.473  -9.157   8.048  1.00  0.00     0.017 C 
HETATM    7  C7  UNL     1     -12.488 -10.557   7.583  1.00  0.00     0.049 C 
HETATM    8  C8  UNL     1     -12.518  -7.032   6.805  1.00  0.00     0.096 C 
HETATM    9  C9  UNL     1     -11.644  -6.804   8.038  1.00  0.00     0.049 C 
HETATM   10  C10 UNL     1     -13.563  -5.950   6.896  1.00  0.00     0.049 C 
HETATM   11  O1  UNL     1     -11.727  -6.818   5.726  1.00  0.00    -0.229 OA
HETATM   12  O2  UNL     1     -11.363  -7.837   5.030  1.00  0.00    -0.225 OA
HETATM   13  C11 UNL     1     -12.222  -7.977   3.890  1.00  0.00     0.132 C 
HETATM   14  C12 UNL     1     -11.364  -8.696   2.832  1.00  0.00     0.048 C 
HETATM   15  C13 UNL     1     -11.362  -7.787   1.656  1.00  0.00     0.053 C 
HETATM   16  C14 UNL     1     -11.355  -6.447   2.235  1.00  0.00     0.159 C 
HETATM   17  C22 UNL     1     -12.394  -6.647   3.380  1.00  0.00     0.199 C 
HETATM   18  C23 UNL     1     -13.313  -8.879   4.320  1.00  0.00     0.052 C 
HETATM   19  C24 UNL     1     -14.721  -8.481   4.203  1.00  0.00     0.018 C 
ENDROOT
BRANCH  17  20
HETATM   20  O6  UNL     1     -13.574  -6.252   2.830  1.00  0.00    -0.389 OA
ATOM     21  H6  UNL     1     -14.239  -5.818   3.353  1.00  0.00     0.210 HD
ENDBRANCH  17  20
BRANCH  16  22
HETATM   22  O3  UNL     1     -11.817  -5.405   1.408  1.00  0.00    -0.296 OA
BRANCH  22  23
HETATM   23  C15 UNL     1     -12.026  -5.515   0.057  1.00  0.00     0.289 C 
HETATM   24  O4  UNL     1     -10.991  -5.523  -0.660  1.00  0.00    -0.260 OA
BRANCH  23  25
HETATM   25  C16 UNL     1     -13.310  -5.612  -0.582  1.00  0.00     0.009 C 
HETATM   26  C17 UNL     1     -13.948  -6.971  -0.770  1.00  0.00     0.054 C 
HETATM   27  C18 UNL     1     -13.979  -4.565  -1.013  1.00  0.00    -0.018 C 
HETATM   28  C19 UNL     1     -13.488  -3.184  -0.890  1.00  0.00     0.036 C 
ENDBRANCH  23  25
ENDBRANCH  22  23
ENDBRANCH  16  22
BRANCH  16  29
HETATM   29  C20 UNL     1     -10.028  -6.076   2.736  1.00  0.00     0.160 C 
HETATM   30  C21 UNL     1      -8.755  -6.530   2.056  1.00  0.00     0.094 C 
HETATM   31  O5  UNL     1      -9.822  -5.377   3.732  1.00  0.00    -0.295 OA
ENDBRANCH  16  29
TORSDOF 5
ENDMDL
MODEL 3
REMARK VINA RESULT: -6.800954914      2.157      6.913
REMARK  5 active torsions:
REMARK  status: ('A' for Active; 'I' for Inactive)
REMARK    1  A    between atoms: C14_16  and  O3_17 
REMARK    2  A    between atoms: C14_16  and  C20_24 
REMARK    3  A    between atoms: O3_17  and  C15_18 
REMARK    4  A    between atoms: C15_18  and  C16_20 
REMARK    5  A    between atoms: C22_27  and  O6_28 
ROOT
HETATM    1  C1  UNL     1     -14.647  -6.530   0.365  1.00  0.00     0.017 C 
HETATM    2  C2  UNL     1     -13.455  -6.623   0.479  1.00  0.00    -0.082 C 
HETATM    3  C3  UNL     1     -12.022  -6.735   0.616  1.00  0.00    -0.002 C 
HETATM    4  C4  UNL     1     -11.367  -7.434   1.549  1.00  0.00    -0.051 C 
HETATM    5  C5  UNL     1      -9.932  -7.330   1.400  1.00  0.00     0.053 C 
HETATM    6  C6  UNL     1      -9.737  -6.239   0.361  1.00  0.00     0.017 C 
HETATM    7  C7  UNL     1     -11.029  -6.180  -0.348  1.00  0.00     0.049 C 
HETATM    8  C8  UNL     1      -9.170  -6.960   2.646  1.00  0.00     0.096 C 
HETATM    9  C9  UNL     1      -8.225  -5.811   2.298  1.00  0.00     0.049 C 
HETATM   10  C10 UNL     1      -8.246  -8.084   3.040  1.00  0.00     0.049 C 
HETATM   11  O1  UNL     1      -9.889  -6.558   3.721  1.00  0.00    -0.229 OA
HETATM   12  O2  UNL     1     -11.130  -6.264   3.546  1.00  0.00    -0.225 OA
HETATM   13  C11 UNL     1     -11.949  -7.386   3.902  1.00  0.00     0.132 C 
HETATM   14  C12 UNL     1     -13.299  -6.774   4.320  1.00  0.00     0.048 C 
HETATM   15  C13 UNL     1     -13.523  -7.250   5.710  1.00  0.00     0.053 C 
HETATM   16  C14 UNL     1     -12.189  -7.276   6.303  1.00  0.00     0.159 C 
HETATM   17  C22 UNL     1     -11.385  -7.895   5.119  1.00  0.00     0.199 C 
HETATM   18  C23 UNL     1     -12.135  -8.158   2.653  1.00  0.00     0.052 C 
HETATM   19  C24 UNL     1     -11.787  -9.581   2.579  1.00  0.00     0.018 C 
ENDROOT
BRANCH  17  20
HETATM   20  O6  UNL     1     -11.377  -9.230   5.386  1.00  0.00    -0.389 OA
ATOM     21  H6  UNL     1     -11.152  -9.556   6.249  1.00  0.00     0.210 HD
ENDBRANCH  17  20
BRANCH  16  22
HETATM   22  O3  UNL     1     -12.018  -8.109   7.425  1.00  0.00    -0.296 OA
BRANCH  22  23
HETATM   23  C15 UNL     1     -13.023  -8.484   8.279  1.00  0.00     0.289 C 
HETATM   24  O4  UNL     1     -13.289  -9.715   8.308  1.00  0.00    -0.260 OA
BRANCH  23  25
HETATM   25  C16 UNL     1     -13.781  -7.593   9.116  1.00  0.00     0.009 C 
HETATM   26  C17 UNL     1     -15.285  -7.528   8.963  1.00  0.00     0.054 C 
HETATM   27  C18 UNL     1     -13.231  -6.824  10.029  1.00  0.00    -0.018 C 
HETATM   28  C19 UNL     1     -11.784  -6.789  10.294  1.00  0.00     0.036 C 
ENDBRANCH  23  25
ENDBRANCH  22  23
ENDBRANCH  16  22
BRANCH  16  29
HETATM   29  C20 UNL     1     -11.724  -5.932   6.658  1.00  0.00     0.160 C 
HETATM   30  C21 UNL     1     -10.255  -5.607   6.824  1.00  0.00     0.094 C 
HETATM   31  O5  UNL     1     -12.460  -4.960   6.851  1.00  0.00    -0.295 OA
ENDBRANCH  16  29
TORSDOF 5
ENDMDL
MODEL 4
REMARK VINA RESULT: -6.736112779      3.180      6.518
REMARK  5 active torsions:
REMARK  status: ('A' for Active; 'I' for Inactive)
REMARK    1  A    between atoms: C14_16  and  O3_17 
REMARK    2  A    between atoms: C14_16  and  C20_24 
REMARK    3  A    between atoms: O3_17  and  C15_18 
REMARK    4  A    between atoms: C15_18  and  C16_20 
REMARK    5  A    between atoms: C22_27  and  O6_28 
ROOT
HETATM    1  C1  UNL     1     -15.122  -8.357   4.196  1.00  0.00     0.017 C 
HETATM    2  C2  UNL     1     -14.501  -7.986   3.238  1.00  0.00    -0.082 C 
HETATM    3  C3  UNL     1     -13.754  -7.540   2.085  1.00  0.00    -0.002 C 
HETATM    4  C4  UNL     1     -12.440  -7.684   1.889  1.00  0.00    -0.051 C 
HETATM    5  C5  UNL     1     -12.013  -7.121   0.626  1.00  0.00     0.053 C 
HETATM    6  C6  UNL     1     -13.224  -6.354   0.125  1.00  0.00     0.017 C 
HETATM    7  C7  UNL     1     -14.357  -6.950   0.857  1.00  0.00     0.049 C 
HETATM    8  C8  UNL     1     -10.834  -6.185   0.693  1.00  0.00     0.096 C 
HETATM    9  C9  UNL     1     -11.197  -4.913  -0.073  1.00  0.00     0.049 C 
HETATM   10  C10 UNL     1      -9.674  -6.757  -0.082  1.00  0.00     0.049 C 
HETATM   11  O1  UNL     1     -10.416  -5.792   1.920  1.00  0.00    -0.229 OA
HETATM   12  O2  UNL     1     -11.190  -6.016   2.924  1.00  0.00    -0.225 OA
HETATM   13  C11 UNL     1     -10.780  -7.216   3.593  1.00  0.00     0.132 C 
HETATM   14  C12 UNL     1     -11.243  -7.036   5.051  1.00  0.00     0.048 C 
HETATM   15  C13 UNL     1     -10.008  -7.169   5.866  1.00  0.00     0.053 C 
HETATM   16  C14 UNL     1      -8.966  -6.559   5.046  1.00  0.00     0.159 C 
HETATM   17  C22 UNL     1      -9.348  -7.146   3.653  1.00  0.00     0.199 C 
HETATM   18  C23 UNL     1     -11.560  -8.308   2.970  1.00  0.00     0.052 C 
HETATM   19  C24 UNL     1     -10.897  -9.480   2.386  1.00  0.00     0.018 C 
ENDROOT
BRANCH  17  20
HETATM   20  O6  UNL     1      -8.583  -8.266   3.544  1.00  0.00    -0.389 OA
ATOM     21  H6  UNL     1      -8.932  -9.122   3.764  1.00  0.00     0.210 HD
ENDBRANCH  17  20
BRANCH  16  22
HETATM   22  O3  UNL     1      -7.641  -6.943   5.329  1.00  0.00    -0.296 OA
BRANCH  22  23
HETATM   23  C15 UNL     1      -7.016  -6.757   6.536  1.00  0.00     0.289 C 
HETATM   24  O4  UNL     1      -7.402  -7.502   7.475  1.00  0.00    -0.260 OA
BRANCH  23  25
HETATM   25  C16 UNL     1      -5.984  -5.792   6.799  1.00  0.00     0.009 C 
HETATM   26  C17 UNL     1      -6.352  -4.455   7.406  1.00  0.00     0.054 C 
HETATM   27  C18 UNL     1      -4.713  -6.011   6.545  1.00  0.00    -0.018 C 
HETATM   28  C19 UNL     1      -4.208  -7.266   5.965  1.00  0.00     0.036 C 
ENDBRANCH  23  25
ENDBRANCH  22  23
ENDBRANCH  16  22
BRANCH  16  29
HETATM   29  C20 UNL     1      -9.032  -5.095   5.079  1.00  0.00     0.160 C 
HETATM   30  C21 UNL     1      -8.291  -4.234   4.080  1.00  0.00     0.094 C 
HETATM   31  O5  UNL     1      -9.680  -4.438   5.899  1.00  0.00    -0.295 OA
ENDBRANCH  16  29
TORSDOF 5
ENDMDL
MODEL 5
REMARK VINA RESULT: -6.625160099      0.818      1.273
REMARK  5 active torsions:
REMARK  status: ('A' for Active; 'I' for Inactive)
REMARK    1  A    between atoms: C14_16  and  O3_17 
REMARK    2  A    between atoms: C14_16  and  C20_24 
REMARK    3  A    between atoms: O3_17  and  C15_18 
REMARK    4  A    between atoms: C15_18  and  C16_20 
REMARK    5  A    between atoms: C22_27  and  O6_28 
ROOT
HETATM    1  C1  UNL     1     -12.381 -12.485   4.343  1.00  0.00     0.017 C 
HETATM    2  C2  UNL     1     -12.575 -11.581   5.110  1.00  0.00    -0.082 C 
HETATM    3  C3  UNL     1     -12.811 -10.495   6.031  1.00  0.00    -0.002 C 
HETATM    4  C4  UNL     1     -13.195  -9.255   5.713  1.00  0.00    -0.051 C 
HETATM    5  C5  UNL     1     -13.337  -8.412   6.880  1.00  0.00     0.053 C 
HETATM    6  C6  UNL     1     -12.739  -9.230   8.012  1.00  0.00     0.017 C 
HETATM    7  C7  UNL     1     -12.780 -10.618   7.517  1.00  0.00     0.049 C 
HETATM    8  C8  UNL     1     -12.635  -7.081   6.815  1.00  0.00     0.096 C 
HETATM    9  C9  UNL     1     -11.824  -6.911   8.099  1.00  0.00     0.049 C 
HETATM   10  C10 UNL     1     -13.642  -5.961   6.870  1.00  0.00     0.049 C 
HETATM   11  O1  UNL     1     -11.777  -6.877   5.786  1.00  0.00    -0.229 OA
HETATM   12  O2  UNL     1     -11.413  -7.895   5.089  1.00  0.00    -0.225 OA
HETATM   13  C11 UNL     1     -12.211  -7.980   3.901  1.00  0.00     0.132 C 
HETATM   14  C12 UNL     1     -11.322  -8.711   2.877  1.00  0.00     0.048 C 
HETATM   15  C13 UNL     1     -11.220  -7.780   1.723  1.00  0.00     0.053 C 
HETATM   16  C14 UNL     1     -11.196  -6.453   2.329  1.00  0.00     0.159 C 
HETATM   17  C22 UNL     1     -12.304  -6.635   3.411  1.00  0.00     0.199 C 
HETATM   18  C23 UNL     1     -13.358  -8.848   4.250  1.00  0.00     0.052 C 
HETATM   19  C24 UNL     1     -14.740  -8.393   4.064  1.00  0.00     0.018 C 
ENDROOT
BRANCH  17  20
HETATM   20  O6  UNL     1     -13.436  -6.184   2.805  1.00  0.00    -0.389 OA
ATOM     21  H6  UNL     1     -13.605  -6.361   1.887  1.00  0.00     0.210 HD
ENDBRANCH  17  20
BRANCH  16  22
HETATM   22  O3  UNL     1     -11.571  -5.378   1.501  1.00  0.00    -0.296 OA
BRANCH  22  23
HETATM   23  C15 UNL     1     -11.571  -5.413   0.130  1.00  0.00     0.289 C 
HETATM   24  O4  UNL     1     -10.579  -5.973  -0.406  1.00  0.00    -0.260 OA
BRANCH  23  25
HETATM   25  C16 UNL     1     -12.594  -4.862  -0.718  1.00  0.00     0.009 C 
HETATM   26  C17 UNL     1     -12.382  -3.505  -1.354  1.00  0.00     0.054 C 
HETATM   27  C18 UNL     1     -13.721  -5.485  -0.982  1.00  0.00    -0.018 C 
HETATM   28  C19 UNL     1     -14.059  -6.810  -0.441  1.00  0.00     0.036 C 
ENDBRANCH  23  25
ENDBRANCH  22  23
ENDBRANCH  16  22
BRANCH  16  29
HETATM   29  C20 UNL     1      -9.886  -6.143   2.911  1.00  0.00     0.160 C 
HETATM   30  C21 UNL     1      -8.604  -6.732   2.365  1.00  0.00     0.094 C 
HETATM   31  O5  UNL     1      -9.704  -5.393   3.874  1.00  0.00    -0.295 OA
ENDBRANCH  16  29
TORSDOF 5
ENDMDL
