MODEL 1
REMARK VINA RESULT: -4.100661480      0.000      0.000
REMARK  4 active torsions:
REMARK  status: ('A' for Active; 'I' for Inactive)
REMARK    1  A    between atoms: N1_1  and  C1_5 
REMARK    2  A    between atoms: C1_5  and  C2_6 
REMARK    3  A    between atoms: C2_6  and  C3_7 
REMARK    4  A    between atoms: C3_7  and  N2_8 
ROOT
HETATM    1  N2  UNL     1     -63.813  28.181  18.914  1.00  0.00    -0.362 N 
ATOM      2  H2  UNL     1     -63.883  29.130  18.545  1.00  0.00     0.162 HD
HETATM    3  C4  UNL     1     -64.803  27.651  19.554  1.00  0.00     0.171 C 
HETATM    4  N3  UNL     1     -64.846  26.331  20.127  1.00  0.00    -0.361 N 
ATOM      5  H3  UNL     1     -64.288  25.527  19.838  1.00  0.00     0.162 HD
HETATM    6  C5  UNL     1     -65.829  26.357  21.192  1.00  0.00     0.142 C 
HETATM    7  C6  UNL     1     -66.870  27.298  20.621  1.00  0.00     0.142 C 
HETATM    8  N4  UNL     1     -66.074  28.218  19.850  1.00  0.00    -0.361 N 
ATOM      9  H4  UNL     1     -66.379  29.146  19.556  1.00  0.00     0.162 HD
ENDROOT
BRANCH   1  10
HETATM   10  C3  UNL     1     -62.603  27.406  18.730  1.00  0.00     0.124 C 
BRANCH  10  11
HETATM   11  C2  UNL     1     -62.491  26.890  17.316  1.00  0.00     0.047 C 
BRANCH  11  12
HETATM   12  C1  UNL     1     -63.394  27.745  16.445  1.00  0.00     0.231 C 
BRANCH  12  13
HETATM   13  N1  UNL     1     -62.626  28.510  15.474  1.00  0.00    -0.079 N 
ATOM     14  H13 UNL     1     -62.173  29.315  15.908  1.00  0.00     0.274 HD
ATOM     15  H12 UNL     1     -61.793  28.004  15.174  1.00  0.00     0.274 HD
ATOM     16  H11 UNL     1     -63.202  28.788  14.680  1.00  0.00     0.274 HD
ENDBRANCH  12  13
ENDBRANCH  11  12
ENDBRANCH  10  11
ENDBRANCH   1  10
TORSDOF 4
ENDMDL
MODEL 2
REMARK VINA RESULT: -3.911514794      0.805      1.358
REMARK  4 active torsions:
REMARK  status: ('A' for Active; 'I' for Inactive)
REMARK    1  A    between atoms: N1_1  and  C1_5 
REMARK    2  A    between atoms: C1_5  and  C2_6 
REMARK    3  A    between atoms: C2_6  and  C3_7 
REMARK    4  A    between atoms: C3_7  and  N2_8 
ROOT
HETATM    1  N2  UNL     1     -63.428  26.585  19.587  1.00  0.00    -0.362 N 
ATOM      2  H2  UNL     1     -63.070  25.671  19.865  1.00  0.00     0.162 HD
HETATM    3  C4  UNL     1     -64.609  26.965  19.947  1.00  0.00     0.171 C 
HETATM    4  N3  UNL     1     -65.242  28.219  19.630  1.00  0.00    -0.361 N 
ATOM      5  H3  UNL     1     -64.770  29.092  19.394  1.00  0.00     0.162 HD
HETATM    6  C5  UNL     1     -66.675  28.009  19.707  1.00  0.00     0.142 C 
HETATM    7  C6  UNL     1     -66.777  27.033  20.861  1.00  0.00     0.142 C 
HETATM    8  N4  UNL     1     -65.567  26.262  20.730  1.00  0.00    -0.361 N 
ATOM      9  H4  UNL     1     -65.418  25.340  21.141  1.00  0.00     0.162 HD
ENDROOT
BRANCH   1  10
HETATM   10  C3  UNL     1     -62.621  27.480  18.782  1.00  0.00     0.124 C 
BRANCH  10  11
HETATM   11  C2  UNL     1     -62.434  26.942  17.383  1.00  0.00     0.047 C 
BRANCH  11  12
HETATM   12  C1  UNL     1     -63.393  27.689  16.474  1.00  0.00     0.231 C 
BRANCH  12  13
HETATM   13  N1  UNL     1     -62.678  28.478  15.483  1.00  0.00    -0.079 N 
ATOM     14  H13 UNL     1     -61.688  28.563  15.716  1.00  0.00     0.274 HD
ATOM     15  H12 UNL     1     -62.589  27.978  14.599  1.00  0.00     0.274 HD
ATOM     16  H11 UNL     1     -63.111  29.393  15.353  1.00  0.00     0.274 HD
ENDBRANCH  12  13
ENDBRANCH  11  12
ENDBRANCH  10  11
ENDBRANCH   1  10
TORSDOF 4
ENDMDL
MODEL 3
REMARK VINA RESULT: -3.834634993      1.620      2.291
REMARK  4 active torsions:
REMARK  status: ('A' for Active; 'I' for Inactive)
REMARK    1  A    between atoms: N1_1  and  C1_5 
REMARK    2  A    between atoms: C1_5  and  C2_6 
REMARK    3  A    between atoms: C2_6  and  C3_7 
REMARK    4  A    between atoms: C3_7  and  N2_8 
ROOT
HETATM    1  N2  UNL     1     -63.608  27.870  19.240  1.00  0.00    -0.362 N 
ATOM      2  H2  UNL     1     -63.474  28.774  18.787  1.00  0.00     0.162 HD
HETATM    3  C4  UNL     1     -64.770  27.526  19.689  1.00  0.00     0.171 C 
HETATM    4  N3  UNL     1     -65.105  26.291  20.347  1.00  0.00    -0.361 N 
ATOM      5  H3  UNL     1     -64.611  25.402  20.255  1.00  0.00     0.162 HD
HETATM    6  C5  UNL     1     -66.275  26.543  21.166  1.00  0.00     0.142 C 
HETATM    7  C6  UNL     1     -67.041  27.526  20.304  1.00  0.00     0.142 C 
HETATM    8  N4  UNL     1     -65.988  28.261  19.652  1.00  0.00    -0.361 N 
ATOM      9  H4  UNL     1     -66.100  29.179  19.222  1.00  0.00     0.162 HD
ENDROOT
BRANCH   1  10
HETATM   10  C3  UNL     1     -62.500  26.949  19.391  1.00  0.00     0.124 C 
BRANCH  10  11
HETATM   11  C2  UNL     1     -61.511  27.089  18.259  1.00  0.00     0.047 C 
BRANCH  11  12
HETATM   12  C1  UNL     1     -60.119  27.077  18.865  1.00  0.00     0.231 C 
BRANCH  12  13
HETATM   13  N1  UNL     1     -60.169  26.880  20.305  1.00  0.00    -0.079 N 
ATOM     14  H13 UNL     1     -60.388  25.912  20.543  1.00  0.00     0.274 HD
ATOM     15  H12 UNL     1     -59.240  26.937  20.723  1.00  0.00     0.274 HD
ATOM     16  H11 UNL     1     -60.819  27.530  20.747  1.00  0.00     0.274 HD
ENDBRANCH  12  13
ENDBRANCH  11  12
ENDBRANCH  10  11
ENDBRANCH   1  10
TORSDOF 4
ENDMDL
MODEL 4
REMARK VINA RESULT: -3.780839667      1.110      1.903
REMARK  4 active torsions:
REMARK  status: ('A' for Active; 'I' for Inactive)
REMARK    1  A    between atoms: N1_1  and  C1_5 
REMARK    2  A    between atoms: C1_5  and  C2_6 
REMARK    3  A    between atoms: C2_6  and  C3_7 
REMARK    4  A    between atoms: C3_7  and  N2_8 
ROOT
HETATM    1  N2  UNL     1     -64.429  28.010  18.998  1.00  0.00    -0.362 N 
ATOM      2  H2  UNL     1     -63.562  27.577  18.678  1.00  0.00     0.162 HD
HETATM    3  C4  UNL     1     -65.167  27.426  19.883  1.00  0.00     0.171 C 
HETATM    4  N3  UNL     1     -66.409  27.916  20.423  1.00  0.00    -0.361 N 
ATOM      5  H3  UNL     1     -66.709  28.890  20.465  1.00  0.00     0.162 HD
HETATM    6  C5  UNL     1     -67.154  26.765  20.897  1.00  0.00     0.142 C 
HETATM    7  C6  UNL     1     -66.043  25.881  21.427  1.00  0.00     0.142 C 
HETATM    8  N4  UNL     1     -64.951  26.182  20.538  1.00  0.00    -0.361 N 
ATOM      9  H4  UNL     1     -64.135  25.585  20.397  1.00  0.00     0.162 HD
ENDROOT
BRANCH   1  10
HETATM   10  C3  UNL     1     -64.854  29.289  18.466  1.00  0.00     0.124 C 
BRANCH  10  11
HETATM   11  C2  UNL     1     -64.269  29.537  17.096  1.00  0.00     0.047 C 
BRANCH  11  12
HETATM   12  C1  UNL     1     -63.635  28.239  16.629  1.00  0.00     0.231 C 
BRANCH  12  13
HETATM   13  N1  UNL     1     -62.717  28.465  15.523  1.00  0.00    -0.079 N 
ATOM     14  H13 UNL     1     -63.185  28.363  14.622  1.00  0.00     0.274 HD
ATOM     15  H12 UNL     1     -62.452  29.448  15.452  1.00  0.00     0.274 HD
ATOM     16  H11 UNL     1     -61.898  27.861  15.590  1.00  0.00     0.274 HD
ENDBRANCH  12  13
ENDBRANCH  11  12
ENDBRANCH  10  11
ENDBRANCH   1  10
TORSDOF 4
ENDMDL
MODEL 5
REMARK VINA RESULT: -3.708222024      1.104      1.337
REMARK  4 active torsions:
REMARK  status: ('A' for Active; 'I' for Inactive)
REMARK    1  A    between atoms: N1_1  and  C1_5 
REMARK    2  A    between atoms: C1_5  and  C2_6 
REMARK    3  A    between atoms: C2_6  and  C3_7 
REMARK    4  A    between atoms: C3_7  and  N2_8 
ROOT
HETATM    1  N2  UNL     1     -65.170  28.466  19.472  1.00  0.00    -0.362 N 
ATOM      2  H2  UNL     1     -65.658  29.362  19.458  1.00  0.00     0.162 HD
HETATM    3  C4  UNL     1     -65.620  27.485  20.182  1.00  0.00     0.171 C 
HETATM    4  N3  UNL     1     -65.039  26.173  20.299  1.00  0.00    -0.361 N 
ATOM      5  H3  UNL     1     -64.430  25.718  19.619  1.00  0.00     0.162 HD
HETATM    6  C5  UNL     1     -65.481  25.619  21.564  1.00  0.00     0.142 C 
HETATM    7  C6  UNL     1     -66.891  26.165  21.659  1.00  0.00     0.142 C 
HETATM    8  N4  UNL     1     -66.777  27.446  21.011  1.00  0.00    -0.361 N 
ATOM      9  H4  UNL     1     -67.433  28.218  21.128  1.00  0.00     0.162 HD
ENDROOT
BRANCH   1  10
HETATM   10  C3  UNL     1     -63.961  28.273  18.699  1.00  0.00     0.124 C 
BRANCH  10  11
HETATM   11  C2  UNL     1     -64.128  28.773  17.284  1.00  0.00     0.047 C 
BRANCH  11  12
HETATM   12  C1  UNL     1     -63.352  27.838  16.374  1.00  0.00     0.231 C 
BRANCH  12  13
HETATM   13  N1  UNL     1     -62.575  28.578  15.391  1.00  0.00    -0.079 N 
ATOM     14  H13 UNL     1     -62.299  27.983  14.609  1.00  0.00     0.274 HD
ATOM     15  H12 UNL     1     -63.154  29.246  14.883  1.00  0.00     0.274 HD
ATOM     16  H11 UNL     1     -61.769  29.031  15.820  1.00  0.00     0.274 HD
ENDBRANCH  12  13
ENDBRANCH  11  12
ENDBRANCH  10  11
ENDBRANCH   1  10
TORSDOF 4
ENDMDL
