MODEL 1
REMARK VINA RESULT: -3.960270744      0.000      0.000
REMARK  5 active torsions:
REMARK  status: ('A' for Active; 'I' for Inactive)
REMARK    1  A    between atoms: C2_2  and  C3_3 
REMARK    2  A    between atoms: C3_3  and  N1_4 
REMARK    3  A    between atoms: C3_3  and  N2_8 
REMARK    4  A    between atoms: N2_8  and  C4_11 
REMARK    5  A    between atoms: C5_13  and  N3_14 
ROOT
HETATM    1  N2  UNL     1     -61.611  26.870  18.072  1.00  0.00    -0.012 N 
ATOM      2  H21 UNL     1     -61.119  27.221  17.251  1.00  0.00     0.283 HD
ATOM      3  H22 UNL     1     -61.435  25.874  17.939  1.00  0.00     0.283 HD
ENDROOT
BRANCH   1   4
HETATM    4  C3  UNL     1     -63.013  27.177  18.027  1.00  0.00     0.405 C 
BRANCH   4   5
HETATM    5  C2  UNL     1     -63.476  27.238  16.600  1.00  0.00     0.024 C 
HETATM    6  C1  UNL     1     -63.064  28.203  15.809  1.00  0.00     0.010 C 
ENDBRANCH   4   5
BRANCH   4   7
HETATM    7  N1  UNL     1     -63.839  26.190  18.706  1.00  0.00    -0.047 N 
ATOM      8  H13 UNL     1     -63.430  25.860  19.580  1.00  0.00     0.277 HD
ATOM      9  H12 UNL     1     -64.692  26.586  19.101  1.00  0.00     0.277 HD
ATOM     10  H11 UNL     1     -64.019  25.439  18.039  1.00  0.00     0.277 HD
ENDBRANCH   4   7
ENDBRANCH   1   4
BRANCH   1  11
HETATM   11  C4  UNL     1     -61.033  27.357  19.290  1.00  0.00     0.382 A 
HETATM   12  O1  UNL     1     -59.821  28.003  19.250  1.00  0.00    -0.319 OA
HETATM   13  C5  UNL     1     -59.850  26.684  19.857  1.00  0.00     0.377 A 
BRANCH  13  14
HETATM   14  N3  UNL     1     -59.725  26.685  21.282  1.00  0.00    -0.049 N 
ATOM     15  H33 UNL     1     -58.803  26.336  21.542  1.00  0.00     0.277 HD
ATOM     16  H32 UNL     1     -59.664  27.646  21.617  1.00  0.00     0.277 HD
ATOM     17  H31 UNL     1     -60.440  26.184  21.809  1.00  0.00     0.277 HD
ENDBRANCH  13  14
ENDBRANCH   1  11
TORSDOF 5
ENDMDL
MODEL 2
REMARK VINA RESULT: -3.889459514      1.265      1.624
REMARK  5 active torsions:
REMARK  status: ('A' for Active; 'I' for Inactive)
REMARK    1  A    between atoms: C2_2  and  C3_3 
REMARK    2  A    between atoms: C3_3  and  N1_4 
REMARK    3  A    between atoms: C3_3  and  N2_8 
REMARK    4  A    between atoms: N2_8  and  C4_11 
REMARK    5  A    between atoms: C5_13  and  N3_14 
ROOT
HETATM    1  N2  UNL     1     -61.639  26.903  17.745  1.00  0.00    -0.012 N 
ATOM      2  H21 UNL     1     -61.117  27.348  16.990  1.00  0.00     0.283 HD
ATOM      3  H22 UNL     1     -61.382  25.934  17.555  1.00  0.00     0.283 HD
ENDROOT
BRANCH   1   4
HETATM    4  C3  UNL     1     -63.053  27.116  17.615  1.00  0.00     0.405 C 
BRANCH   4   5
HETATM    5  C2  UNL     1     -63.536  28.018  18.714  1.00  0.00     0.024 C 
HETATM    6  C1  UNL     1     -64.558  28.819  18.514  1.00  0.00     0.010 C 
ENDBRANCH   4   5
BRANCH   4   7
HETATM    7  N1  UNL     1     -63.427  27.737  16.354  1.00  0.00    -0.047 N 
ATOM      8  H13 UNL     1     -62.948  28.622  16.187  1.00  0.00     0.277 HD
ATOM      9  H12 UNL     1     -63.067  27.238  15.540  1.00  0.00     0.277 HD
ATOM     10  H11 UNL     1     -64.443  27.825  16.351  1.00  0.00     0.277 HD
ENDBRANCH   4   7
ENDBRANCH   1   4
BRANCH   1  11
HETATM   11  C4  UNL     1     -61.187  27.333  19.035  1.00  0.00     0.382 A 
HETATM   12  O1  UNL     1     -60.016  28.047  19.135  1.00  0.00    -0.319 OA
HETATM   13  C5  UNL     1     -60.012  26.688  19.649  1.00  0.00     0.377 A 
BRANCH  13  14
HETATM   14  N3  UNL     1     -59.997  26.595  21.076  1.00  0.00    -0.049 N 
ATOM     15  H33 UNL     1     -59.210  27.131  21.444  1.00  0.00     0.277 HD
ATOM     16  H32 UNL     1     -60.780  27.124  21.460  1.00  0.00     0.277 HD
ATOM     17  H31 UNL     1     -59.988  25.658  21.479  1.00  0.00     0.277 HD
ENDBRANCH  13  14
ENDBRANCH   1  11
TORSDOF 5
ENDMDL
MODEL 3
REMARK VINA RESULT: -3.869288688      2.094      2.566
REMARK  5 active torsions:
REMARK  status: ('A' for Active; 'I' for Inactive)
REMARK    1  A    between atoms: C2_2  and  C3_3 
REMARK    2  A    between atoms: C3_3  and  N1_4 
REMARK    3  A    between atoms: C3_3  and  N2_8 
REMARK    4  A    between atoms: N2_8  and  C4_11 
REMARK    5  A    between atoms: C5_13  and  N3_14 
ROOT
HETATM    1  N2  UNL     1     -63.421  27.052  17.489  1.00  0.00    -0.012 N 
ATOM      2  H21 UNL     1     -63.733  26.129  17.191  1.00  0.00     0.283 HD
ATOM      3  H22 UNL     1     -63.943  27.114  18.363  1.00  0.00     0.283 HD
ENDROOT
BRANCH   1   4
HETATM    4  C3  UNL     1     -63.811  28.074  16.559  1.00  0.00     0.405 C 
BRANCH   4   5
HETATM    5  C2  UNL     1     -64.172  29.329  17.301  1.00  0.00     0.024 C 
HETATM    6  C1  UNL     1     -64.919  29.269  18.381  1.00  0.00     0.010 C 
ENDBRANCH   4   5
BRANCH   4   7
HETATM    7  N1  UNL     1     -62.762  28.422  15.613  1.00  0.00    -0.047 N 
ATOM      8  H13 UNL     1     -63.019  29.192  14.996  1.00  0.00     0.277 HD
ATOM      9  H12 UNL     1     -61.958  28.870  16.054  1.00  0.00     0.277 HD
ATOM     10  H11 UNL     1     -62.516  27.570  15.109  1.00  0.00     0.277 HD
ENDBRANCH   4   7
ENDBRANCH   1   4
BRANCH   1  11
HETATM   11  C4  UNL     1     -62.005  27.093  17.708  1.00  0.00     0.382 A 
HETATM   12  O1  UNL     1     -61.345  25.943  18.071  1.00  0.00    -0.319 OA
HETATM   13  C5  UNL     1     -61.475  26.980  19.080  1.00  0.00     0.377 A 
BRANCH  13  14
HETATM   14  N3  UNL     1     -60.263  27.683  19.366  1.00  0.00    -0.049 N 
ATOM     15  H33 UNL     1     -59.594  27.529  18.611  1.00  0.00     0.277 HD
ATOM     16  H32 UNL     1     -60.422  28.686  19.275  1.00  0.00     0.277 HD
ATOM     17  H31 UNL     1     -59.816  27.488  20.262  1.00  0.00     0.277 HD
ENDBRANCH  13  14
ENDBRANCH   1  11
TORSDOF 5
ENDMDL
MODEL 4
REMARK VINA RESULT: -3.708162132      2.546      4.214
REMARK  5 active torsions:
REMARK  status: ('A' for Active; 'I' for Inactive)
REMARK    1  A    between atoms: C2_2  and  C3_3 
REMARK    2  A    between atoms: C3_3  and  N1_4 
REMARK    3  A    between atoms: C3_3  and  N2_8 
REMARK    4  A    between atoms: N2_8  and  C4_11 
REMARK    5  A    between atoms: C5_13  and  N3_14 
ROOT
HETATM    1  N2  UNL     1     -62.565  27.775  19.321  1.00  0.00    -0.012 N 
ATOM      2  H21 UNL     1     -62.435  28.769  19.510  1.00  0.00     0.283 HD
ATOM      3  H22 UNL     1     -62.201  27.407  20.200  1.00  0.00     0.283 HD
ENDROOT
BRANCH   1   4
HETATM    4  C3  UNL     1     -61.788  27.338  18.195  1.00  0.00     0.405 C 
BRANCH   4   5
HETATM    5  C2  UNL     1     -60.383  27.038  18.631  1.00  0.00     0.024 C 
HETATM    6  C1  UNL     1     -60.126  26.737  19.884  1.00  0.00     0.010 C 
ENDBRANCH   4   5
BRANCH   4   7
HETATM    7  N1  UNL     1     -62.311  26.133  17.570  1.00  0.00    -0.047 N 
ATOM      8  H13 UNL     1     -62.384  25.347  18.216  1.00  0.00     0.277 HD
ATOM      9  H12 UNL     1     -63.301  26.202  17.335  1.00  0.00     0.277 HD
ATOM     10  H11 UNL     1     -61.722  25.934  16.762  1.00  0.00     0.277 HD
ENDBRANCH   4   7
ENDBRANCH   1   4
BRANCH   1  11
HETATM   11  C4  UNL     1     -63.946  27.442  19.133  1.00  0.00     0.382 A 
HETATM   12  O1  UNL     1     -64.568  27.783  17.955  1.00  0.00    -0.319 OA
HETATM   13  C5  UNL     1     -64.963  28.510  19.149  1.00  0.00     0.377 A 
BRANCH  13  14
HETATM   14  N3  UNL     1     -66.257  28.165  19.651  1.00  0.00    -0.049 N 
ATOM     15  H33 UNL     1     -66.461  28.724  20.479  1.00  0.00     0.277 HD
ATOM     16  H32 UNL     1     -66.973  28.508  19.011  1.00  0.00     0.277 HD
ATOM     17  H31 UNL     1     -66.426  27.180  19.855  1.00  0.00     0.277 HD
ENDBRANCH  13  14
ENDBRANCH   1  11
TORSDOF 5
ENDMDL
MODEL 5
REMARK VINA RESULT: -3.678335478      2.825      4.043
REMARK  5 active torsions:
REMARK  status: ('A' for Active; 'I' for Inactive)
REMARK    1  A    between atoms: C2_2  and  C3_3 
REMARK    2  A    between atoms: C3_3  and  N1_4 
REMARK    3  A    between atoms: C3_3  and  N2_8 
REMARK    4  A    between atoms: N2_8  and  C4_11 
REMARK    5  A    between atoms: C5_13  and  N3_14 
ROOT
HETATM    1  N2  UNL     1     -63.389  27.940  19.182  1.00  0.00    -0.012 N 
ATOM      2  H21 UNL     1     -63.817  28.377  18.367  1.00  0.00     0.283 HD
ATOM      3  H22 UNL     1     -63.013  28.779  19.623  1.00  0.00     0.283 HD
ENDROOT
BRANCH   1   4
HETATM    4  C3  UNL     1     -62.352  27.018  18.813  1.00  0.00     0.405 C 
BRANCH   4   5
HETATM    5  C2  UNL     1     -62.329  26.847  17.321  1.00  0.00     0.024 C 
HETATM    6  C1  UNL     1     -63.257  27.404  16.575  1.00  0.00     0.010 C 
ENDBRANCH   4   5
BRANCH   4   7
HETATM    7  N1  UNL     1     -61.024  27.457  19.215  1.00  0.00    -0.047 N 
ATOM      8  H13 UNL     1     -61.009  27.885  20.141  1.00  0.00     0.277 HD
ATOM      9  H12 UNL     1     -60.392  26.682  19.418  1.00  0.00     0.277 HD
ATOM     10  H11 UNL     1     -60.676  28.075  18.482  1.00  0.00     0.277 HD
ENDBRANCH   4   7
ENDBRANCH   1   4
BRANCH   1  11
HETATM   11  C4  UNL     1     -64.360  27.290  20.012  1.00  0.00     0.382 A 
HETATM   12  O1  UNL     1     -65.230  26.385  19.451  1.00  0.00    -0.319 OA
HETATM   13  C5  UNL     1     -65.784  27.653  19.890  1.00  0.00     0.377 A 
BRANCH  13  14
HETATM   14  N3  UNL     1     -66.577  27.572  21.078  1.00  0.00    -0.049 N 
ATOM     15  H33 UNL     1     -66.929  26.621  21.188  1.00  0.00     0.277 HD
ATOM     16  H32 UNL     1     -65.973  27.646  21.896  1.00  0.00     0.277 HD
ATOM     17  H31 UNL     1     -67.349  28.233  21.164  1.00  0.00     0.277 HD
ENDBRANCH  13  14
ENDBRANCH   1  11
TORSDOF 5
ENDMDL
