MODEL 1
REMARK VINA RESULT: -4.147635706      0.000      0.000
REMARK  4 active torsions:
REMARK  status: ('A' for Active; 'I' for Inactive)
REMARK    1  A    between atoms: N1_1  and  C1_5 
REMARK    2  A    between atoms: C1_5  and  C2_6 
REMARK    3  A    between atoms: C2_6  and  N2_7 
REMARK    4  A    between atoms: N2_7  and  N3_8 
ROOT
HETATM    1  C2  UNL     1     -64.765  29.908  17.604  1.00  0.00     0.157 C 
ENDROOT
BRANCH   1   2
HETATM    2  C1  UNL     1     -64.697  31.149  16.766  1.00  0.00     0.247 C 
BRANCH   2   3
HETATM    3  N1  UNL     1     -63.685  31.006  15.741  1.00  0.00    -0.078 N 
ATOM      4  H13 UNL     1     -63.149  30.145  15.852  1.00  0.00     0.274 HD
ATOM      5  H12 UNL     1     -64.094  30.811  14.826  1.00  0.00     0.274 HD
ATOM      6  H11 UNL     1     -63.083  31.829  15.721  1.00  0.00     0.274 HD
ENDBRANCH   2   3
ENDBRANCH   1   2
BRANCH   1   7
HETATM    7  N2  UNL     1     -64.068  28.810  16.936  1.00  0.00    -0.147 NA
BRANCH   7   8
HETATM    8  N3  UNL     1     -63.067  28.405  17.814  1.00  0.00    -0.149 NA
HETATM    9  C3  UNL     1     -63.680  27.619  18.851  1.00  0.00     0.131 C 
HETATM   10  C4  UNL     1     -62.467  26.911  19.434  1.00  0.00     0.035 C 
HETATM   11  C5  UNL     1     -61.440  26.935  18.334  1.00  0.00     0.131 C 
HETATM   12  N4  UNL     1     -62.094  27.613  17.221  1.00  0.00    -0.149 NA
ENDBRANCH   7   8
ENDBRANCH   1   7
TORSDOF 4
ENDMDL
MODEL 2
REMARK VINA RESULT: -4.124518735      1.804      2.703
REMARK  4 active torsions:
REMARK  status: ('A' for Active; 'I' for Inactive)
REMARK    1  A    between atoms: N1_1  and  C1_5 
REMARK    2  A    between atoms: C1_5  and  C2_6 
REMARK    3  A    between atoms: C2_6  and  N2_7 
REMARK    4  A    between atoms: N2_7  and  N3_8 
ROOT
HETATM    1  C2  UNL     1     -65.185  29.395  18.632  1.00  0.00     0.157 C 
ENDROOT
BRANCH   1   2
HETATM    2  C1  UNL     1     -66.116  28.400  19.259  1.00  0.00     0.247 C 
BRANCH   2   3
HETATM    3  N1  UNL     1     -65.469  27.742  20.375  1.00  0.00    -0.078 N 
ATOM      4  H13 UNL     1     -65.275  26.761  20.177  1.00  0.00     0.274 HD
ATOM      5  H12 UNL     1     -64.509  28.063  20.501  1.00  0.00     0.274 HD
ATOM      6  H11 UNL     1     -66.024  27.858  21.223  1.00  0.00     0.274 HD
ENDBRANCH   2   3
ENDBRANCH   1   2
BRANCH   1   7
HETATM    7  N2  UNL     1     -64.479  28.782  17.508  1.00  0.00    -0.147 NA
BRANCH   7   8
HETATM    8  N3  UNL     1     -63.679  27.785  18.060  1.00  0.00    -0.149 NA
HETATM    9  C3  UNL     1     -63.029  27.092  16.980  1.00  0.00     0.131 C 
HETATM   10  C4  UNL     1     -61.907  26.384  17.723  1.00  0.00     0.035 C 
HETATM   11  C5  UNL     1     -61.713  27.184  18.983  1.00  0.00     0.131 C 
HETATM   12  N4  UNL     1     -62.682  28.271  18.893  1.00  0.00    -0.149 NA
ENDBRANCH   7   8
ENDBRANCH   1   7
TORSDOF 4
ENDMDL
MODEL 3
REMARK VINA RESULT: -4.102030258      1.367      3.887
REMARK  4 active torsions:
REMARK  status: ('A' for Active; 'I' for Inactive)
REMARK    1  A    between atoms: N1_1  and  C1_5 
REMARK    2  A    between atoms: C1_5  and  C2_6 
REMARK    3  A    between atoms: C2_6  and  N2_7 
REMARK    4  A    between atoms: N2_7  and  N3_8 
ROOT
HETATM    1  C2  UNL     1     -62.967  26.976  17.043  1.00  0.00     0.157 C 
ENDROOT
BRANCH   1   2
HETATM    2  C1  UNL     1     -61.899  26.751  18.072  1.00  0.00     0.247 C 
BRANCH   2   3
HETATM    3  N1  UNL     1     -62.173  27.534  19.258  1.00  0.00    -0.078 N 
ATOM      4  H13 UNL     1     -63.097  27.965  19.225  1.00  0.00     0.274 HD
ATOM      5  H12 UNL     1     -62.312  26.944  20.079  1.00  0.00     0.274 HD
ATOM      6  H11 UNL     1     -61.437  28.224  19.404  1.00  0.00     0.274 HD
ENDBRANCH   2   3
ENDBRANCH   1   2
BRANCH   1   7
HETATM    7  N2  UNL     1     -64.156  27.549  17.671  1.00  0.00    -0.147 NA
BRANCH   7   8
HETATM    8  N3  UNL     1     -64.453  28.698  16.943  1.00  0.00    -0.149 NA
HETATM    9  C3  UNL     1     -64.815  29.731  17.877  1.00  0.00     0.131 C 
HETATM   10  C4  UNL     1     -64.670  30.971  17.009  1.00  0.00     0.035 C 
HETATM   11  C5  UNL     1     -63.727  30.563  15.908  1.00  0.00     0.131 C 
HETATM   12  N4  UNL     1     -63.385  29.176  16.198  1.00  0.00    -0.149 NA
ENDBRANCH   7   8
ENDBRANCH   1   7
TORSDOF 4
ENDMDL
MODEL 4
REMARK VINA RESULT: -4.068162010      1.169      1.283
REMARK  4 active torsions:
REMARK  status: ('A' for Active; 'I' for Inactive)
REMARK    1  A    between atoms: N1_1  and  C1_5 
REMARK    2  A    between atoms: C1_5  and  C2_6 
REMARK    3  A    between atoms: C2_6  and  N2_7 
REMARK    4  A    between atoms: N2_7  and  N3_8 
ROOT
HETATM    1  C2  UNL     1     -64.551  29.592  17.282  1.00  0.00     0.157 C 
ENDROOT
BRANCH   1   2
HETATM    2  C1  UNL     1     -64.564  31.003  16.774  1.00  0.00     0.247 C 
BRANCH   2   3
HETATM    3  N1  UNL     1     -63.717  31.123  15.606  1.00  0.00    -0.078 N 
ATOM      4  H13 UNL     1     -63.206  30.262  15.416  1.00  0.00     0.274 HD
ATOM      5  H12 UNL     1     -64.261  31.169  14.745  1.00  0.00     0.274 HD
ATOM      6  H11 UNL     1     -63.092  31.923  15.704  1.00  0.00     0.274 HD
ENDBRANCH   2   3
ENDBRANCH   1   2
BRANCH   1   7
HETATM    7  N2  UNL     1     -63.839  29.523  18.557  1.00  0.00    -0.147 NA
BRANCH   7   8
HETATM    8  N3  UNL     1     -63.315  28.236  18.630  1.00  0.00    -0.149 NA
HETATM    9  C3  UNL     1     -63.306  27.685  17.302  1.00  0.00     0.131 C 
HETATM   10  C4  UNL     1     -62.338  26.526  17.473  1.00  0.00     0.035 C 
HETATM   11  C5  UNL     1     -61.505  26.892  18.672  1.00  0.00     0.131 C 
HETATM   12  N4  UNL     1     -62.009  28.193  19.099  1.00  0.00    -0.149 NA
ENDBRANCH   7   8
ENDBRANCH   1   7
TORSDOF 4
ENDMDL
MODEL 5
REMARK VINA RESULT: -4.045881941      2.035      3.810
REMARK  4 active torsions:
REMARK  status: ('A' for Active; 'I' for Inactive)
REMARK    1  A    between atoms: N1_1  and  C1_5 
REMARK    2  A    between atoms: C1_5  and  C2_6 
REMARK    3  A    between atoms: C2_6  and  N2_7 
REMARK    4  A    between atoms: N2_7  and  N3_8 
ROOT
HETATM    1  C2  UNL     1     -63.692  26.318  19.355  1.00  0.00     0.157 C 
ENDROOT
BRANCH   1   2
HETATM    2  C1  UNL     1     -64.874  26.436  20.270  1.00  0.00     0.247 C 
BRANCH   2   3
HETATM    3  N1  UNL     1     -65.464  27.754  20.160  1.00  0.00    -0.078 N 
ATOM      4  H13 UNL     1     -64.755  28.483  20.081  1.00  0.00     0.274 HD
ATOM      5  H12 UNL     1     -65.922  27.892  19.258  1.00  0.00     0.274 HD
ATOM      6  H11 UNL     1     -66.099  27.923  20.939  1.00  0.00     0.274 HD
ENDBRANCH   2   3
ENDBRANCH   1   2
BRANCH   1   7
HETATM    7  N2  UNL     1     -62.803  27.465  19.533  1.00  0.00    -0.147 NA
BRANCH   7   8
HETATM    8  N3  UNL     1     -62.734  28.089  18.290  1.00  0.00    -0.149 NA
HETATM    9  C3  UNL     1     -62.794  27.068  17.279  1.00  0.00     0.131 C 
HETATM   10  C4  UNL     1     -63.152  27.893  16.053  1.00  0.00     0.035 C 
HETATM   11  C5  UNL     1     -63.794  29.140  16.602  1.00  0.00     0.131 C 
HETATM   12  N4  UNL     1     -63.783  28.965  18.050  1.00  0.00    -0.149 NA
ENDBRANCH   7   8
ENDBRANCH   1   7
TORSDOF 4
ENDMDL
