MODEL 1
REMARK VINA RESULT: -7.203740296      0.000      0.000
REMARK  9 active torsions:
REMARK  status: ('A' for Active; 'I' for Inactive)
REMARK    1  A    between atoms: C4_4  and  C5_5 
REMARK    2  A    between atoms: C4_4  and  C11_11 
REMARK    3  A    between atoms: C5_5  and  C6_6 
REMARK    4  A    between atoms: C6_6  and  C7_7 
REMARK    5  A    between atoms: C7_7  and  C8_8 
REMARK    6  A    between atoms: C11_11  and  C12_12 
REMARK    7  A    between atoms: C12_12  and  C13_13 
REMARK    8  A    between atoms: C19_20  and  O2_21 
REMARK    9  A    between atoms: C21_24  and  O3_25 
ROOT
HETATM    1  C1  UNL     1      16.830  21.971  48.116  1.00  0.00     0.017 C 
HETATM    2  C2  UNL     1      17.905  21.388  47.607  1.00  0.00    -0.060 C 
HETATM    3  C3  UNL     1      17.798  20.277  46.623  1.00  0.00     0.048 C 
HETATM    4  C4  UNL     1      18.363  19.043  47.254  1.00  0.00    -0.011 C 
HETATM    5  C19 UNL     1      19.571  19.327  48.115  1.00  0.00     0.129 C 
HETATM    6  C20 UNL     1      20.218  20.641  47.843  1.00  0.00     0.068 C 
HETATM    7  C21 UNL     1      19.273  21.811  47.986  1.00  0.00     0.149 C 
ENDROOT
BRANCH   4   8
HETATM    8  C5  UNL     1      18.665  17.958  46.248  1.00  0.00     0.012 C 
BRANCH   8   9
HETATM    9  C6  UNL     1      18.050  18.184  44.890  1.00  0.00     0.001 C 
BRANCH   9  10
HETATM   10  C7  UNL     1      18.363  16.926  44.078  1.00  0.00     0.004 C 
BRANCH  10  11
HETATM   11  C8  UNL     1      19.794  16.877  43.647  1.00  0.00    -0.023 C 
HETATM   12  C9  UNL     1      20.344  15.470  43.599  1.00  0.00     0.009 C 
HETATM   13  C10 UNL     1      19.961  17.610  42.356  1.00  0.00     0.009 C 
ENDBRANCH  10  11
ENDBRANCH   9  10
ENDBRANCH   8   9
ENDBRANCH   4   8
BRANCH   4  14
HETATM   14  C11 UNL     1      17.334  18.472  48.203  1.00  0.00     0.015 C 
BRANCH  14  15
HETATM   15  C12 UNL     1      16.267  17.643  47.597  1.00  0.00     0.037 C 
BRANCH  15  16
HETATM   16  C13 UNL     1      14.943  18.279  47.986  1.00  0.00     0.144 C 
HETATM   17  C14 UNL     1      14.344  19.040  46.867  1.00  0.00     0.001 C 
HETATM   18  C15 UNL     1      13.299  19.821  47.188  1.00  0.00    -0.026 C 
HETATM   19  C16 UNL     1      12.875  19.827  48.609  1.00  0.00     0.058 C 
HETATM   20  C17 UNL     1      14.000  19.649  49.575  1.00  0.00     0.121 C 
HETATM   21  C18 UNL     1      14.295  21.000  50.223  1.00  0.00     0.040 C 
HETATM   22  O1  UNL     1      15.170  19.193  49.023  1.00  0.00    -0.377 OA
ENDBRANCH  15  16
ENDBRANCH  14  15
ENDBRANCH   4  14
BRANCH   5  23
HETATM   23  O2  UNL     1      20.519  18.320  47.975  1.00  0.00    -0.395 OA
ATOM     24  H2  UNL     1      20.738  18.191  47.059  1.00  0.00     0.210 HD
ENDBRANCH   5  23
BRANCH   7  25
HETATM   25  O3  UNL     1      19.260  22.342  49.252  1.00  0.00    -0.391 OA
ATOM     26  H3  UNL     1      18.672  21.841  49.804  1.00  0.00     0.210 HD
ENDBRANCH   7  25
TORSDOF 9
ENDMDL
MODEL 2
REMARK VINA RESULT: -7.060593616      4.813      8.569
REMARK  9 active torsions:
REMARK  status: ('A' for Active; 'I' for Inactive)
REMARK    1  A    between atoms: C4_4  and  C5_5 
REMARK    2  A    between atoms: C4_4  and  C11_11 
REMARK    3  A    between atoms: C5_5  and  C6_6 
REMARK    4  A    between atoms: C6_6  and  C7_7 
REMARK    5  A    between atoms: C7_7  and  C8_8 
REMARK    6  A    between atoms: C11_11  and  C12_12 
REMARK    7  A    between atoms: C12_12  and  C13_13 
REMARK    8  A    between atoms: C19_20  and  O2_21 
REMARK    9  A    between atoms: C21_24  and  O3_25 
ROOT
HETATM    1  C1  UNL     1      18.711  25.010  48.739  1.00  0.00     0.017 C 
HETATM    2  C2  UNL     1      18.015  25.851  49.487  1.00  0.00    -0.060 C 
HETATM    3  C3  UNL     1      17.124  25.372  50.579  1.00  0.00     0.048 C 
HETATM    4  C4  UNL     1      15.715  25.722  50.216  1.00  0.00    -0.011 C 
HETATM    5  C19 UNL     1      15.604  27.064  49.531  1.00  0.00     0.129 C 
HETATM    6  C20 UNL     1      16.786  27.948  49.728  1.00  0.00     0.068 C 
HETATM    7  C21 UNL     1      18.084  27.317  49.281  1.00  0.00     0.149 C 
ENDROOT
BRANCH   4   8
HETATM    8  C5  UNL     1      14.771  25.641  51.392  1.00  0.00     0.012 C 
BRANCH   8   9
HETATM    9  C6  UNL     1      15.454  25.450  52.722  1.00  0.00     0.001 C 
BRANCH   9  10
HETATM   10  C7  UNL     1      15.475  26.831  53.379  1.00  0.00     0.004 C 
BRANCH  10  11
HETATM   11  C8  UNL     1      16.780  27.115  54.051  1.00  0.00    -0.023 C 
HETATM   12  C9  UNL     1      17.597  25.867  54.297  1.00  0.00     0.009 C 
HETATM   13  C10 UNL     1      17.530  28.157  53.286  1.00  0.00     0.009 C 
ENDBRANCH  10  11
ENDBRANCH   9  10
ENDBRANCH   8   9
ENDBRANCH   4   8
BRANCH   4  14
HETATM   14  C11 UNL     1      15.216  24.723  49.197  1.00  0.00     0.015 C 
BRANCH  14  15
HETATM   15  C12 UNL     1      14.824  23.393  49.717  1.00  0.00     0.037 C 
BRANCH  15  16
HETATM   16  C13 UNL     1      15.260  22.371  48.680  1.00  0.00     0.144 C 
HETATM   17  C14 UNL     1      14.751  21.016  48.990  1.00  0.00     0.001 C 
HETATM   18  C15 UNL     1      15.276  20.016  48.261  1.00  0.00    -0.026 C 
HETATM   19  C16 UNL     1      16.291  20.386  47.246  1.00  0.00     0.058 C 
HETATM   20  C17 UNL     1      17.139  21.551  47.636  1.00  0.00     0.121 C 
HETATM   21  C18 UNL     1      18.518  21.030  48.034  1.00  0.00     0.040 C 
HETATM   22  O1  UNL     1      16.658  22.290  48.687  1.00  0.00    -0.377 OA
ENDBRANCH  15  16
ENDBRANCH  14  15
ENDBRANCH   4  14
BRANCH   5  23
HETATM   23  O2  UNL     1      14.462  27.735  49.954  1.00  0.00    -0.395 OA
ATOM     24  H2  UNL     1      14.316  28.512  49.426  1.00  0.00     0.210 HD
ENDBRANCH   5  23
BRANCH   7  25
HETATM   25  O3  UNL     1      18.392  27.587  47.971  1.00  0.00    -0.391 OA
ATOM     26  H3  UNL     1      18.930  28.368  47.922  1.00  0.00     0.210 HD
ENDBRANCH   7  25
TORSDOF 9
ENDMDL
MODEL 3
REMARK VINA RESULT: -7.059466600      4.162      7.935
REMARK  9 active torsions:
REMARK  status: ('A' for Active; 'I' for Inactive)
REMARK    1  A    between atoms: C4_4  and  C5_5 
REMARK    2  A    between atoms: C4_4  and  C11_11 
REMARK    3  A    between atoms: C5_5  and  C6_6 
REMARK    4  A    between atoms: C6_6  and  C7_7 
REMARK    5  A    between atoms: C7_7  and  C8_8 
REMARK    6  A    between atoms: C11_11  and  C12_12 
REMARK    7  A    between atoms: C12_12  and  C13_13 
REMARK    8  A    between atoms: C19_20  and  O2_21 
REMARK    9  A    between atoms: C21_24  and  O3_25 
ROOT
HETATM    1  C1  UNL     1      18.622  23.173  49.027  1.00  0.00     0.017 C 
HETATM    2  C2  UNL     1      18.114  24.299  49.506  1.00  0.00    -0.060 C 
HETATM    3  C3  UNL     1      17.105  24.297  50.599  1.00  0.00     0.048 C 
HETATM    4  C4  UNL     1      15.826  24.845  50.050  1.00  0.00    -0.011 C 
HETATM    5  C19 UNL     1      16.045  25.977  49.074  1.00  0.00     0.129 C 
HETATM    6  C20 UNL     1      17.392  26.606  49.164  1.00  0.00     0.068 C 
HETATM    7  C21 UNL     1      18.524  25.622  48.981  1.00  0.00     0.149 C 
ENDROOT
BRANCH   4   8
HETATM    8  C5  UNL     1      14.852  25.252  51.131  1.00  0.00     0.012 C 
BRANCH   8   9
HETATM    9  C6  UNL     1      15.441  25.267  52.520  1.00  0.00     0.001 C 
BRANCH   9  10
HETATM   10  C7  UNL     1      15.438  26.732  52.956  1.00  0.00     0.004 C 
BRANCH  10  11
HETATM   11  C8  UNL     1      16.743  27.142  53.559  1.00  0.00    -0.023 C 
HETATM   12  C9  UNL     1      17.521  25.975  54.124  1.00  0.00     0.009 C 
HETATM   13  C10 UNL     1      17.531  27.941  52.573  1.00  0.00     0.009 C 
ENDBRANCH  10  11
ENDBRANCH   9  10
ENDBRANCH   8   9
ENDBRANCH   4   8
BRANCH   4  14
HETATM   14  C11 UNL     1      15.142  23.763  49.245  1.00  0.00     0.015 C 
BRANCH  14  15
HETATM   15  C12 UNL     1      14.864  22.492  49.952  1.00  0.00     0.037 C 
BRANCH  15  16
HETATM   16  C13 UNL     1      14.721  21.419  48.886  1.00  0.00     0.144 C 
HETATM   17  C14 UNL     1      14.119  20.180  49.425  1.00  0.00     0.001 C 
HETATM   18  C15 UNL     1      14.170  19.108  48.615  1.00  0.00    -0.026 C 
HETATM   19  C16 UNL     1      14.815  19.294  47.294  1.00  0.00     0.058 C 
HETATM   20  C17 UNL     1      15.938  20.277  47.303  1.00  0.00     0.121 C 
HETATM   21  C18 UNL     1      17.253  19.505  47.228  1.00  0.00     0.040 C 
HETATM   22  O1  UNL     1      15.995  21.080  48.414  1.00  0.00    -0.377 OA
ENDBRANCH  15  16
ENDBRANCH  14  15
ENDBRANCH   4  14
BRANCH   5  23
HETATM   23  O2  UNL     1      15.076  26.959  49.238  1.00  0.00    -0.395 OA
ATOM     24  H2  UNL     1      15.311  27.546  49.946  1.00  0.00     0.210 HD
ENDBRANCH   5  23
BRANCH   7  25
HETATM   25  O3  UNL     1      18.925  25.499  47.674  1.00  0.00    -0.391 OA
ATOM     26  H3  UNL     1      18.728  26.299  47.201  1.00  0.00     0.210 HD
ENDBRANCH   7  25
TORSDOF 9
ENDMDL
MODEL 4
REMARK VINA RESULT: -7.034679617      4.618      8.791
REMARK  9 active torsions:
REMARK  status: ('A' for Active; 'I' for Inactive)
REMARK    1  A    between atoms: C4_4  and  C5_5 
REMARK    2  A    between atoms: C4_4  and  C11_11 
REMARK    3  A    between atoms: C5_5  and  C6_6 
REMARK    4  A    between atoms: C6_6  and  C7_7 
REMARK    5  A    between atoms: C7_7  and  C8_8 
REMARK    6  A    between atoms: C11_11  and  C12_12 
REMARK    7  A    between atoms: C12_12  and  C13_13 
REMARK    8  A    between atoms: C19_20  and  O2_21 
REMARK    9  A    between atoms: C21_24  and  O3_25 
ROOT
HETATM    1  C1  UNL     1      19.108  24.532  51.094  1.00  0.00     0.017 C 
HETATM    2  C2  UNL     1      18.181  25.460  50.911  1.00  0.00    -0.060 C 
HETATM    3  C3  UNL     1      16.892  25.434  51.654  1.00  0.00     0.048 C 
HETATM    4  C4  UNL     1      15.790  25.220  50.665  1.00  0.00    -0.011 C 
HETATM    5  C19 UNL     1      16.025  25.946  49.361  1.00  0.00     0.129 C 
HETATM    6  C20 UNL     1      17.032  27.040  49.446  1.00  0.00     0.068 C 
HETATM    7  C21 UNL     1      18.376  26.577  49.956  1.00  0.00     0.149 C 
ENDROOT
BRANCH   4   8
HETATM    8  C5  UNL     1      14.428  25.554  51.225  1.00  0.00     0.012 C 
BRANCH   8   9
HETATM    9  C6  UNL     1      14.437  25.947  52.681  1.00  0.00     0.001 C 
BRANCH   9  10
HETATM   10  C7  UNL     1      14.290  27.468  52.701  1.00  0.00     0.004 C 
BRANCH  10  11
HETATM   11  C8  UNL     1      13.485  27.971  51.546  1.00  0.00    -0.023 C 
HETATM   12  C9  UNL     1      12.066  28.325  51.929  1.00  0.00     0.009 C 
HETATM   13  C10 UNL     1      14.203  29.098  50.878  1.00  0.00     0.009 C 
ENDBRANCH  10  11
ENDBRANCH   9  10
ENDBRANCH   8   9
ENDBRANCH   4   8
BRANCH   4  14
HETATM   14  C11 UNL     1      15.752  23.755  50.293  1.00  0.00     0.015 C 
BRANCH  14  15
HETATM   15  C12 UNL     1      15.806  23.441  48.848  1.00  0.00     0.037 C 
BRANCH  15  16
HETATM   16  C13 UNL     1      16.821  22.322  48.680  1.00  0.00     0.144 C 
HETATM   17  C14 UNL     1      18.154  22.837  48.294  1.00  0.00     0.001 C 
HETATM   18  C15 UNL     1      19.044  21.911  47.900  1.00  0.00    -0.026 C 
HETATM   19  C16 UNL     1      18.590  20.499  47.901  1.00  0.00     0.058 C 
HETATM   20  C17 UNL     1      17.143  20.330  47.575  1.00  0.00     0.121 C 
HETATM   21  C18 UNL     1      17.030  19.797  46.149  1.00  0.00     0.040 C 
HETATM   22  O1  UNL     1      16.396  21.479  47.646  1.00  0.00    -0.377 OA
ENDBRANCH  15  16
ENDBRANCH  14  15
ENDBRANCH   4  14
BRANCH   5  23
HETATM   23  O2  UNL     1      14.834  26.465  48.868  1.00  0.00    -0.395 OA
ATOM     24  H2  UNL     1      14.111  25.878  49.055  1.00  0.00     0.210 HD
ENDBRANCH   5  23
BRANCH   7  25
HETATM   25  O3  UNL     1      19.228  26.187  48.954  1.00  0.00    -0.391 OA
ATOM     26  H3  UNL     1      19.323  25.241  48.963  1.00  0.00     0.210 HD
ENDBRANCH   7  25
TORSDOF 9
ENDMDL
MODEL 5
REMARK VINA RESULT: -7.019803329      3.983      7.988
REMARK  9 active torsions:
REMARK  status: ('A' for Active; 'I' for Inactive)
REMARK    1  A    between atoms: C4_4  and  C5_5 
REMARK    2  A    between atoms: C4_4  and  C11_11 
REMARK    3  A    between atoms: C5_5  and  C6_6 
REMARK    4  A    between atoms: C6_6  and  C7_7 
REMARK    5  A    between atoms: C7_7  and  C8_8 
REMARK    6  A    between atoms: C11_11  and  C12_12 
REMARK    7  A    between atoms: C12_12  and  C13_13 
REMARK    8  A    between atoms: C19_20  and  O2_21 
REMARK    9  A    between atoms: C21_24  and  O3_25 
ROOT
HETATM    1  C1  UNL     1      18.687  22.938  48.940  1.00  0.00     0.017 C 
HETATM    2  C2  UNL     1      18.133  24.041  49.419  1.00  0.00    -0.060 C 
HETATM    3  C3  UNL     1      17.090  23.994  50.479  1.00  0.00     0.048 C 
HETATM    4  C4  UNL     1      15.814  24.516  49.898  1.00  0.00    -0.011 C 
HETATM    5  C19 UNL     1      16.032  25.668  48.946  1.00  0.00     0.129 C 
HETATM    6  C20 UNL     1      17.358  26.333  49.089  1.00  0.00     0.068 C 
HETATM    7  C21 UNL     1      18.521  25.384  48.927  1.00  0.00     0.149 C 
ENDROOT
BRANCH   4   8
HETATM    8  C5  UNL     1      14.796  24.879  50.953  1.00  0.00     0.012 C 
BRANCH   8   9
HETATM    9  C6  UNL     1      15.392  25.438  52.221  1.00  0.00     0.001 C 
BRANCH   9  10
HETATM   10  C7  UNL     1      14.247  26.160  52.933  1.00  0.00     0.004 C 
BRANCH  10  11
HETATM   11  C8  UNL     1      14.269  27.634  52.680  1.00  0.00    -0.023 C 
HETATM   12  C9  UNL     1      15.605  28.122  52.170  1.00  0.00     0.009 C 
HETATM   13  C10 UNL     1      13.133  28.014  51.786  1.00  0.00     0.009 C 
ENDBRANCH  10  11
ENDBRANCH   9  10
ENDBRANCH   8   9
ENDBRANCH   4   8
BRANCH   4  14
HETATM   14  C11 UNL     1      15.187  23.428  49.055  1.00  0.00     0.015 C 
BRANCH  14  15
HETATM   15  C12 UNL     1      14.785  22.193  49.766  1.00  0.00     0.037 C 
BRANCH  15  16
HETATM   16  C13 UNL     1      14.642  21.107  48.713  1.00  0.00     0.144 C 
HETATM   17  C14 UNL     1      13.931  19.920  49.236  1.00  0.00     0.001 C 
HETATM   18  C15 UNL     1      13.965  18.829  48.451  1.00  0.00    -0.026 C 
HETATM   19  C16 UNL     1      14.702  18.945  47.170  1.00  0.00     0.058 C 
HETATM   20  C17 UNL     1      15.882  19.857  47.233  1.00  0.00     0.121 C 
HETATM   21  C18 UNL     1      17.148  19.004  47.257  1.00  0.00     0.040 C 
HETATM   22  O1  UNL     1      15.919  20.680  48.330  1.00  0.00    -0.377 OA
ENDBRANCH  15  16
ENDBRANCH  14  15
ENDBRANCH   4  14
BRANCH   5  23
HETATM   23  O2  UNL     1      15.031  26.621  49.093  1.00  0.00    -0.395 OA
ATOM     24  H2  UNL     1      14.226  26.327  48.683  1.00  0.00     0.210 HD
ENDBRANCH   5  23
BRANCH   7  25
HETATM   25  O3  UNL     1      18.968  25.292  47.633  1.00  0.00    -0.391 OA
ATOM     26  H3  UNL     1      19.736  25.840  47.518  1.00  0.00     0.210 HD
ENDBRANCH   7  25
TORSDOF 9
ENDMDL
