MODEL 1
REMARK VINA RESULT: -7.917890827      0.000      0.000
REMARK  7 active torsions:
REMARK  status: ('A' for Active; 'I' for Inactive)
REMARK    1  A    between atoms: C2_2  and  C3_3 
REMARK    2  A    between atoms: C3_3  and  N1_4 
REMARK    3  A    between atoms: C3_3  and  C18_22 
REMARK    4  A    between atoms: N1_4  and  C4_6 
REMARK    5  A    between atoms: C7_9  and  C8_10 
REMARK    6  A    between atoms: C8_10  and  N2_11 
REMARK    7  A    between atoms: N2_11  and  C9_13 
ROOT
HETATM    1  C4  UNL     1      17.233  18.231  45.924  1.00  0.00     0.081 C 
HETATM    2  C5  UNL     1      16.899  17.887  47.323  1.00  0.00     0.025 C 
HETATM    3  C6  UNL     1      15.559  18.514  47.716  1.00  0.00     0.008 C 
HETATM    4  C7  UNL     1      15.510  19.967  47.397  1.00  0.00     0.003 C 
HETATM    5  C16 UNL     1      16.891  20.465  47.022  1.00  0.00     0.008 C 
HETATM    6  C17 UNL     1      17.245  19.737  45.739  1.00  0.00     0.025 C 
ENDROOT
BRANCH   1   7
HETATM    7  N1  UNL     1      16.497  17.606  44.930  1.00  0.00    -0.388 N 
ATOM      8  H1  UNL     1      15.664  17.099  45.229  1.00  0.00     0.159 HD
BRANCH   7   9
HETATM    9  C3  UNL     1      16.777  17.598  43.577  1.00  0.00     0.016 C 
BRANCH   9  10
HETATM   10  C2  UNL     1      15.892  17.017  42.559  1.00  0.00     0.053 C 
HETATM   11  C1  UNL     1      14.547  16.640  43.132  1.00  0.00     0.011 C 
ENDBRANCH   9  10
BRANCH   9  12
HETATM   12  C18 UNL     1      18.239  17.235  43.301  1.00  0.00     0.002 A 
HETATM   13  C19 UNL     1      18.726  16.028  43.705  1.00  0.00     0.016 A 
HETATM   14  C20 UNL     1      20.048  15.731  43.433  1.00  0.00     0.018 A 
HETATM   15  C21 UNL     1      20.812  16.654  42.773  1.00  0.00     0.087 A 
HETATM   16  N3  UNL     1      20.337  17.849  42.372  1.00  0.00    -0.374 N 
HETATM   17  C22 UNL     1      19.046  18.133  42.641  1.00  0.00     0.101 A 
ATOM     18  H3  UNL     1      20.932  18.516  41.882  1.00  0.00     0.164 HD
ENDBRANCH   9  12
ENDBRANCH   7   9
ENDBRANCH   1   7
BRANCH   4  19
HETATM   19  C8  UNL     1      14.809  20.851  48.378  1.00  0.00     0.118 C 
BRANCH  19  20
HETATM   20  N2  UNL     1      14.666  22.212  48.032  1.00  0.00    -0.416 N 
ATOM     21  H2  UNL     1      14.495  22.509  47.072  1.00  0.00     0.153 HD
BRANCH  20  22
HETATM   22  C9  UNL     1      14.773  23.130  49.081  1.00  0.00     0.081 C 
HETATM   23  C10 UNL     1      15.529  22.695  50.324  1.00  0.00     0.029 C 
HETATM   24  C11 UNL     1      16.088  23.957  50.934  1.00  0.00    -0.012 C 
HETATM   25  C12 UNL     1      17.448  24.168  50.297  1.00  0.00     0.005 C 
HETATM   26  C15 UNL     1      15.334  25.057  50.166  1.00  0.00     0.011 C 
HETATM   27  C13 UNL     1      17.018  24.149  48.818  1.00  0.00     0.007 C 
HETATM   28  C14 UNL     1      15.550  24.402  48.775  1.00  0.00     0.008 C 
ENDBRANCH  20  22
ENDBRANCH  19  20
ENDBRANCH   4  19
TORSDOF 7
ENDMDL
MODEL 2
REMARK VINA RESULT: -7.789009809      2.798      5.485
REMARK  7 active torsions:
REMARK  status: ('A' for Active; 'I' for Inactive)
REMARK    1  A    between atoms: C2_2  and  C3_3 
REMARK    2  A    between atoms: C3_3  and  N1_4 
REMARK    3  A    between atoms: C3_3  and  C18_22 
REMARK    4  A    between atoms: N1_4  and  C4_6 
REMARK    5  A    between atoms: C7_9  and  C8_10 
REMARK    6  A    between atoms: C8_10  and  N2_11 
REMARK    7  A    between atoms: N2_11  and  C9_13 
ROOT
HETATM    1  C4  UNL     1      16.264  22.547  49.095  1.00  0.00     0.081 C 
HETATM    2  C5  UNL     1      15.621  22.996  50.349  1.00  0.00     0.025 C 
HETATM    3  C6  UNL     1      14.907  24.332  50.129  1.00  0.00     0.008 C 
HETATM    4  C7  UNL     1      15.795  25.336  49.482  1.00  0.00     0.003 C 
HETATM    5  C16 UNL     1      17.225  24.837  49.471  1.00  0.00     0.008 C 
HETATM    6  C17 UNL     1      17.214  23.610  48.579  1.00  0.00     0.025 C 
ENDROOT
BRANCH   1   7
HETATM    7  N1  UNL     1      15.428  22.086  48.091  1.00  0.00    -0.388 N 
ATOM      8  H1  UNL     1      15.117  22.773  47.404  1.00  0.00     0.159 HD
BRANCH   7   9
HETATM    9  C3  UNL     1      14.971  20.792  47.926  1.00  0.00     0.016 C 
BRANCH   9  10
HETATM   10  C2  UNL     1      14.027  20.132  48.837  1.00  0.00     0.053 C 
HETATM   11  C1  UNL     1      12.854  19.536  48.097  1.00  0.00     0.011 C 
ENDBRANCH   9  10
BRANCH   9  12
HETATM   12  C18 UNL     1      16.098  19.839  47.521  1.00  0.00     0.002 A 
HETATM   13  C19 UNL     1      16.345  18.726  48.267  1.00  0.00     0.016 A 
HETATM   14  C20 UNL     1      17.366  17.883  47.868  1.00  0.00     0.018 A 
HETATM   15  C21 UNL     1      18.084  18.198  46.747  1.00  0.00     0.087 A 
HETATM   16  N3  UNL     1      17.845  19.297  46.006  1.00  0.00    -0.374 N 
HETATM   17  C22 UNL     1      16.848  20.115  46.401  1.00  0.00     0.101 A 
ATOM     18  H3  UNL     1      18.399  19.504  45.175  1.00  0.00     0.164 HD
ENDBRANCH   9  12
ENDBRANCH   7   9
ENDBRANCH   1   7
BRANCH   4  19
HETATM   19  C8  UNL     1      15.666  26.751  49.948  1.00  0.00     0.118 C 
BRANCH  19  20
HETATM   20  N2  UNL     1      16.852  27.418  50.322  1.00  0.00    -0.416 N 
ATOM     21  H2  UNL     1      17.590  27.623  49.649  1.00  0.00     0.153 HD
BRANCH  20  22
HETATM   22  C9  UNL     1      16.958  27.780  51.669  1.00  0.00     0.081 C 
HETATM   23  C10 UNL     1      15.997  27.134  52.650  1.00  0.00     0.029 C 
HETATM   24  C11 UNL     1      16.711  27.115  53.979  1.00  0.00    -0.012 C 
HETATM   25  C12 UNL     1      17.485  25.811  54.025  1.00  0.00     0.005 C 
HETATM   26  C15 UNL     1      17.907  28.049  53.726  1.00  0.00     0.011 C 
HETATM   27  C13 UNL     1      18.286  25.970  52.720  1.00  0.00     0.007 C 
HETATM   28  C14 UNL     1      18.266  27.415  52.355  1.00  0.00     0.008 C 
ENDBRANCH  20  22
ENDBRANCH  19  20
ENDBRANCH   4  19
TORSDOF 7
ENDMDL
MODEL 3
REMARK VINA RESULT: -7.765860179      4.149      9.934
REMARK  7 active torsions:
REMARK  status: ('A' for Active; 'I' for Inactive)
REMARK    1  A    between atoms: C2_2  and  C3_3 
REMARK    2  A    between atoms: C3_3  and  N1_4 
REMARK    3  A    between atoms: C3_3  and  C18_22 
REMARK    4  A    between atoms: N1_4  and  C4_6 
REMARK    5  A    between atoms: C7_9  and  C8_10 
REMARK    6  A    between atoms: C8_10  and  N2_11 
REMARK    7  A    between atoms: N2_11  and  C9_13 
ROOT
HETATM    1  C4  UNL     1      17.970  25.284  50.451  1.00  0.00     0.081 C 
HETATM    2  C5  UNL     1      17.235  25.515  49.188  1.00  0.00     0.025 C 
HETATM    3  C6  UNL     1      16.514  24.237  48.754  1.00  0.00     0.008 C 
HETATM    4  C7  UNL     1      17.425  23.060  48.747  1.00  0.00     0.003 C 
HETATM    5  C16 UNL     1      18.862  23.512  48.910  1.00  0.00     0.008 C 
HETATM    6  C17 UNL     1      18.934  24.123  50.297  1.00  0.00     0.025 C 
ENDROOT
BRANCH   1   7
HETATM    7  N1  UNL     1      17.212  25.162  51.604  1.00  0.00    -0.388 N 
ATOM      8  H1  UNL     1      16.845  24.233  51.814  1.00  0.00     0.159 HD
BRANCH   7   9
HETATM    9  C3  UNL     1      16.902  26.168  52.499  1.00  0.00     0.016 C 
BRANCH   9  10
HETATM   10  C2  UNL     1      16.937  26.010  53.959  1.00  0.00     0.053 C 
HETATM   11  C1  UNL     1      17.715  27.118  54.627  1.00  0.00     0.011 C 
ENDBRANCH   9  10
BRANCH   9  12
HETATM   12  C18 UNL     1      15.660  26.952  52.065  1.00  0.00     0.002 A 
HETATM   13  C19 UNL     1      14.450  26.327  52.007  1.00  0.00     0.016 A 
HETATM   14  C20 UNL     1      13.349  27.067  51.617  1.00  0.00     0.018 A 
HETATM   15  C21 UNL     1      13.516  28.389  51.307  1.00  0.00     0.087 A 
HETATM   16  N3  UNL     1      14.709  29.012  51.363  1.00  0.00    -0.374 N 
HETATM   17  C22 UNL     1      15.779  28.284  51.743  1.00  0.00     0.101 A 
ATOM     18  H3  UNL     1      14.800  30.000  51.125  1.00  0.00     0.164 HD
ENDBRANCH   9  12
ENDBRANCH   7   9
ENDBRANCH   1   7
BRANCH   4  19
HETATM   19  C8  UNL     1      17.239  22.069  47.642  1.00  0.00     0.118 C 
BRANCH  19  20
HETATM   20  N2  UNL     1      17.120  20.711  48.007  1.00  0.00    -0.416 N 
ATOM     21  H2  UNL     1      17.867  20.217  48.495  1.00  0.00     0.153 HD
BRANCH  20  22
HETATM   22  C9  UNL     1      15.920  20.081  47.662  1.00  0.00     0.081 C 
HETATM   23  C10 UNL     1      15.598  18.761  48.339  1.00  0.00     0.029 C 
HETATM   24  C11 UNL     1      14.092  18.664  48.365  1.00  0.00    -0.012 C 
HETATM   25  C12 UNL     1      13.648  19.325  49.656  1.00  0.00     0.005 C 
HETATM   26  C15 UNL     1      13.672  19.793  47.406  1.00  0.00     0.011 C 
HETATM   27  C13 UNL     1      14.332  20.692  49.464  1.00  0.00     0.007 C 
HETATM   28  C14 UNL     1      14.647  20.836  48.015  1.00  0.00     0.008 C 
ENDBRANCH  20  22
ENDBRANCH  19  20
ENDBRANCH   4  19
TORSDOF 7
ENDMDL
MODEL 4
REMARK VINA RESULT: -7.759774521      2.103      4.103
REMARK  7 active torsions:
REMARK  status: ('A' for Active; 'I' for Inactive)
REMARK    1  A    between atoms: C2_2  and  C3_3 
REMARK    2  A    between atoms: C3_3  and  N1_4 
REMARK    3  A    between atoms: C3_3  and  C18_22 
REMARK    4  A    between atoms: N1_4  and  C4_6 
REMARK    5  A    between atoms: C7_9  and  C8_10 
REMARK    6  A    between atoms: C8_10  and  N2_11 
REMARK    7  A    between atoms: N2_11  and  C9_13 
ROOT
HETATM    1  C4  UNL     1      16.790  20.613  47.362  1.00  0.00     0.081 C 
HETATM    2  C5  UNL     1      17.637  21.825  47.332  1.00  0.00     0.025 C 
HETATM    3  C6  UNL     1      17.704  22.459  48.723  1.00  0.00     0.008 C 
HETATM    4  C7  UNL     1      16.350  22.651  49.312  1.00  0.00     0.003 C 
HETATM    5  C16 UNL     1      15.286  22.413  48.260  1.00  0.00     0.008 C 
HETATM    6  C17 UNL     1      15.408  20.947  47.891  1.00  0.00     0.025 C 
ENDROOT
BRANCH   1   7
HETATM    7  N1  UNL     1      17.315  19.496  47.992  1.00  0.00    -0.388 N 
ATOM      8  H1  UNL     1      17.190  19.439  49.002  1.00  0.00     0.159 HD
BRANCH   7   9
HETATM    9  C3  UNL     1      17.992  18.451  47.391  1.00  0.00     0.016 C 
BRANCH   9  10
HETATM   10  C2  UNL     1      19.456  18.344  47.335  1.00  0.00     0.053 C 
HETATM   11  C1  UNL     1      20.129  19.391  48.190  1.00  0.00     0.011 C 
ENDBRANCH   9  10
BRANCH   9  12
HETATM   12  C18 UNL     1      17.364  18.065  46.049  1.00  0.00     0.002 A 
HETATM   13  C19 UNL     1      18.108  18.127  44.909  1.00  0.00     0.016 A 
HETATM   14  C20 UNL     1      17.511  17.764  43.716  1.00  0.00     0.018 A 
HETATM   15  C21 UNL     1      16.205  17.358  43.726  1.00  0.00     0.087 A 
HETATM   16  N3  UNL     1      15.464  17.294  44.849  1.00  0.00    -0.374 N 
HETATM   17  C22 UNL     1      16.053  17.650  46.010  1.00  0.00     0.101 A 
ATOM     18  H3  UNL     1      14.492  16.987  44.823  1.00  0.00     0.164 HD
ENDBRANCH   9  12
ENDBRANCH   7   9
ENDBRANCH   1   7
BRANCH   4  19
HETATM   19  C8  UNL     1      16.129  23.900  50.104  1.00  0.00     0.118 C 
BRANCH  19  20
HETATM   20  N2  UNL     1      14.976  24.657  49.807  1.00  0.00    -0.416 N 
ATOM     21  H2  UNL     1      14.557  24.659  48.877  1.00  0.00     0.153 HD
BRANCH  20  22
HETATM   22  C9  UNL     1      14.441  25.406  50.859  1.00  0.00     0.081 C 
HETATM   23  C10 UNL     1      15.246  25.494  52.143  1.00  0.00     0.029 C 
HETATM   24  C11 UNL     1      14.869  26.808  52.781  1.00  0.00    -0.012 C 
HETATM   25  C12 UNL     1      15.828  27.841  52.222  1.00  0.00     0.005 C 
HETATM   26  C15 UNL     1      13.629  27.225  51.972  1.00  0.00     0.011 C 
HETATM   27  C13 UNL     1      15.570  27.609  50.721  1.00  0.00     0.007 C 
HETATM   28  C14 UNL     1      14.268  26.895  50.596  1.00  0.00     0.008 C 
ENDBRANCH  20  22
ENDBRANCH  19  20
ENDBRANCH   4  19
TORSDOF 7
ENDMDL
MODEL 5
REMARK VINA RESULT: -7.748699051      4.380      7.236
REMARK  7 active torsions:
REMARK  status: ('A' for Active; 'I' for Inactive)
REMARK    1  A    between atoms: C2_2  and  C3_3 
REMARK    2  A    between atoms: C3_3  and  N1_4 
REMARK    3  A    between atoms: C3_3  and  C18_22 
REMARK    4  A    between atoms: N1_4  and  C4_6 
REMARK    5  A    between atoms: C7_9  and  C8_10 
REMARK    6  A    between atoms: C8_10  and  N2_11 
REMARK    7  A    between atoms: N2_11  and  C9_13 
ROOT
HETATM    1  C4  UNL     1      19.820  23.237  48.635  1.00  0.00     0.081 C 
HETATM    2  C5  UNL     1      18.997  22.077  48.229  1.00  0.00     0.025 C 
HETATM    3  C6  UNL     1      17.631  22.549  47.726  1.00  0.00     0.008 C 
HETATM    4  C7  UNL     1      16.976  23.480  48.684  1.00  0.00     0.003 C 
HETATM    5  C16 UNL     1      17.726  23.485  50.001  1.00  0.00     0.008 C 
HETATM    6  C17 UNL     1      19.093  24.061  49.681  1.00  0.00     0.025 C 
ENDROOT
BRANCH   1   7
HETATM    7  N1  UNL     1      20.321  24.037  47.621  1.00  0.00    -0.388 N 
ATOM      8  H1  UNL     1      19.997  23.834  46.676  1.00  0.00     0.159 HD
BRANCH   7   9
HETATM    9  C3  UNL     1      21.217  25.082  47.759  1.00  0.00     0.016 C 
BRANCH   9  10
HETATM   10  C2  UNL     1      20.856  26.497  47.608  1.00  0.00     0.053 C 
HETATM   11  C1  UNL     1      19.462  26.667  47.054  1.00  0.00     0.011 C 
ENDBRANCH   9  10
BRANCH   9  12
HETATM   12  C18 UNL     1      22.551  24.780  47.071  1.00  0.00     0.002 A 
HETATM   13  C19 UNL     1      22.611  23.836  46.090  1.00  0.00     0.016 A 
HETATM   14  C20 UNL     1      23.830  23.595  45.486  1.00  0.00     0.018 A 
HETATM   15  C21 UNL     1      24.923  24.310  45.893  1.00  0.00     0.087 A 
HETATM   16  N3  UNL     1      24.871  25.244  46.862  1.00  0.00    -0.374 N 
HETATM   17  C22 UNL     1      23.678  25.474  47.448  1.00  0.00     0.101 A 
ATOM     18  H3  UNL     1      25.705  25.760  47.143  1.00  0.00     0.164 HD
ENDBRANCH   9  12
ENDBRANCH   7   9
ENDBRANCH   1   7
BRANCH   4  19
HETATM   19  C8  UNL     1      15.496  23.351  48.848  1.00  0.00     0.118 C 
BRANCH  19  20
HETATM   20  N2  UNL     1      14.826  22.463  47.979  1.00  0.00    -0.416 N 
ATOM     21  H2  UNL     1      14.811  22.606  46.969  1.00  0.00     0.153 HD
BRANCH  20  22
HETATM   22  C9  UNL     1      14.184  21.376  48.581  1.00  0.00     0.081 C 
HETATM   23  C10 UNL     1      13.391  20.442  47.685  1.00  0.00     0.029 C 
HETATM   24  C11 UNL     1      13.413  19.096  48.365  1.00  0.00    -0.012 C 
HETATM   25  C12 UNL     1      14.651  18.383  47.853  1.00  0.00     0.005 C 
HETATM   26  C15 UNL     1      13.947  19.442  49.767  1.00  0.00     0.011 C 
HETATM   27  C13 UNL     1      15.701  19.450  48.216  1.00  0.00     0.007 C 
HETATM   28  C14 UNL     1      15.092  20.347  49.238  1.00  0.00     0.008 C 
ENDBRANCH  20  22
ENDBRANCH  19  20
ENDBRANCH   4  19
TORSDOF 7
ENDMDL
