MODEL 1
REMARK VINA RESULT: -6.947981736      0.000      0.000
REMARK  9 active torsions:
REMARK  status: ('A' for Active; 'I' for Inactive)
REMARK    1  A    between atoms: C2_2  and  O1_3 
REMARK    2  A    between atoms: C2_2  and  C3_5 
REMARK    3  A    between atoms: C3_5  and  C4_6 
REMARK    4  A    between atoms: C4_6  and  C5_7 
REMARK    5  A    between atoms: C9_11  and  C10_12 
REMARK    6  A    between atoms: C10_12  and  C11_13 
REMARK    7  A    between atoms: C11_13  and  O2_15 
REMARK    8  A    between atoms: C18_22  and  C19_23 
REMARK    9  A    between atoms: C19_23  and  C20_24 
ROOT
HETATM    1  C5  UNL     1      18.508  18.138  45.343  1.00  0.00    -0.006 C 
HETATM    2  C6  UNL     1      18.696  17.829  46.803  1.00  0.00    -0.010 C 
HETATM    3  C7  UNL     1      19.330  19.030  47.415  1.00  0.00     0.006 C 
HETATM    4  C8  UNL     1      18.436  19.997  48.083  1.00  0.00     0.010 C 
HETATM    5  C9  UNL     1      17.140  20.342  47.426  1.00  0.00    -0.034 C 
HETATM    6  C13 UNL     1      17.402  20.333  45.888  1.00  0.00     0.015 C 
HETATM    7  C14 UNL     1      17.315  19.029  45.232  1.00  0.00    -0.009 C 
HETATM    8  C15 UNL     1      16.105  18.220  45.582  1.00  0.00     0.010 C 
HETATM    9  C16 UNL     1      16.193  18.040  47.092  1.00  0.00    -0.009 C 
HETATM   10  C17 UNL     1      17.459  17.413  47.530  1.00  0.00     0.010 C 
HETATM   11  C18 UNL     1      15.986  19.464  47.631  1.00  0.00     0.001 C 
ENDROOT
BRANCH   1  12
HETATM   12  C4  UNL     1      18.463  16.965  44.440  1.00  0.00     0.008 C 
BRANCH  12  13
HETATM   13  C3  UNL     1      19.698  16.827  43.581  1.00  0.00     0.032 C 
BRANCH  13  14
HETATM   14  C2  UNL     1      20.363  15.474  43.733  1.00  0.00     0.114 C 
HETATM   15  C1  UNL     1      21.537  15.549  44.679  1.00  0.00     0.039 C 
BRANCH  14  16
HETATM   16  O1  UNL     1      20.871  15.138  42.469  1.00  0.00    -0.396 OA
ATOM     17  H1  UNL     1      20.351  15.604  41.826  1.00  0.00     0.210 HD
ENDBRANCH  14  16
ENDBRANCH  13  14
ENDBRANCH  12  13
ENDBRANCH   1  12
BRANCH   5  18
HETATM   18  C10 UNL     1      16.791  21.791  47.661  1.00  0.00     0.041 C 
BRANCH  18  19
HETATM   19  C11 UNL     1      17.590  22.576  48.615  1.00  0.00     0.114 C 
HETATM   20  C12 UNL     1      16.671  23.196  49.710  1.00  0.00     0.039 C 
BRANCH  19  21
HETATM   21  O2  UNL     1      18.071  23.788  48.020  1.00  0.00    -0.396 OA
ATOM     22  H2  UNL     1      18.121  24.491  48.657  1.00  0.00     0.210 HD
ENDBRANCH  19  21
ENDBRANCH  18  19
ENDBRANCH   5  18
BRANCH  11  23
HETATM   23  C19 UNL     1      15.293  19.404  48.934  1.00  0.00     0.039 C 
BRANCH  23  24
HETATM   24  C20 UNL     1      13.999  20.252  48.797  1.00  0.00     0.145 A 
HETATM   25  C21 UNL     1      12.827  19.407  48.346  1.00  0.00     0.200 A 
HETATM   26  O3  UNL     1      13.435  20.381  47.561  1.00  0.00    -0.381 OA
ENDBRANCH  23  24
ENDBRANCH  11  23
TORSDOF 9
ENDMDL
MODEL 2
REMARK VINA RESULT: -6.602267099      2.205      6.698
REMARK  9 active torsions:
REMARK  status: ('A' for Active; 'I' for Inactive)
REMARK    1  A    between atoms: C2_2  and  O1_3 
REMARK    2  A    between atoms: C2_2  and  C3_5 
REMARK    3  A    between atoms: C3_5  and  C4_6 
REMARK    4  A    between atoms: C4_6  and  C5_7 
REMARK    5  A    between atoms: C9_11  and  C10_12 
REMARK    6  A    between atoms: C10_12  and  C11_13 
REMARK    7  A    between atoms: C11_13  and  O2_15 
REMARK    8  A    between atoms: C18_22  and  C19_23 
REMARK    9  A    between atoms: C19_23  and  C20_24 
ROOT
HETATM    1  C5  UNL     1      15.546  19.930  47.737  1.00  0.00    -0.006 C 
HETATM    2  C6  UNL     1      15.978  18.627  48.354  1.00  0.00    -0.010 C 
HETATM    3  C7  UNL     1      15.794  17.580  47.310  1.00  0.00     0.006 C 
HETATM    4  C8  UNL     1      16.981  17.207  46.514  1.00  0.00     0.010 C 
HETATM    5  C9  UNL     1      17.892  18.290  46.041  1.00  0.00    -0.034 C 
HETATM    6  C13 UNL     1      16.991  19.522  45.716  1.00  0.00     0.015 C 
HETATM    7  C14 UNL     1      16.656  20.385  46.848  1.00  0.00    -0.009 C 
HETATM    8  C15 UNL     1      17.812  20.771  47.718  1.00  0.00     0.010 C 
HETATM    9  C16 UNL     1      18.367  19.444  48.220  1.00  0.00    -0.009 C 
HETATM   10  C17 UNL     1      17.360  18.620  48.921  1.00  0.00     0.010 C 
HETATM   11  C18 UNL     1      18.928  18.791  46.947  1.00  0.00     0.001 C 
ENDROOT
BRANCH   1  12
HETATM   12  C4  UNL     1      15.079  20.966  48.687  1.00  0.00     0.008 C 
BRANCH  12  13
HETATM   13  C3  UNL     1      14.874  22.316  48.042  1.00  0.00     0.032 C 
BRANCH  13  14
HETATM   14  C2  UNL     1      15.677  23.410  48.716  1.00  0.00     0.114 C 
HETATM   15  C1  UNL     1      16.014  23.038  50.139  1.00  0.00     0.039 C 
BRANCH  14  16
HETATM   16  O1  UNL     1      14.844  24.537  48.769  1.00  0.00    -0.396 OA
ATOM     17  H1  UNL     1      14.712  24.831  47.875  1.00  0.00     0.210 HD
ENDBRANCH  14  16
ENDBRANCH  13  14
ENDBRANCH  12  13
ENDBRANCH   1  12
BRANCH   5  18
HETATM   18  C10 UNL     1      18.451  17.961  44.678  1.00  0.00     0.041 C 
BRANCH  18  19
HETATM   19  C11 UNL     1      17.700  18.363  43.478  1.00  0.00     0.114 C 
HETATM   20  C12 UNL     1      16.890  17.156  42.917  1.00  0.00     0.039 C 
BRANCH  19  21
HETATM   21  O2  UNL     1      18.575  18.578  42.363  1.00  0.00    -0.396 OA
ATOM     22  H2  UNL     1      18.253  18.145  41.581  1.00  0.00     0.210 HD
ENDBRANCH  19  21
ENDBRANCH  18  19
ENDBRANCH   5  18
BRANCH  11  23
HETATM   23  C19 UNL     1      20.106  17.970  47.290  1.00  0.00     0.039 C 
BRANCH  23  24
HETATM   24  C20 UNL     1      21.097  18.896  48.047  1.00  0.00     0.145 A 
HETATM   25  C21 UNL     1      22.526  18.421  47.895  1.00  0.00     0.200 A 
HETATM   26  O3  UNL     1      21.810  18.371  49.086  1.00  0.00    -0.381 OA
ENDBRANCH  23  24
ENDBRANCH  11  23
TORSDOF 9
ENDMDL
MODEL 3
REMARK VINA RESULT: -6.576978286      1.871      6.971
REMARK  9 active torsions:
REMARK  status: ('A' for Active; 'I' for Inactive)
REMARK    1  A    between atoms: C2_2  and  O1_3 
REMARK    2  A    between atoms: C2_2  and  C3_5 
REMARK    3  A    between atoms: C3_5  and  C4_6 
REMARK    4  A    between atoms: C4_6  and  C5_7 
REMARK    5  A    between atoms: C9_11  and  C10_12 
REMARK    6  A    between atoms: C10_12  and  C11_13 
REMARK    7  A    between atoms: C11_13  and  O2_15 
REMARK    8  A    between atoms: C18_22  and  C19_23 
REMARK    9  A    between atoms: C19_23  and  C20_24 
ROOT
HETATM    1  C5  UNL     1      16.040  20.391  47.681  1.00  0.00    -0.006 C 
HETATM    2  C6  UNL     1      15.969  18.925  48.009  1.00  0.00    -0.010 C 
HETATM    3  C7  UNL     1      15.331  18.257  46.840  1.00  0.00     0.006 C 
HETATM    4  C8  UNL     1      16.230  17.644  45.842  1.00  0.00     0.010 C 
HETATM    5  C9  UNL     1      17.460  18.387  45.438  1.00  0.00    -0.034 C 
HETATM    6  C13 UNL     1      17.091  19.902  45.446  1.00  0.00     0.015 C 
HETATM    7  C14 UNL     1      17.185  20.577  46.740  1.00  0.00    -0.009 C 
HETATM    8  C15 UNL     1      18.449  20.321  47.500  1.00  0.00     0.010 C 
HETATM    9  C16 UNL     1      18.475  18.810  47.696  1.00  0.00    -0.009 C 
HETATM   10  C17 UNL     1      17.270  18.292  48.378  1.00  0.00     0.010 C 
HETATM   11  C18 UNL     1      18.662  18.272  46.268  1.00  0.00     0.001 C 
ENDROOT
BRANCH   1  12
HETATM   12  C4  UNL     1      16.070  21.309  48.844  1.00  0.00     0.008 C 
BRANCH  12  13
HETATM   13  C3  UNL     1      15.189  22.522  48.667  1.00  0.00     0.032 C 
BRANCH  13  14
HETATM   14  C2  UNL     1      15.962  23.822  48.767  1.00  0.00     0.114 C 
HETATM   15  C1  UNL     1      16.866  23.824  49.976  1.00  0.00     0.039 C 
BRANCH  14  16
HETATM   16  O1  UNL     1      15.011  24.835  48.959  1.00  0.00    -0.396 OA
ATOM     17  H1  UNL     1      15.226  25.538  48.357  1.00  0.00     0.210 HD
ENDBRANCH  14  16
ENDBRANCH  13  14
ENDBRANCH  12  13
ENDBRANCH   1  12
BRANCH   5  18
HETATM   18  C10 UNL     1      17.765  18.160  43.977  1.00  0.00     0.041 C 
BRANCH  18  19
HETATM   19  C11 UNL     1      16.894  17.273  43.191  1.00  0.00     0.114 C 
HETATM   20  C12 UNL     1      17.639  15.948  42.849  1.00  0.00     0.039 C 
BRANCH  19  21
HETATM   21  O2  UNL     1      16.707  17.771  41.860  1.00  0.00    -0.396 OA
ATOM     22  H2  UNL     1      17.502  18.169  41.524  1.00  0.00     0.210 HD
ENDBRANCH  19  21
ENDBRANCH  18  19
ENDBRANCH   5  18
BRANCH  11  23
HETATM   23  C19 UNL     1      19.447  17.022  46.310  1.00  0.00     0.039 C 
BRANCH  23  24
HETATM   24  C20 UNL     1      20.401  17.047  45.085  1.00  0.00     0.145 A 
HETATM   25  C21 UNL     1      20.900  15.659  44.743  1.00  0.00     0.200 A 
HETATM   26  O3  UNL     1      21.700  16.669  45.267  1.00  0.00    -0.381 OA
ENDBRANCH  23  24
ENDBRANCH  11  23
TORSDOF 9
ENDMDL
MODEL 4
REMARK VINA RESULT: -6.538387811      1.079      3.522
REMARK  9 active torsions:
REMARK  status: ('A' for Active; 'I' for Inactive)
REMARK    1  A    between atoms: C2_2  and  O1_3 
REMARK    2  A    between atoms: C2_2  and  C3_5 
REMARK    3  A    between atoms: C3_5  and  C4_6 
REMARK    4  A    between atoms: C4_6  and  C5_7 
REMARK    5  A    between atoms: C9_11  and  C10_12 
REMARK    6  A    between atoms: C10_12  and  C11_13 
REMARK    7  A    between atoms: C11_13  and  O2_15 
REMARK    8  A    between atoms: C18_22  and  C19_23 
REMARK    9  A    between atoms: C19_23  and  C20_24 
ROOT
HETATM    1  C5  UNL     1      18.684  17.408  46.160  1.00  0.00    -0.006 C 
HETATM    2  C6  UNL     1      17.815  18.243  45.259  1.00  0.00    -0.010 C 
HETATM    3  C7  UNL     1      16.425  17.734  45.417  1.00  0.00     0.006 C 
HETATM    4  C8  UNL     1      15.548  18.451  46.364  1.00  0.00     0.010 C 
HETATM    5  C9  UNL     1      16.117  18.888  47.673  1.00  0.00    -0.034 C 
HETATM    6  C13 UNL     1      17.134  17.788  48.108  1.00  0.00     0.015 C 
HETATM    7  C14 UNL     1      18.482  17.908  47.553  1.00  0.00    -0.009 C 
HETATM    8  C15 UNL     1      19.088  19.274  47.642  1.00  0.00     0.010 C 
HETATM    9  C16 UNL     1      18.125  20.167  46.871  1.00  0.00    -0.009 C 
HETATM   10  C17 UNL     1      17.903  19.718  45.479  1.00  0.00     0.010 C 
HETATM   11  C18 UNL     1      16.856  20.151  47.738  1.00  0.00     0.001 C 
ENDROOT
BRANCH   1  12
HETATM   12  C4  UNL     1      20.108  17.306  45.764  1.00  0.00     0.008 C 
BRANCH  12  13
HETATM   13  C3  UNL     1      20.303  16.687  44.400  1.00  0.00     0.032 C 
BRANCH  13  14
HETATM   14  C2  UNL     1      20.854  15.277  44.475  1.00  0.00     0.114 C 
HETATM   15  C1  UNL     1      22.358  15.288  44.602  1.00  0.00     0.039 C 
BRANCH  14  16
HETATM   16  O1  UNL     1      20.546  14.666  43.251  1.00  0.00    -0.396 OA
ATOM     17  H1  UNL     1      19.619  14.459  43.266  1.00  0.00     0.210 HD
ENDBRANCH  14  16
ENDBRANCH  13  14
ENDBRANCH  12  13
ENDBRANCH   1  12
BRANCH   5  18
HETATM   18  C10 UNL     1      15.082  18.787  48.766  1.00  0.00     0.041 C 
BRANCH  18  19
HETATM   19  C11 UNL     1      13.656  18.874  48.415  1.00  0.00     0.114 C 
HETATM   20  C12 UNL     1      13.044  20.199  48.960  1.00  0.00     0.039 C 
BRANCH  19  21
HETATM   21  O2  UNL     1      12.874  17.942  49.173  1.00  0.00    -0.396 OA
ATOM     22  H2  UNL     1      12.633  17.186  48.649  1.00  0.00     0.210 HD
ENDBRANCH  19  21
ENDBRANCH  18  19
ENDBRANCH   5  18
BRANCH  11  23
HETATM   23  C19 UNL     1      16.163  21.450  47.623  1.00  0.00     0.039 C 
BRANCH  23  24
HETATM   24  C20 UNL     1      16.735  22.369  48.736  1.00  0.00     0.145 A 
HETATM   25  C21 UNL     1      16.024  23.704  48.774  1.00  0.00     0.200 A 
HETATM   26  O3  UNL     1      17.343  23.534  48.367  1.00  0.00    -0.381 OA
ENDBRANCH  23  24
ENDBRANCH  11  23
TORSDOF 9
ENDMDL
MODEL 5
REMARK VINA RESULT: -6.453320542      3.823      8.993
REMARK  9 active torsions:
REMARK  status: ('A' for Active; 'I' for Inactive)
REMARK    1  A    between atoms: C2_2  and  O1_3 
REMARK    2  A    between atoms: C2_2  and  C3_5 
REMARK    3  A    between atoms: C3_5  and  C4_6 
REMARK    4  A    between atoms: C4_6  and  C5_7 
REMARK    5  A    between atoms: C9_11  and  C10_12 
REMARK    6  A    between atoms: C10_12  and  C11_13 
REMARK    7  A    between atoms: C11_13  and  O2_15 
REMARK    8  A    between atoms: C18_22  and  C19_23 
REMARK    9  A    between atoms: C19_23  and  C20_24 
ROOT
HETATM    1  C5  UNL     1      17.016  26.814  51.020  1.00  0.00    -0.006 C 
HETATM    2  C6  UNL     1      16.751  26.815  49.540  1.00  0.00    -0.010 C 
HETATM    3  C7  UNL     1      18.027  26.425  48.877  1.00  0.00     0.006 C 
HETATM    4  C8  UNL     1      18.187  25.005  48.505  1.00  0.00     0.010 C 
HETATM    5  C9  UNL     1      17.735  23.960  49.470  1.00  0.00    -0.034 C 
HETATM    6  C13 UNL     1      18.029  24.512  50.898  1.00  0.00     0.015 C 
HETATM    7  C14 UNL     1      17.007  25.389  51.468  1.00  0.00    -0.009 C 
HETATM    8  C15 UNL     1      15.603  24.884  51.360  1.00  0.00     0.010 C 
HETATM    9  C16 UNL     1      15.374  24.719  49.863  1.00  0.00    -0.009 C 
HETATM   10  C17 UNL     1      15.605  25.963  49.098  1.00  0.00     0.010 C 
HETATM   11  C18 UNL     1      16.323  23.571  49.484  1.00  0.00     0.001 C 
ENDROOT
BRANCH   1  12
HETATM   12  C4  UNL     1      16.146  27.699  51.829  1.00  0.00     0.008 C 
BRANCH  12  13
HETATM   13  C3  UNL     1      15.994  29.082  51.242  1.00  0.00     0.032 C 
BRANCH  13  14
HETATM   14  C2  UNL     1      14.581  29.361  50.769  1.00  0.00     0.114 C 
HETATM   15  C1  UNL     1      13.634  28.276  51.221  1.00  0.00     0.039 C 
BRANCH  14  16
HETATM   16  O1  UNL     1      14.617  29.321  49.367  1.00  0.00    -0.396 OA
ATOM     17  H1  UNL     1      14.590  30.220  49.061  1.00  0.00     0.210 HD
ENDBRANCH  14  16
ENDBRANCH  13  14
ENDBRANCH  12  13
ENDBRANCH   1  12
BRANCH   5  18
HETATM   18  C10 UNL     1      18.646  22.758  49.420  1.00  0.00     0.041 C 
BRANCH  18  19
HETATM   19  C11 UNL     1      19.239  22.359  48.134  1.00  0.00     0.114 C 
HETATM   20  C12 UNL     1      18.958  20.852  47.853  1.00  0.00     0.039 C 
BRANCH  19  21
HETATM   21  O2  UNL     1      20.670  22.306  48.212  1.00  0.00    -0.396 OA
ATOM     22  H2  UNL     1      20.960  22.061  49.083  1.00  0.00     0.210 HD
ENDBRANCH  19  21
ENDBRANCH  18  19
ENDBRANCH   5  18
BRANCH  11  23
HETATM   23  C19 UNL     1      15.734  22.787  48.380  1.00  0.00     0.039 C 
BRANCH  23  24
HETATM   24  C20 UNL     1      15.086  21.527  49.016  1.00  0.00     0.145 A 
HETATM   25  C21 UNL     1      15.175  20.331  48.093  1.00  0.00     0.200 A 
HETATM   26  O3  UNL     1      13.989  20.985  48.410  1.00  0.00    -0.381 OA
ENDBRANCH  23  24
ENDBRANCH  11  23
TORSDOF 9
ENDMDL
