MODEL 1
REMARK VINA RESULT: -7.274999252      0.000      0.000
REMARK  9 active torsions:
REMARK  status: ('A' for Active; 'I' for Inactive)
REMARK    1  A    between atoms: C2_2  and  C3_3 
REMARK    2  A    between atoms: C3_3  and  C4_4 
REMARK    3  A    between atoms: C4_4  and  C5_5 
REMARK    4  A    between atoms: C5_5  and  C6_6 
REMARK    5  A    between atoms: C6_6  and  C7_7 
REMARK    6  A    between atoms: C7_7  and  N1_8 
REMARK    7  A    between atoms: N1_8  and  C8_10 
REMARK    8  A    between atoms: C11_15  and  C12_16 
REMARK    9  A    between atoms: C19_23  and  N3_25 
ROOT
HETATM    1  C8  UNL     1      15.612  23.259  48.866  1.00  0.00     0.117 A 
HETATM    2  C9  UNL     1      16.923  22.839  48.912  1.00  0.00     0.136 A 
HETATM    3  N2  UNL     1      17.872  23.459  49.672  1.00  0.00    -0.370 N 
ATOM      4  H2  UNL     1      18.833  23.118  49.684  1.00  0.00     0.164 HD
HETATM    5  C10 UNL     1      17.517  24.526  50.403  1.00  0.00     0.113 A 
HETATM    6  C11 UNL     1      16.216  24.956  50.368  1.00  0.00     0.034 A 
HETATM    7  N4  UNL     1      15.271  24.322  49.602  1.00  0.00    -0.343 N 
ATOM      8  H4  UNL     1      14.309  24.662  49.593  1.00  0.00     0.167 HD
ENDROOT
BRANCH   6   9
HETATM    9  C12 UNL     1      15.746  26.106  51.166  1.00  0.00     0.003 C 
HETATM   10  C13 UNL     1      14.368  26.425  50.538  1.00  0.00     0.022 C 
HETATM   11  C14 UNL     1      15.578  25.914  52.617  1.00  0.00     0.024 C 
HETATM   12  C15 UNL     1      16.488  26.627  53.549  1.00  0.00    -0.044 C 
HETATM   13  C16 UNL     1      17.669  25.803  54.059  1.00  0.00     0.015 C 
HETATM   14  C17 UNL     1      15.694  26.922  54.841  1.00  0.00     0.015 C 
HETATM   15  C18 UNL     1      17.043  27.922  53.084  1.00  0.00     0.047 C 
HETATM   16  C19 UNL     1      16.460  28.418  51.798  1.00  0.00     0.122 C 
HETATM   17  C20 UNL     1      17.304  29.575  51.331  1.00  0.00     0.046 C 
HETATM   18  C21 UNL     1      16.607  27.292  50.789  1.00  0.00     0.053 C 
BRANCH  16  19
HETATM   19  N3  UNL     1      15.094  28.851  51.960  1.00  0.00    -0.071 N 
ATOM     20  H33 UNL     1      14.465  28.057  52.084  1.00  0.00     0.275 HD
ATOM     21  H32 UNL     1      14.953  29.309  52.860  1.00  0.00     0.275 HD
ATOM     22  H31 UNL     1      14.791  29.447  51.189  1.00  0.00     0.275 HD
ENDBRANCH  16  19
ENDBRANCH   6   9
BRANCH   1  23
HETATM   23  N1  UNL     1      14.760  22.574  48.117  1.00  0.00    -0.375 N 
ATOM     24  H1  UNL     1      13.975  23.032  47.656  1.00  0.00     0.161 HD
BRANCH  23  25
HETATM   25  C7  UNL     1      14.990  21.138  47.979  1.00  0.00     0.121 C 
BRANCH  25  26
HETATM   26  C6  UNL     1      14.031  20.353  48.818  1.00  0.00     0.020 C 
BRANCH  26  27
HETATM   27  C5  UNL     1      14.020  18.868  48.517  1.00  0.00     0.002 C 
BRANCH  27  28
HETATM   28  C4  UNL     1      14.950  18.641  47.353  1.00  0.00     0.000 C 
BRANCH  28  29
HETATM   29  C3  UNL     1      15.942  17.543  47.555  1.00  0.00    -0.000 C 
BRANCH  29  30
HETATM   30  C2  UNL     1      17.241  18.076  48.090  1.00  0.00    -0.005 C 
HETATM   31  C1  UNL     1      17.980  18.998  47.183  1.00  0.00     0.005 C 
ENDBRANCH  29  30
ENDBRANCH  28  29
ENDBRANCH  27  28
ENDBRANCH  26  27
ENDBRANCH  25  26
ENDBRANCH  23  25
ENDBRANCH   1  23
TORSDOF 9
ENDMDL
MODEL 2
REMARK VINA RESULT: -7.206533990      1.300      2.208
REMARK  9 active torsions:
REMARK  status: ('A' for Active; 'I' for Inactive)
REMARK    1  A    between atoms: C2_2  and  C3_3 
REMARK    2  A    between atoms: C3_3  and  C4_4 
REMARK    3  A    between atoms: C4_4  and  C5_5 
REMARK    4  A    between atoms: C5_5  and  C6_6 
REMARK    5  A    between atoms: C6_6  and  C7_7 
REMARK    6  A    between atoms: C7_7  and  N1_8 
REMARK    7  A    between atoms: N1_8  and  C8_10 
REMARK    8  A    between atoms: C11_15  and  C12_16 
REMARK    9  A    between atoms: C19_23  and  N3_25 
ROOT
HETATM    1  C8  UNL     1      17.425  22.807  48.714  1.00  0.00     0.117 A 
HETATM    2  C9  UNL     1      18.731  23.010  49.103  1.00  0.00     0.136 A 
HETATM    3  N2  UNL     1      19.092  23.966  50.009  1.00  0.00    -0.370 N 
ATOM      4  H2  UNL     1      20.069  24.085  50.276  1.00  0.00     0.164 HD
HETATM    5  C10 UNL     1      18.138  24.744  50.540  1.00  0.00     0.113 A 
HETATM    6  C11 UNL     1      16.834  24.555  50.163  1.00  0.00     0.034 A 
HETATM    7  N4  UNL     1      16.484  23.589  49.253  1.00  0.00    -0.343 N 
ATOM      8  H4  UNL     1      15.506  23.467  48.989  1.00  0.00     0.167 HD
ENDROOT
BRANCH   6   9
HETATM    9  C12 UNL     1      15.728  25.356  50.724  1.00  0.00     0.003 C 
HETATM   10  C13 UNL     1      14.470  24.673  50.135  1.00  0.00     0.022 C 
HETATM   11  C14 UNL     1      15.598  25.416  52.190  1.00  0.00     0.024 C 
HETATM   12  C15 UNL     1      15.856  26.702  52.885  1.00  0.00    -0.044 C 
HETATM   13  C16 UNL     1      17.254  26.848  53.481  1.00  0.00     0.015 C 
HETATM   14  C17 UNL     1      14.946  26.747  54.134  1.00  0.00     0.015 C 
HETATM   15  C18 UNL     1      15.589  27.943  52.118  1.00  0.00     0.047 C 
HETATM   16  C19 UNL     1      14.922  27.722  50.797  1.00  0.00     0.122 C 
HETATM   17  C20 UNL     1      14.971  29.021  50.037  1.00  0.00     0.046 C 
HETATM   18  C21 UNL     1      15.767  26.707  50.046  1.00  0.00     0.053 C 
BRANCH  16  19
HETATM   19  N3  UNL     1      13.550  27.304  50.951  1.00  0.00    -0.071 N 
ATOM     20  H33 UNL     1      13.433  26.711  51.773  1.00  0.00     0.275 HD
ATOM     21  H32 UNL     1      12.954  28.083  51.230  1.00  0.00     0.275 HD
ATOM     22  H31 UNL     1      13.196  26.847  50.111  1.00  0.00     0.275 HD
ENDBRANCH  16  19
ENDBRANCH   6   9
BRANCH   1  23
HETATM   23  N1  UNL     1      17.173  21.836  47.849  1.00  0.00    -0.375 N 
ATOM     24  H1  UNL     1      16.335  21.850  47.267  1.00  0.00     0.161 HD
BRANCH  23  25
HETATM   25  C7  UNL     1      18.141  20.745  47.760  1.00  0.00     0.121 C 
BRANCH  25  26
HETATM   26  C6  UNL     1      17.552  19.553  47.073  1.00  0.00     0.020 C 
BRANCH  26  27
HETATM   27  C5  UNL     1      17.380  18.346  47.971  1.00  0.00     0.002 C 
BRANCH  27  28
HETATM   28  C4  UNL     1      16.041  17.734  47.644  1.00  0.00     0.000 C 
BRANCH  28  29
HETATM   29  C3  UNL     1      14.955  18.722  47.375  1.00  0.00    -0.000 C 
BRANCH  29  30
HETATM   30  C2  UNL     1      14.054  18.878  48.567  1.00  0.00    -0.005 C 
HETATM   31  C1  UNL     1      14.178  20.167  49.303  1.00  0.00     0.005 C 
ENDBRANCH  29  30
ENDBRANCH  28  29
ENDBRANCH  27  28
ENDBRANCH  26  27
ENDBRANCH  25  26
ENDBRANCH  23  25
ENDBRANCH   1  23
TORSDOF 9
ENDMDL
MODEL 3
REMARK VINA RESULT: -7.108891825      1.444      3.157
REMARK  9 active torsions:
REMARK  status: ('A' for Active; 'I' for Inactive)
REMARK    1  A    between atoms: C2_2  and  C3_3 
REMARK    2  A    between atoms: C3_3  and  C4_4 
REMARK    3  A    between atoms: C4_4  and  C5_5 
REMARK    4  A    between atoms: C5_5  and  C6_6 
REMARK    5  A    between atoms: C6_6  and  C7_7 
REMARK    6  A    between atoms: C7_7  and  N1_8 
REMARK    7  A    between atoms: N1_8  and  C8_10 
REMARK    8  A    between atoms: C11_15  and  C12_16 
REMARK    9  A    between atoms: C19_23  and  N3_25 
ROOT
HETATM    1  C8  UNL     1      16.995  22.694  48.005  1.00  0.00     0.117 A 
HETATM    2  C9  UNL     1      15.689  22.269  48.101  1.00  0.00     0.136 A 
HETATM    3  N2  UNL     1      14.732  22.966  48.782  1.00  0.00    -0.370 N 
ATOM      4  H2  UNL     1      13.773  22.622  48.829  1.00  0.00     0.164 HD
HETATM    5  C10 UNL     1      15.077  24.111  49.389  1.00  0.00     0.113 A 
HETATM    6  C11 UNL     1      16.374  24.547  49.303  1.00  0.00     0.034 A 
HETATM    7  N4  UNL     1      17.325  23.839  48.613  1.00  0.00    -0.343 N 
ATOM      8  H4  UNL     1      18.283  24.185  48.563  1.00  0.00     0.167 HD
ENDROOT
BRANCH   6   9
HETATM    9  C12 UNL     1      16.821  25.810  49.922  1.00  0.00     0.003 C 
HETATM   10  C13 UNL     1      18.228  26.018  49.312  1.00  0.00     0.022 C 
HETATM   11  C14 UNL     1      16.013  27.019  49.682  1.00  0.00     0.024 C 
HETATM   12  C15 UNL     1      15.269  27.625  50.814  1.00  0.00    -0.044 C 
HETATM   13  C16 UNL     1      13.795  27.236  50.904  1.00  0.00     0.015 C 
HETATM   14  C17 UNL     1      15.205  29.149  50.566  1.00  0.00     0.015 C 
HETATM   15  C18 UNL     1      15.841  27.437  52.169  1.00  0.00     0.047 C 
HETATM   16  C19 UNL     1      17.198  26.806  52.185  1.00  0.00     0.122 C 
HETATM   17  C20 UNL     1      17.514  26.438  53.611  1.00  0.00     0.046 C 
HETATM   18  C21 UNL     1      17.090  25.521  51.382  1.00  0.00     0.053 C 
BRANCH  16  19
HETATM   19  N3  UNL     1      18.212  27.699  51.680  1.00  0.00    -0.071 N 
ATOM     20  H33 UNL     1      18.045  27.934  50.702  1.00  0.00     0.275 HD
ATOM     21  H32 UNL     1      18.122  28.630  52.086  1.00  0.00     0.275 HD
ATOM     22  H31 UNL     1      19.150  27.323  51.817  1.00  0.00     0.275 HD
ENDBRANCH  16  19
ENDBRANCH   6   9
BRANCH   1  23
HETATM   23  N1  UNL     1      17.842  21.961  47.299  1.00  0.00    -0.375 N 
ATOM     24  H1  UNL     1      18.149  22.253  46.371  1.00  0.00     0.161 HD
BRANCH  23  25
HETATM   25  C7  UNL     1      18.321  20.718  47.900  1.00  0.00     0.121 C 
BRANCH  25  26
HETATM   26  C6  UNL     1      17.847  19.527  47.128  1.00  0.00     0.020 C 
BRANCH  26  27
HETATM   27  C5  UNL     1      17.604  18.297  47.978  1.00  0.00     0.002 C 
BRANCH  27  28
HETATM   28  C4  UNL     1      16.301  17.690  47.522  1.00  0.00     0.000 C 
BRANCH  28  29
HETATM   29  C3  UNL     1      15.225  18.679  47.224  1.00  0.00    -0.000 C 
BRANCH  29  30
HETATM   30  C2  UNL     1      14.250  18.783  48.363  1.00  0.00    -0.005 C 
HETATM   31  C1  UNL     1      13.021  19.576  48.088  1.00  0.00     0.005 C 
ENDBRANCH  29  30
ENDBRANCH  28  29
ENDBRANCH  27  28
ENDBRANCH  26  27
ENDBRANCH  25  26
ENDBRANCH  23  25
ENDBRANCH   1  23
TORSDOF 9
ENDMDL
MODEL 4
REMARK VINA RESULT: -7.084480335      1.448      1.831
REMARK  9 active torsions:
REMARK  status: ('A' for Active; 'I' for Inactive)
REMARK    1  A    between atoms: C2_2  and  C3_3 
REMARK    2  A    between atoms: C3_3  and  C4_4 
REMARK    3  A    between atoms: C4_4  and  C5_5 
REMARK    4  A    between atoms: C5_5  and  C6_6 
REMARK    5  A    between atoms: C6_6  and  C7_7 
REMARK    6  A    between atoms: C7_7  and  N1_8 
REMARK    7  A    between atoms: N1_8  and  C8_10 
REMARK    8  A    between atoms: C11_15  and  C12_16 
REMARK    9  A    between atoms: C19_23  and  N3_25 
ROOT
HETATM    1  C8  UNL     1      17.470  23.098  48.748  1.00  0.00     0.117 A 
HETATM    2  C9  UNL     1      18.758  23.269  49.205  1.00  0.00     0.136 A 
HETATM    3  N2  UNL     1      19.080  24.154  50.194  1.00  0.00    -0.370 N 
ATOM      4  H2  UNL     1      20.045  24.251  50.510  1.00  0.00     0.164 HD
HETATM    5  C10 UNL     1      18.104  24.890  50.744  1.00  0.00     0.113 A 
HETATM    6  C11 UNL     1      16.817  24.731  50.300  1.00  0.00     0.034 A 
HETATM    7  N4  UNL     1      16.506  23.838  49.306  1.00  0.00    -0.343 N 
ATOM      8  H4  UNL     1      15.541  23.738  48.994  1.00  0.00     0.167 HD
ENDROOT
BRANCH   6   9
HETATM    9  C12 UNL     1      15.687  25.488  50.875  1.00  0.00     0.003 C 
HETATM   10  C13 UNL     1      14.451  24.797  50.251  1.00  0.00     0.022 C 
HETATM   11  C14 UNL     1      15.541  25.498  52.341  1.00  0.00     0.024 C 
HETATM   12  C15 UNL     1      15.762  26.767  53.079  1.00  0.00    -0.044 C 
HETATM   13  C16 UNL     1      17.151  26.925  53.694  1.00  0.00     0.015 C 
HETATM   14  C17 UNL     1      14.839  26.751  54.319  1.00  0.00     0.015 C 
HETATM   15  C18 UNL     1      15.474  28.025  52.349  1.00  0.00     0.047 C 
HETATM   16  C19 UNL     1      14.826  27.832  51.015  1.00  0.00     0.122 C 
HETATM   17  C20 UNL     1      14.852  29.156  50.298  1.00  0.00     0.046 C 
HETATM   18  C21 UNL     1      15.702  26.862  50.241  1.00  0.00     0.053 C 
BRANCH  16  19
HETATM   19  N3  UNL     1      13.463  27.378  51.141  1.00  0.00    -0.071 N 
ATOM     20  H33 UNL     1      13.350  26.761  51.946  1.00  0.00     0.275 HD
ATOM     21  H32 UNL     1      12.845  28.135  51.432  1.00  0.00     0.275 HD
ATOM     22  H31 UNL     1      13.129  26.935  50.285  1.00  0.00     0.275 HD
ENDBRANCH  16  19
ENDBRANCH   6   9
BRANCH   1  23
HETATM   23  N1  UNL     1      17.256  22.196  47.802  1.00  0.00    -0.375 N 
ATOM     24  H1  UNL     1      17.884  22.107  47.004  1.00  0.00     0.161 HD
BRANCH  23  25
HETATM   25  C7  UNL     1      16.086  21.334  47.947  1.00  0.00     0.121 C 
BRANCH  25  26
HETATM   26  C6  UNL     1      16.264  20.050  47.198  1.00  0.00     0.020 C 
BRANCH  26  27
HETATM   27  C5  UNL     1      15.983  18.811  48.023  1.00  0.00     0.002 C 
BRANCH  27  28
HETATM   28  C4  UNL     1      17.242  17.981  48.023  1.00  0.00     0.000 C 
BRANCH  28  29
HETATM   29  C3  UNL     1      18.268  18.406  47.026  1.00  0.00    -0.000 C 
BRANCH  29  30
HETATM   30  C2  UNL     1      19.631  18.494  47.651  1.00  0.00    -0.005 C 
HETATM   31  C1  UNL     1      20.080  19.864  48.025  1.00  0.00     0.005 C 
ENDBRANCH  29  30
ENDBRANCH  28  29
ENDBRANCH  27  28
ENDBRANCH  26  27
ENDBRANCH  25  26
ENDBRANCH  23  25
ENDBRANCH   1  23
TORSDOF 9
ENDMDL
MODEL 5
REMARK VINA RESULT: -7.068002382      1.512      3.374
REMARK  9 active torsions:
REMARK  status: ('A' for Active; 'I' for Inactive)
REMARK    1  A    between atoms: C2_2  and  C3_3 
REMARK    2  A    between atoms: C3_3  and  C4_4 
REMARK    3  A    between atoms: C4_4  and  C5_5 
REMARK    4  A    between atoms: C5_5  and  C6_6 
REMARK    5  A    between atoms: C6_6  and  C7_7 
REMARK    6  A    between atoms: C7_7  and  N1_8 
REMARK    7  A    between atoms: N1_8  and  C8_10 
REMARK    8  A    between atoms: C11_15  and  C12_16 
REMARK    9  A    between atoms: C19_23  and  N3_25 
ROOT
HETATM    1  C8  UNL     1      17.073  23.613  48.619  1.00  0.00     0.117 A 
HETATM    2  C9  UNL     1      15.977  22.816  48.374  1.00  0.00     0.136 A 
HETATM    3  N2  UNL     1      14.754  23.048  48.934  1.00  0.00    -0.370 N 
ATOM      4  H2  UNL     1      13.963  22.438  48.726  1.00  0.00     0.164 HD
HETATM    5  C10 UNL     1      14.610  24.093  49.761  1.00  0.00     0.113 A 
HETATM    6  C11 UNL     1      15.692  24.896  50.016  1.00  0.00     0.034 A 
HETATM    7  N4  UNL     1      16.916  24.654  49.445  1.00  0.00    -0.343 N 
ATOM      8  H4  UNL     1      17.705  25.266  49.650  1.00  0.00     0.167 HD
ENDROOT
BRANCH   6   9
HETATM    9  C12 UNL     1      15.604  26.079  50.895  1.00  0.00     0.003 C 
HETATM   10  C13 UNL     1      15.927  25.499  52.293  1.00  0.00     0.022 C 
HETATM   11  C14 UNL     1      16.512  27.207  50.624  1.00  0.00     0.024 C 
HETATM   12  C15 UNL     1      15.945  28.488  50.134  1.00  0.00    -0.044 C 
HETATM   13  C16 UNL     1      16.012  28.691  48.621  1.00  0.00     0.015 C 
HETATM   14  C17 UNL     1      16.839  29.629  50.671  1.00  0.00     0.015 C 
HETATM   15  C18 UNL     1      14.555  28.806  50.544  1.00  0.00     0.047 C 
HETATM   16  C19 UNL     1      13.977  27.862  51.550  1.00  0.00     0.122 C 
HETATM   17  C20 UNL     1      12.502  28.150  51.652  1.00  0.00     0.046 C 
HETATM   18  C21 UNL     1      14.143  26.463  50.982  1.00  0.00     0.053 C 
BRANCH  16  19
HETATM   19  N3  UNL     1      14.590  28.017  52.846  1.00  0.00    -0.071 N 
ATOM     20  H33 UNL     1      14.378  27.225  53.454  1.00  0.00     0.275 HD
ATOM     21  H32 UNL     1      15.603  27.911  52.793  1.00  0.00     0.275 HD
ATOM     22  H31 UNL     1      14.332  28.901  53.285  1.00  0.00     0.275 HD
ENDBRANCH  16  19
ENDBRANCH   6   9
BRANCH   1  23
HETATM   23  N1  UNL     1      18.210  23.321  48.007  1.00  0.00    -0.375 N 
ATOM     24  H1  UNL     1      18.964  24.005  47.935  1.00  0.00     0.161 HD
BRANCH  23  25
HETATM   25  C7  UNL     1      18.345  21.981  47.440  1.00  0.00     0.121 C 
BRANCH  25  26
HETATM   26  C6  UNL     1      19.506  21.253  48.042  1.00  0.00     0.020 C 
BRANCH  26  27
HETATM   27  C5  UNL     1      19.359  19.746  48.039  1.00  0.00     0.002 C 
BRANCH  27  28
HETATM   28  C4  UNL     1      17.930  19.438  47.669  1.00  0.00     0.000 C 
BRANCH  28  29
HETATM   29  C3  UNL     1      17.480  18.059  48.021  1.00  0.00    -0.000 C 
BRANCH  29  30
HETATM   30  C2  UNL     1      16.022  17.867  47.713  1.00  0.00    -0.005 C 
HETATM   31  C1  UNL     1      15.093  18.821  48.380  1.00  0.00     0.005 C 
ENDBRANCH  29  30
ENDBRANCH  28  29
ENDBRANCH  27  28
ENDBRANCH  26  27
ENDBRANCH  25  26
ENDBRANCH  23  25
ENDBRANCH   1  23
TORSDOF 9
ENDMDL
