MODEL 1
REMARK VINA RESULT: -7.549361375      0.000      0.000
REMARK  8 active torsions:
REMARK  status: ('A' for Active; 'I' for Inactive)
REMARK    1  A    between atoms: C1_2  and  C2_4 
REMARK    2  A    between atoms: C2_4  and  C3_6 
REMARK    3  A    between atoms: C4_7  and  C5_8 
REMARK    4  A    between atoms: C8_11  and  N2_12 
REMARK    5  A    between atoms: C9_14  and  N3_15 
REMARK    6  A    between atoms: C9_14  and  C18_28 
REMARK       I    between atoms: N3_15  and  C10_16 
REMARK    7  A    between atoms: C10_16  and  C11_18 
REMARK    8  A    between atoms: C16_23  and  C17_24 
ROOT
HETATM    1  N2  UNL     1      36.751  43.009   7.796  1.00  0.00    -0.329 N 
ATOM      2  H2  UNL     1      37.044  42.337   8.504  1.00  0.00     0.168 HD
HETATM    3  C9  UNL     1      37.587  43.218   6.782  1.00  0.00     0.210 C 
ENDROOT
BRANCH   3   4
HETATM    4  N3  UNL     1      38.757  42.514   6.787  1.00  0.00    -0.345 NA
HETATM    5  C10 UNL     1      39.924  41.812   6.791  1.00  0.00     0.329 C 
HETATM    6  O3  UNL     1      41.029  42.224   7.206  1.00  0.00    -0.251 OA
BRANCH   5   7
HETATM    7  C11 UNL     1      39.958  40.416   6.265  1.00  0.00     0.061 A 
HETATM    8  C12 UNL     1      40.210  40.274   4.912  1.00  0.00     0.019 A 
HETATM    9  C13 UNL     1      40.232  39.022   4.314  1.00  0.00     0.001 A 
HETATM   10  C14 UNL     1      39.997  37.915   5.094  1.00  0.00     0.001 A 
HETATM   11  C15 UNL     1      39.750  38.052   6.430  1.00  0.00     0.017 A 
HETATM   12  C16 UNL     1      39.728  39.343   7.040  1.00  0.00     0.064 A 
BRANCH  12  13
HETATM   13  C17 UNL     1      39.487  39.432   8.487  1.00  0.00     0.418 C 
HETATM   14  F1  UNL     1      38.147  39.673   8.707  1.00  0.00    -0.166 F 
HETATM   15  F2  UNL     1      40.351  40.206   9.191  1.00  0.00    -0.166 F 
HETATM   16  F3  UNL     1      39.654  38.104   8.998  1.00  0.00    -0.166 F 
ENDBRANCH  12  13
ENDBRANCH   5   7
ENDBRANCH   3   4
BRANCH   3  17
HETATM   17  C18 UNL     1      37.166  44.173   5.759  1.00  0.00     0.091 A 
HETATM   18  C19 UNL     1      37.639  45.459   5.882  1.00  0.00     0.034 A 
HETATM   19  C20 UNL     1      37.277  46.374   4.913  1.00  0.00     0.004 A 
HETATM   20  C21 UNL     1      36.476  46.030   3.861  1.00  0.00     0.017 A 
HETATM   21  C22 UNL     1      36.020  44.713   3.780  1.00  0.00     0.088 A 
HETATM   22  N4  UNL     1      36.386  43.851   4.731  1.00  0.00    -0.362 N 
ATOM     23  H4  UNL     1      36.048  42.891   4.667  1.00  0.00     0.165 HD
ENDBRANCH   3  17
BRANCH   1  24
HETATM   24  C8  UNL     1      35.518  43.617   7.981  1.00  0.00     0.034 A 
HETATM   25  C7  UNL     1      35.430  44.834   8.666  1.00  0.00     0.030 A 
HETATM   26  C6  UNL     1      34.204  45.479   8.835  1.00  0.00     0.013 A 
HETATM   27  C5  UNL     1      33.056  44.920   8.328  1.00  0.00    -0.036 A 
HETATM   28  C24 UNL     1      33.152  43.704   7.649  1.00  0.00     0.013 A 
HETATM   29  C23 UNL     1      34.356  43.062   7.477  1.00  0.00     0.030 A 
BRANCH  27  30
HETATM   30  C4  UNL     1      31.749  45.585   8.461  1.00  0.00     0.015 C 
HETATM   31  C3  UNL     1      30.598  45.009   8.226  1.00  0.00     0.061 C 
BRANCH  31  32
HETATM   32  C2  UNL     1      29.304  45.613   8.344  1.00  0.00     0.236 C 
HETATM   33  O2  UNL     1      29.063  46.614   7.565  1.00  0.00    -0.283 OA
BRANCH  32  34
HETATM   34  C1  UNL     1      28.244  45.237   9.222  1.00  0.00     0.304 C 
HETATM   35  N1  UNL     1      28.549  44.341  10.333  1.00  0.00    -0.054 NA
HETATM   36  O1  UNL     1      27.043  45.619   9.125  1.00  0.00    -0.267 OA
ENDBRANCH  32  34
ENDBRANCH  31  32
ENDBRANCH  27  30
ENDBRANCH   1  24
TORSDOF 8
ENDMDL
MODEL 2
REMARK VINA RESULT: -7.175322975      3.759      5.335
REMARK  8 active torsions:
REMARK  status: ('A' for Active; 'I' for Inactive)
REMARK    1  A    between atoms: C1_2  and  C2_4 
REMARK    2  A    between atoms: C2_4  and  C3_6 
REMARK    3  A    between atoms: C4_7  and  C5_8 
REMARK    4  A    between atoms: C8_11  and  N2_12 
REMARK    5  A    between atoms: C9_14  and  N3_15 
REMARK    6  A    between atoms: C9_14  and  C18_28 
REMARK       I    between atoms: N3_15  and  C10_16 
REMARK    7  A    between atoms: C10_16  and  C11_18 
REMARK    8  A    between atoms: C16_23  and  C17_24 
ROOT
HETATM    1  N2  UNL     1      34.707  46.588   6.520  1.00  0.00    -0.329 N 
ATOM      2  H2  UNL     1      34.963  46.846   5.567  1.00  0.00     0.168 HD
HETATM    3  C9  UNL     1      35.681  46.125   7.300  1.00  0.00     0.210 C 
ENDROOT
BRANCH   3   4
HETATM    4  N3  UNL     1      36.928  46.040   6.751  1.00  0.00    -0.345 NA
HETATM    5  C10 UNL     1      38.172  45.955   6.203  1.00  0.00     0.329 C 
HETATM    6  O3  UNL     1      38.589  46.603   5.218  1.00  0.00    -0.251 OA
BRANCH   5   7
HETATM    7  C11 UNL     1      39.181  45.020   6.783  1.00  0.00     0.061 A 
HETATM    8  C12 UNL     1      39.141  43.714   6.330  1.00  0.00     0.019 A 
HETATM    9  C13 UNL     1      40.013  42.755   6.827  1.00  0.00     0.001 A 
HETATM   10  C14 UNL     1      40.926  43.128   7.783  1.00  0.00     0.001 A 
HETATM   11  C15 UNL     1      40.969  44.417   8.231  1.00  0.00     0.017 A 
HETATM   12  C16 UNL     1      40.069  45.399   7.717  1.00  0.00     0.064 A 
BRANCH  12  13
HETATM   13  C17 UNL     1      40.177  46.779   8.211  1.00  0.00     0.418 C 
HETATM   14  F1  UNL     1      39.072  47.070   8.982  1.00  0.00    -0.166 F 
HETATM   15  F2  UNL     1      40.524  47.718   7.293  1.00  0.00    -0.166 F 
HETATM   16  F3  UNL     1      41.238  46.772   9.175  1.00  0.00    -0.166 F 
ENDBRANCH  12  13
ENDBRANCH   5   7
ENDBRANCH   3   4
BRANCH   3  17
HETATM   17  C18 UNL     1      35.321  45.764   8.669  1.00  0.00     0.091 A 
HETATM   18  C19 UNL     1      34.970  44.452   8.890  1.00  0.00     0.034 A 
HETATM   19  C20 UNL     1      34.652  44.078  10.181  1.00  0.00     0.004 A 
HETATM   20  C21 UNL     1      34.677  44.970  11.216  1.00  0.00     0.017 A 
HETATM   21  C22 UNL     1      35.039  46.290  10.942  1.00  0.00     0.088 A 
HETATM   22  N4  UNL     1      35.342  46.622   9.685  1.00  0.00    -0.362 N 
ATOM     23  H4  UNL     1      35.603  47.589   9.491  1.00  0.00     0.165 HD
ENDBRANCH   3  17
BRANCH   1  24
HETATM   24  C8  UNL     1      33.378  46.753   6.879  1.00  0.00     0.034 A 
HETATM   25  C7  UNL     1      32.948  47.953   7.456  1.00  0.00     0.030 A 
HETATM   26  C6  UNL     1      31.609  48.152   7.794  1.00  0.00     0.013 A 
HETATM   27  C5  UNL     1      30.686  47.162   7.563  1.00  0.00    -0.036 A 
HETATM   28  C24 UNL     1      31.123  45.966   6.990  1.00  0.00     0.013 A 
HETATM   29  C23 UNL     1      32.440  45.762   6.652  1.00  0.00     0.030 A 
BRANCH  27  30
HETATM   30  C4  UNL     1      29.260  47.346   7.880  1.00  0.00     0.015 C 
HETATM   31  C3  UNL     1      28.438  48.091   7.185  1.00  0.00     0.061 C 
BRANCH  31  32
HETATM   32  C2  UNL     1      27.046  48.300   7.453  1.00  0.00     0.236 C 
HETATM   33  O2  UNL     1      26.366  47.261   7.805  1.00  0.00    -0.283 OA
BRANCH  32  34
HETATM   34  C1  UNL     1      26.318  49.525   7.377  1.00  0.00     0.304 C 
HETATM   35  N1  UNL     1      24.912  49.473   6.989  1.00  0.00    -0.054 NA
HETATM   36  O1  UNL     1      26.788  50.672   7.623  1.00  0.00    -0.267 OA
ENDBRANCH  32  34
ENDBRANCH  31  32
ENDBRANCH  27  30
ENDBRANCH   1  24
TORSDOF 8
ENDMDL
MODEL 3
REMARK VINA RESULT: -7.168284349      4.646     10.492
REMARK  8 active torsions:
REMARK  status: ('A' for Active; 'I' for Inactive)
REMARK    1  A    between atoms: C1_2  and  C2_4 
REMARK    2  A    between atoms: C2_4  and  C3_6 
REMARK    3  A    between atoms: C4_7  and  C5_8 
REMARK    4  A    between atoms: C8_11  and  N2_12 
REMARK    5  A    between atoms: C9_14  and  N3_15 
REMARK    6  A    between atoms: C9_14  and  C18_28 
REMARK       I    between atoms: N3_15  and  C10_16 
REMARK    7  A    between atoms: C10_16  and  C11_18 
REMARK    8  A    between atoms: C16_23  and  C17_24 
ROOT
HETATM    1  N2  UNL     1      34.356  46.303   7.063  1.00  0.00    -0.329 N 
ATOM      2  H2  UNL     1      34.281  47.182   6.550  1.00  0.00     0.168 HD
HETATM    3  C9  UNL     1      33.363  46.009   7.899  1.00  0.00     0.210 C 
ENDROOT
BRANCH   3   4
HETATM    4  N3  UNL     1      32.342  46.910   7.992  1.00  0.00    -0.345 NA
HETATM    5  C10 UNL     1      31.323  47.808   8.084  1.00  0.00     0.329 C 
HETATM    6  O3  UNL     1      31.436  49.054   8.086  1.00  0.00    -0.251 OA
BRANCH   5   7
HETATM    7  C11 UNL     1      29.913  47.330   8.198  1.00  0.00     0.061 A 
HETATM    8  C12 UNL     1      29.674  46.338   9.133  1.00  0.00     0.019 A 
HETATM    9  C13 UNL     1      28.405  45.799   9.298  1.00  0.00     0.001 A 
HETATM   10  C14 UNL     1      27.382  46.271   8.512  1.00  0.00     0.001 A 
HETATM   11  C15 UNL     1      27.615  47.251   7.590  1.00  0.00     0.017 A 
HETATM   12  C16 UNL     1      28.922  47.802   7.424  1.00  0.00     0.064 A 
BRANCH  12  13
HETATM   13  C17 UNL     1      29.112  48.876   6.439  1.00  0.00     0.418 C 
HETATM   14  F1  UNL     1      30.055  48.478   5.515  1.00  0.00    -0.166 F 
HETATM   15  F2  UNL     1      29.265  50.128   6.941  1.00  0.00    -0.166 F 
HETATM   16  F3  UNL     1      27.910  48.916   5.661  1.00  0.00    -0.166 F 
ENDBRANCH  12  13
ENDBRANCH   5   7
ENDBRANCH   3   4
BRANCH   3  17
HETATM   17  C18 UNL     1      33.461  44.746   8.628  1.00  0.00     0.091 A 
HETATM   18  C19 UNL     1      33.806  44.825   9.958  1.00  0.00     0.034 A 
HETATM   19  C20 UNL     1      33.879  43.648  10.676  1.00  0.00     0.004 A 
HETATM   20  C21 UNL     1      33.621  42.436  10.100  1.00  0.00     0.017 A 
HETATM   21  C22 UNL     1      33.276  42.407   8.748  1.00  0.00     0.088 A 
HETATM   22  N4  UNL     1      33.214  43.561   8.079  1.00  0.00    -0.362 N 
ATOM     23  H4  UNL     1      32.963  43.532   7.091  1.00  0.00     0.165 HD
ENDBRANCH   3  17
BRANCH   1  24
HETATM   24  C8  UNL     1      35.481  45.530   6.821  1.00  0.00     0.034 A 
HETATM   25  C7  UNL     1      36.538  45.519   7.738  1.00  0.00     0.030 A 
HETATM   26  C6  UNL     1      37.665  44.723   7.530  1.00  0.00     0.013 A 
HETATM   27  C5  UNL     1      37.753  43.933   6.409  1.00  0.00    -0.036 A 
HETATM   28  C24 UNL     1      36.696  43.953   5.497  1.00  0.00     0.013 A 
HETATM   29  C23 UNL     1      35.581  44.733   5.694  1.00  0.00     0.030 A 
BRANCH  27  30
HETATM   30  C4  UNL     1      38.913  43.059   6.170  1.00  0.00     0.015 C 
HETATM   31  C3  UNL     1      39.041  41.850   6.654  1.00  0.00     0.061 C 
BRANCH  31  32
HETATM   32  C2  UNL     1      40.147  40.963   6.448  1.00  0.00     0.236 C 
HETATM   33  O2  UNL     1      41.158  41.444   5.806  1.00  0.00    -0.283 OA
BRANCH  32  34
HETATM   34  C1  UNL     1      40.267  39.606   6.873  1.00  0.00     0.304 C 
HETATM   35  N1  UNL     1      40.042  39.298   8.282  1.00  0.00    -0.054 NA
HETATM   36  O1  UNL     1      40.552  38.627   6.126  1.00  0.00    -0.267 OA
ENDBRANCH  32  34
ENDBRANCH  31  32
ENDBRANCH  27  30
ENDBRANCH   1  24
TORSDOF 8
ENDMDL
MODEL 4
REMARK VINA RESULT: -6.951202023      3.913      5.553
REMARK  8 active torsions:
REMARK  status: ('A' for Active; 'I' for Inactive)
REMARK    1  A    between atoms: C1_2  and  C2_4 
REMARK    2  A    between atoms: C2_4  and  C3_6 
REMARK    3  A    between atoms: C4_7  and  C5_8 
REMARK    4  A    between atoms: C8_11  and  N2_12 
REMARK    5  A    between atoms: C9_14  and  N3_15 
REMARK    6  A    between atoms: C9_14  and  C18_28 
REMARK       I    between atoms: N3_15  and  C10_16 
REMARK    7  A    between atoms: C10_16  and  C11_18 
REMARK    8  A    between atoms: C16_23  and  C17_24 
ROOT
HETATM    1  N2  UNL     1      34.219  45.211   6.469  1.00  0.00    -0.329 N 
ATOM      2  H2  UNL     1      34.391  45.153   5.465  1.00  0.00     0.168 HD
HETATM    3  C9  UNL     1      35.203  44.809   7.271  1.00  0.00     0.210 C 
ENDROOT
BRANCH   3   4
HETATM    4  N3  UNL     1      36.345  44.358   6.675  1.00  0.00    -0.345 NA
HETATM    5  C10 UNL     1      37.484  43.907   6.080  1.00  0.00     0.329 C 
HETATM    6  O3  UNL     1      37.562  42.980   5.245  1.00  0.00    -0.251 OA
BRANCH   5   7
HETATM    7  C11 UNL     1      38.798  44.533   6.412  1.00  0.00     0.061 A 
HETATM    8  C12 UNL     1      39.711  43.732   7.074  1.00  0.00     0.019 A 
HETATM    9  C13 UNL     1      40.951  44.224   7.459  1.00  0.00     0.001 A 
HETATM   10  C14 UNL     1      41.260  45.531   7.168  1.00  0.00     0.001 A 
HETATM   11  C15 UNL     1      40.360  46.323   6.513  1.00  0.00     0.017 A 
HETATM   12  C16 UNL     1      39.086  45.812   6.120  1.00  0.00     0.064 A 
BRANCH  12  13
HETATM   13  C17 UNL     1      38.168  46.698   5.391  1.00  0.00     0.418 C 
HETATM   14  F1  UNL     1      37.284  47.265   6.285  1.00  0.00    -0.166 F 
HETATM   15  F2  UNL     1      37.620  46.190   4.257  1.00  0.00    -0.166 F 
HETATM   16  F3  UNL     1      38.952  47.821   4.971  1.00  0.00    -0.166 F 
ENDBRANCH  12  13
ENDBRANCH   5   7
ENDBRANCH   3   4
BRANCH   3  17
HETATM   17  C18 UNL     1      34.965  44.900   8.710  1.00  0.00     0.091 A 
HETATM   18  C19 UNL     1      35.278  46.097   9.313  1.00  0.00     0.034 A 
HETATM   19  C20 UNL     1      35.038  46.218  10.668  1.00  0.00     0.004 A 
HETATM   20  C21 UNL     1      34.509  45.193  11.400  1.00  0.00     0.017 A 
HETATM   21  C22 UNL     1      34.207  43.998  10.743  1.00  0.00     0.088 A 
HETATM   22  N4  UNL     1      34.451  43.911   9.434  1.00  0.00    -0.362 N 
ATOM     23  H4  UNL     1      34.231  43.034   8.961  1.00  0.00     0.165 HD
ENDBRANCH   3  17
BRANCH   1  24
HETATM   24  C8  UNL     1      32.985  45.702   6.867  1.00  0.00     0.034 A 
HETATM   25  C7  UNL     1      32.744  47.080   6.875  1.00  0.00     0.030 A 
HETATM   26  C6  UNL     1      31.499  47.593   7.240  1.00  0.00     0.013 A 
HETATM   27  C5  UNL     1      30.483  46.742   7.602  1.00  0.00    -0.036 A 
HETATM   28  C24 UNL     1      30.732  45.368   7.595  1.00  0.00     0.013 A 
HETATM   29  C23 UNL     1      31.955  44.854   7.235  1.00  0.00     0.030 A 
BRANCH  27  30
HETATM   30  C4  UNL     1      29.148  47.244   7.966  1.00  0.00     0.015 C 
HETATM   31  C3  UNL     1      28.308  47.791   7.124  1.00  0.00     0.061 C 
BRANCH  31  32
HETATM   32  C2  UNL     1      27.001  48.292   7.429  1.00  0.00     0.236 C 
HETATM   33  O2  UNL     1      26.161  47.445   7.923  1.00  0.00    -0.283 OA
BRANCH  32  34
HETATM   34  C1  UNL     1      26.515  49.622   7.255  1.00  0.00     0.304 C 
HETATM   35  N1  UNL     1      25.249  49.811   6.554  1.00  0.00    -0.054 NA
HETATM   36  O1  UNL     1      27.090  50.671   7.662  1.00  0.00    -0.267 OA
ENDBRANCH  32  34
ENDBRANCH  31  32
ENDBRANCH  27  30
ENDBRANCH   1  24
TORSDOF 8
ENDMDL
MODEL 5
REMARK VINA RESULT: -6.938346142      3.950      5.614
REMARK  8 active torsions:
REMARK  status: ('A' for Active; 'I' for Inactive)
REMARK    1  A    between atoms: C1_2  and  C2_4 
REMARK    2  A    between atoms: C2_4  and  C3_6 
REMARK    3  A    between atoms: C4_7  and  C5_8 
REMARK    4  A    between atoms: C8_11  and  N2_12 
REMARK    5  A    between atoms: C9_14  and  N3_15 
REMARK    6  A    between atoms: C9_14  and  C18_28 
REMARK       I    between atoms: N3_15  and  C10_16 
REMARK    7  A    between atoms: C10_16  and  C11_18 
REMARK    8  A    between atoms: C16_23  and  C17_24 
ROOT
HETATM    1  N2  UNL     1      34.522  45.962   6.628  1.00  0.00    -0.329 N 
ATOM      2  H2  UNL     1      34.753  46.030   5.637  1.00  0.00     0.168 HD
HETATM    3  C9  UNL     1      35.494  45.564   7.446  1.00  0.00     0.210 C 
ENDROOT
BRANCH   3   4
HETATM    4  N3  UNL     1      36.705  45.284   6.882  1.00  0.00    -0.345 NA
HETATM    5  C10 UNL     1      37.913  45.004   6.319  1.00  0.00     0.329 C 
HETATM    6  O3  UNL     1      38.262  43.906   5.830  1.00  0.00    -0.251 OA
BRANCH   5   7
HETATM    7  C11 UNL     1      38.966  46.059   6.246  1.00  0.00     0.061 A 
HETATM    8  C12 UNL     1      38.901  46.919   5.164  1.00  0.00     0.019 A 
HETATM    9  C13 UNL     1      39.849  47.916   4.982  1.00  0.00     0.001 A 
HETATM   10  C14 UNL     1      40.862  48.038   5.903  1.00  0.00     0.001 A 
HETATM   11  C15 UNL     1      40.927  47.191   6.973  1.00  0.00     0.017 A 
HETATM   12  C16 UNL     1      39.949  46.167   7.154  1.00  0.00     0.064 A 
BRANCH  12  13
HETATM   13  C17 UNL     1      40.048  45.303   8.339  1.00  0.00     0.418 C 
HETATM   14  F1  UNL     1      40.488  44.055   7.951  1.00  0.00    -0.166 F 
HETATM   15  F2  UNL     1      38.986  45.321   9.184  1.00  0.00    -0.166 F 
HETATM   16  F3  UNL     1      41.155  45.801   9.101  1.00  0.00    -0.166 F 
ENDBRANCH  12  13
ENDBRANCH   5   7
ENDBRANCH   3   4
BRANCH   3  17
HETATM   17  C18 UNL     1      35.171  45.476   8.868  1.00  0.00     0.091 A 
HETATM   18  C19 UNL     1      34.713  44.261   9.324  1.00  0.00     0.034 A 
HETATM   19  C20 UNL     1      34.426  44.143  10.670  1.00  0.00     0.004 A 
HETATM   20  C21 UNL     1      34.584  45.190  11.533  1.00  0.00     0.017 A 
HETATM   21  C22 UNL     1      35.051  46.403  11.024  1.00  0.00     0.088 A 
HETATM   22  N4  UNL     1      35.320  46.486   9.719  1.00  0.00    -0.362 N 
ATOM     23  H4  UNL     1      35.659  47.376   9.353  1.00  0.00     0.165 HD
ENDBRANCH   3  17
BRANCH   1  24
HETATM   24  C8  UNL     1      33.227  46.294   6.994  1.00  0.00     0.034 A 
HETATM   25  C7  UNL     1      32.914  47.608   7.361  1.00  0.00     0.030 A 
HETATM   26  C6  UNL     1      31.610  47.971   7.700  1.00  0.00     0.013 A 
HETATM   27  C5  UNL     1      30.607  47.032   7.681  1.00  0.00    -0.036 A 
HETATM   28  C24 UNL     1      30.928  45.724   7.318  1.00  0.00     0.013 A 
HETATM   29  C23 UNL     1      32.209  45.357   6.980  1.00  0.00     0.030 A 
BRANCH  27  30
HETATM   30  C4  UNL     1      29.214  47.384   8.005  1.00  0.00     0.015 C 
HETATM   31  C3  UNL     1      28.385  47.965   7.176  1.00  0.00     0.061 C 
BRANCH  31  32
HETATM   32  C2  UNL     1      27.024  48.324   7.444  1.00  0.00     0.236 C 
HETATM   33  O2  UNL     1      26.251  47.378   7.862  1.00  0.00    -0.283 OA
BRANCH  32  34
HETATM   34  C1  UNL     1      26.419  49.608   7.306  1.00  0.00     0.304 C 
HETATM   35  N1  UNL     1      25.063  49.682   6.772  1.00  0.00    -0.054 NA
HETATM   36  O1  UNL     1      26.959  50.709   7.613  1.00  0.00    -0.267 OA
ENDBRANCH  32  34
ENDBRANCH  31  32
ENDBRANCH  27  30
ENDBRANCH   1  24
TORSDOF 8
ENDMDL
