MODEL 1
REMARK VINA RESULT: -7.663751921      0.000      0.000
REMARK  8 active torsions:
REMARK  status: ('A' for Active; 'I' for Inactive)
REMARK    1  A    between atoms: C5_6  and  C6_7 
REMARK    2  A    between atoms: C6_7  and  N1_8 
REMARK    3  A    between atoms: N1_8  and  N2_9 
REMARK       I    between atoms: N2_9  and  C7_11 
REMARK    4  A    between atoms: C7_11  and  C8_13 
REMARK    5  A    between atoms: C18_23  and  O3_24 
REMARK    6  A    between atoms: C20_27  and  O4_28 
REMARK    7  A    between atoms: O4_28  and  C21_29 
REMARK    8  A    between atoms: C21_29  and  C22_30 
ROOT
HETATM    1  O1  UNL     1      24.771  51.093   6.420  1.00  0.00    -0.292 OA
HETATM    2  C1  UNL     1      25.227  49.942   6.639  1.00  0.00     0.163 C 
HETATM    3  C2  UNL     1      24.500  48.683   6.919  1.00  0.00     0.088 C 
HETATM    4  C3  UNL     1      25.492  47.869   7.664  1.00  0.00     0.048 C 
HETATM    5  C4  UNL     1      26.828  48.407   7.251  1.00  0.00    -0.026 A 
HETATM    6  C5  UNL     1      28.110  47.861   7.395  1.00  0.00     0.035 A 
HETATM    7  C18 UNL     1      29.185  48.596   6.920  1.00  0.00     0.081 A 
HETATM    8  C19 UNL     1      28.957  49.859   6.311  1.00  0.00     0.075 A 
HETATM    9  C20 UNL     1      27.705  50.385   6.173  1.00  0.00     0.086 A 
HETATM   10  C23 UNL     1      26.657  49.629   6.657  1.00  0.00     0.050 A 
ENDROOT
BRANCH   6  11
HETATM   11  C6  UNL     1      28.239  46.572   8.039  1.00  0.00     0.223 C 
BRANCH  11  12
HETATM   12  N1  UNL     1      29.173  46.005   8.442  1.00  0.00    -0.335 NA
BRANCH  12  13
HETATM   13  N2  UNL     1      30.215  45.379   8.892  1.00  0.00    -0.203 N 
HETATM   14  C7  UNL     1      31.338  45.045   8.088  1.00  0.00     0.255 C 
HETATM   15  O2  UNL     1      31.302  45.388   6.856  1.00  0.00    -0.270 OA
ATOM     16  H2  UNL     1      30.229  45.111   9.876  1.00  0.00     0.205 HD
BRANCH  14  17
HETATM   17  C8  UNL     1      32.496  44.328   8.661  1.00  0.00     0.044 C 
HETATM   18  C9  UNL     1      32.039  43.400   9.790  1.00  0.00     0.024 C 
HETATM   19  C10 UNL     1      33.259  42.797  10.424  1.00  0.00    -0.013 C 
HETATM   20  C11 UNL     1      34.138  43.891  11.012  1.00  0.00     0.009 C 
HETATM   21  C15 UNL     1      34.014  41.983   9.417  1.00  0.00     0.009 C 
HETATM   22  C12 UNL     1      34.637  44.757   9.876  1.00  0.00    -0.013 C 
HETATM   23  C13 UNL     1      35.366  43.945   8.844  1.00  0.00     0.009 C 
HETATM   24  C17 UNL     1      33.449  45.378   9.211  1.00  0.00     0.024 C 
HETATM   25  C14 UNL     1      34.455  42.895   8.286  1.00  0.00    -0.013 C 
HETATM   26  C16 UNL     1      33.219  43.470   7.651  1.00  0.00     0.024 C 
ENDBRANCH  14  17
ENDBRANCH  12  13
ENDBRANCH  11  12
ENDBRANCH   6  11
BRANCH   7  27
HETATM   27  O3  UNL     1      30.430  48.148   7.022  1.00  0.00    -0.360 OA
ATOM     28  H3  UNL     1      31.152  48.730   7.232  1.00  0.00     0.217 HD
ENDBRANCH   7  27
BRANCH   9  29
HETATM   29  O4  UNL     1      27.510  51.626   5.572  1.00  0.00    -0.341 OA
BRANCH  29  30
HETATM   30  C21 UNL     1      28.397  52.666   5.863  1.00  0.00     0.293 C 
BRANCH  30  31
HETATM   31  C22 UNL     1      28.112  53.361   7.152  1.00  0.00     0.408 C 
HETATM   32  F1  UNL     1      27.011  52.883   7.812  1.00  0.00    -0.169 F 
HETATM   33  F2  UNL     1      27.886  54.711   6.918  1.00  0.00    -0.169 F 
HETATM   34  F3  UNL     1      29.182  53.263   8.039  1.00  0.00    -0.169 F 
ENDBRANCH  30  31
ENDBRANCH  29  30
ENDBRANCH   9  29
TORSDOF 8
ENDMDL
MODEL 2
REMARK VINA RESULT: -7.591912758      0.200      1.335
REMARK  8 active torsions:
REMARK  status: ('A' for Active; 'I' for Inactive)
REMARK    1  A    between atoms: C5_6  and  C6_7 
REMARK    2  A    between atoms: C6_7  and  N1_8 
REMARK    3  A    between atoms: N1_8  and  N2_9 
REMARK       I    between atoms: N2_9  and  C7_11 
REMARK    4  A    between atoms: C7_11  and  C8_13 
REMARK    5  A    between atoms: C18_23  and  O3_24 
REMARK    6  A    between atoms: C20_27  and  O4_28 
REMARK    7  A    between atoms: O4_28  and  C21_29 
REMARK    8  A    between atoms: C21_29  and  C22_30 
ROOT
HETATM    1  O1  UNL     1      24.759  51.098   6.395  1.00  0.00    -0.292 OA
HETATM    2  C1  UNL     1      25.229  49.955   6.622  1.00  0.00     0.163 C 
HETATM    3  C2  UNL     1      24.517  48.690   6.915  1.00  0.00     0.088 C 
HETATM    4  C3  UNL     1      25.522  47.893   7.663  1.00  0.00     0.048 C 
HETATM    5  C4  UNL     1      26.849  48.444   7.242  1.00  0.00    -0.026 A 
HETATM    6  C5  UNL     1      28.138  47.914   7.387  1.00  0.00     0.035 A 
HETATM    7  C18 UNL     1      29.203  48.658   6.903  1.00  0.00     0.081 A 
HETATM    8  C19 UNL     1      28.958  49.913   6.283  1.00  0.00     0.075 A 
HETATM    9  C20 UNL     1      27.700  50.423   6.145  1.00  0.00     0.086 A 
HETATM   10  C23 UNL     1      26.662  49.658   6.638  1.00  0.00     0.050 A 
ENDROOT
BRANCH   6  11
HETATM   11  C6  UNL     1      28.285  46.633   8.041  1.00  0.00     0.223 C 
BRANCH  11  12
HETATM   12  N1  UNL     1      29.229  46.071   8.428  1.00  0.00    -0.335 NA
BRANCH  12  13
HETATM   13  N2  UNL     1      30.278  45.448   8.863  1.00  0.00    -0.203 N 
HETATM   14  C7  UNL     1      31.390  45.114   8.043  1.00  0.00     0.255 C 
HETATM   15  O2  UNL     1      31.334  45.454   6.810  1.00  0.00    -0.270 OA
ATOM     16  H2  UNL     1      30.308  45.182   9.848  1.00  0.00     0.205 HD
BRANCH  14  17
HETATM   17  C8  UNL     1      32.558  44.400   8.600  1.00  0.00     0.044 C 
HETATM   18  C9  UNL     1      33.597  45.402   9.109  1.00  0.00     0.024 C 
HETATM   19  C10 UNL     1      34.814  44.636   9.543  1.00  0.00    -0.013 C 
HETATM   20  C11 UNL     1      35.400  43.874   8.364  1.00  0.00     0.009 C 
HETATM   21  C15 UNL     1      34.463  43.704  10.663  1.00  0.00     0.009 C 
HETATM   22  C12 UNL     1      34.388  42.843   7.917  1.00  0.00    -0.013 C 
HETATM   23  C13 UNL     1      34.004  41.925   9.042  1.00  0.00     0.009 C 
HETATM   24  C17 UNL     1      33.154  43.565   7.478  1.00  0.00     0.024 C 
HETATM   25  C14 UNL     1      33.419  42.719  10.170  1.00  0.00    -0.013 C 
HETATM   26  C16 UNL     1      32.203  43.504   9.762  1.00  0.00     0.024 C 
ENDBRANCH  14  17
ENDBRANCH  12  13
ENDBRANCH  11  12
ENDBRANCH   6  11
BRANCH   7  27
HETATM   27  O3  UNL     1      30.454  48.225   7.004  1.00  0.00    -0.360 OA
ATOM     28  H3  UNL     1      31.114  48.721   7.474  1.00  0.00     0.217 HD
ENDBRANCH   7  27
BRANCH   9  29
HETATM   29  O4  UNL     1      27.488  51.656   5.534  1.00  0.00    -0.341 OA
BRANCH  29  30
HETATM   30  C21 UNL     1      28.333  52.723   5.853  1.00  0.00     0.293 C 
BRANCH  30  31
HETATM   31  C22 UNL     1      28.028  53.365   7.165  1.00  0.00     0.408 C 
HETATM   32  F1  UNL     1      26.946  52.827   7.810  1.00  0.00    -0.169 F 
HETATM   33  F2  UNL     1      27.756  54.713   6.978  1.00  0.00    -0.169 F 
HETATM   34  F3  UNL     1      29.104  53.272   8.047  1.00  0.00    -0.169 F 
ENDBRANCH  30  31
ENDBRANCH  29  30
ENDBRANCH   9  29
TORSDOF 8
ENDMDL
MODEL 3
REMARK VINA RESULT: -7.582626555      2.629      3.754
REMARK  8 active torsions:
REMARK  status: ('A' for Active; 'I' for Inactive)
REMARK    1  A    between atoms: C5_6  and  C6_7 
REMARK    2  A    between atoms: C6_7  and  N1_8 
REMARK    3  A    between atoms: N1_8  and  N2_9 
REMARK       I    between atoms: N2_9  and  C7_11 
REMARK    4  A    between atoms: C7_11  and  C8_13 
REMARK    5  A    between atoms: C18_23  and  O3_24 
REMARK    6  A    between atoms: C20_27  and  O4_28 
REMARK    7  A    between atoms: O4_28  and  C21_29 
REMARK    8  A    between atoms: C21_29  and  C22_30 
ROOT
HETATM    1  O1  UNL     1      25.711  51.450   5.319  1.00  0.00    -0.292 OA
HETATM    2  C1  UNL     1      26.900  51.091   5.514  1.00  0.00     0.163 C 
HETATM    3  C2  UNL     1      28.159  51.767   5.126  1.00  0.00     0.088 C 
HETATM    4  C3  UNL     1      29.141  50.656   5.058  1.00  0.00     0.048 C 
HETATM    5  C4  UNL     1      28.587  49.589   5.952  1.00  0.00    -0.026 A 
HETATM    6  C5  UNL     1      29.202  48.456   6.501  1.00  0.00     0.035 A 
HETATM    7  C18 UNL     1      28.433  47.624   7.299  1.00  0.00     0.081 A 
HETATM    8  C19 UNL     1      27.068  47.941   7.534  1.00  0.00     0.075 A 
HETATM    9  C20 UNL     1      26.476  49.048   6.996  1.00  0.00     0.086 A 
HETATM   10  C23 UNL     1      27.268  49.854   6.206  1.00  0.00     0.050 A 
ENDROOT
BRANCH   6  11
HETATM   11  C6  UNL     1      30.594  48.214   6.195  1.00  0.00     0.223 C 
BRANCH  11  12
HETATM   12  N1  UNL     1      31.446  47.731   6.825  1.00  0.00    -0.335 NA
BRANCH  12  13
HETATM   13  N2  UNL     1      32.397  47.197   7.527  1.00  0.00    -0.203 N 
HETATM   14  C7  UNL     1      32.419  45.827   7.906  1.00  0.00     0.255 C 
HETATM   15  O2  UNL     1      31.439  45.097   7.526  1.00  0.00    -0.270 OA
ATOM     16  H2  UNL     1      33.170  47.793   7.823  1.00  0.00     0.205 HD
BRANCH  14  17
HETATM   17  C8  UNL     1      33.532  45.280   8.708  1.00  0.00     0.044 C 
HETATM   18  C9  UNL     1      32.994  44.337   9.788  1.00  0.00     0.024 C 
HETATM   19  C10 UNL     1      34.144  43.913  10.655  1.00  0.00    -0.013 C 
HETATM   20  C11 UNL     1      34.768  45.126  11.327  1.00  0.00     0.009 C 
HETATM   21  C15 UNL     1      35.157  43.170   9.838  1.00  0.00     0.009 C 
HETATM   22  C12 UNL     1      35.356  46.012  10.251  1.00  0.00    -0.013 C 
HETATM   23  C13 UNL     1      36.348  45.267   9.405  1.00  0.00     0.009 C 
HETATM   24  C17 UNL     1      34.241  46.458   9.359  1.00  0.00     0.024 C 
HETATM   25  C14 UNL     1      35.682  44.094   8.754  1.00  0.00    -0.013 C 
HETATM   26  C16 UNL     1      34.520  44.489   7.885  1.00  0.00     0.024 C 
ENDBRANCH  14  17
ENDBRANCH  12  13
ENDBRANCH  11  12
ENDBRANCH   6  11
BRANCH   7  27
HETATM   27  O3  UNL     1      28.942  46.531   7.853  1.00  0.00    -0.360 OA
ATOM     28  H3  UNL     1      28.418  45.966   8.410  1.00  0.00     0.217 HD
ENDBRANCH   7  27
BRANCH   9  29
HETATM   29  O4  UNL     1      25.135  49.335   7.242  1.00  0.00    -0.341 OA
BRANCH  29  30
HETATM   30  C21 UNL     1      24.278  48.296   7.617  1.00  0.00     0.293 C 
BRANCH  30  31
HETATM   31  C22 UNL     1      23.313  47.894   6.553  1.00  0.00     0.408 C 
HETATM   32  F1  UNL     1      22.029  47.729   6.999  1.00  0.00    -0.169 F 
HETATM   33  F2  UNL     1      23.704  46.684   5.995  1.00  0.00    -0.169 F 
HETATM   34  F3  UNL     1      23.260  48.832   5.524  1.00  0.00    -0.169 F 
ENDBRANCH  30  31
ENDBRANCH  29  30
ENDBRANCH   9  29
TORSDOF 8
ENDMDL
MODEL 4
REMARK VINA RESULT: -7.545775765      0.503      1.471
REMARK  8 active torsions:
REMARK  status: ('A' for Active; 'I' for Inactive)
REMARK    1  A    between atoms: C5_6  and  C6_7 
REMARK    2  A    between atoms: C6_7  and  N1_8 
REMARK    3  A    between atoms: N1_8  and  N2_9 
REMARK       I    between atoms: N2_9  and  C7_11 
REMARK    4  A    between atoms: C7_11  and  C8_13 
REMARK    5  A    between atoms: C18_23  and  O3_24 
REMARK    6  A    between atoms: C20_27  and  O4_28 
REMARK    7  A    between atoms: O4_28  and  C21_29 
REMARK    8  A    between atoms: C21_29  and  C22_30 
ROOT
HETATM    1  O1  UNL     1      24.631  51.151   6.296  1.00  0.00    -0.292 OA
HETATM    2  C1  UNL     1      25.114  50.020   6.556  1.00  0.00     0.163 C 
HETATM    3  C2  UNL     1      24.418  48.759   6.900  1.00  0.00     0.088 C 
HETATM    4  C3  UNL     1      25.440  47.998   7.662  1.00  0.00     0.048 C 
HETATM    5  C4  UNL     1      26.757  48.545   7.206  1.00  0.00    -0.026 A 
HETATM    6  C5  UNL     1      28.052  48.033   7.352  1.00  0.00     0.035 A 
HETATM    7  C18 UNL     1      29.104  48.769   6.829  1.00  0.00     0.081 A 
HETATM    8  C19 UNL     1      28.840  50.000   6.171  1.00  0.00     0.075 A 
HETATM    9  C20 UNL     1      27.575  50.494   6.031  1.00  0.00     0.086 A 
HETATM   10  C23 UNL     1      26.551  49.737   6.563  1.00  0.00     0.050 A 
ENDROOT
BRANCH   6  11
HETATM   11  C6  UNL     1      28.219  46.776   8.047  1.00  0.00     0.223 C 
BRANCH  11  12
HETATM   12  N1  UNL     1      29.176  46.215   8.401  1.00  0.00    -0.335 NA
BRANCH  12  13
HETATM   13  N2  UNL     1      30.243  45.595   8.797  1.00  0.00    -0.203 N 
HETATM   14  C7  UNL     1      31.348  45.313   7.948  1.00  0.00     0.255 C 
HETATM   15  O2  UNL     1      31.267  45.699   6.731  1.00  0.00    -0.270 OA
ATOM     16  H2  UNL     1      30.293  45.292   9.770  1.00  0.00     0.205 HD
BRANCH  14  17
HETATM   17  C8  UNL     1      32.537  44.601   8.461  1.00  0.00     0.044 C 
HETATM   18  C9  UNL     1      33.254  43.876   7.319  1.00  0.00     0.024 C 
HETATM   19  C10 UNL     1      34.372  43.065   7.908  1.00  0.00    -0.013 C 
HETATM   20  C11 UNL     1      33.816  42.031   8.875  1.00  0.00     0.009 C 
HETATM   21  C15 UNL     1      35.357  43.965   8.591  1.00  0.00     0.009 C 
HETATM   22  C12 UNL     1      33.172  42.764  10.031  1.00  0.00    -0.013 C 
HETATM   23  C13 UNL     1      34.142  43.695  10.701  1.00  0.00     0.009 C 
HETATM   24  C17 UNL     1      32.050  43.591   9.488  1.00  0.00     0.024 C 
HETATM   25  C14 UNL     1      34.648  44.701   9.713  1.00  0.00    -0.013 C 
HETATM   26  C16 UNL     1      33.547  45.523   9.100  1.00  0.00     0.024 C 
ENDBRANCH  14  17
ENDBRANCH  12  13
ENDBRANCH  11  12
ENDBRANCH   6  11
BRANCH   7  27
HETATM   27  O3  UNL     1      30.360  48.351   6.929  1.00  0.00    -0.360 OA
ATOM     28  H3  UNL     1      30.637  47.776   7.633  1.00  0.00     0.217 HD
ENDBRANCH   7  27
BRANCH   9  29
HETATM   29  O4  UNL     1      27.344  51.703   5.382  1.00  0.00    -0.341 OA
BRANCH  29  30
HETATM   30  C21 UNL     1      27.982  52.856   5.850  1.00  0.00     0.293 C 
BRANCH  30  31
HETATM   31  C22 UNL     1      27.216  53.587   6.901  1.00  0.00     0.408 C 
HETATM   32  F1  UNL     1      26.992  52.857   8.038  1.00  0.00    -0.169 F 
HETATM   33  F2  UNL     1      25.971  53.953   6.406  1.00  0.00    -0.169 F 
HETATM   34  F3  UNL     1      27.868  54.753   7.297  1.00  0.00    -0.169 F 
ENDBRANCH  30  31
ENDBRANCH  29  30
ENDBRANCH   9  29
TORSDOF 8
ENDMDL
MODEL 5
REMARK VINA RESULT: -7.473695542      3.743      6.078
REMARK  8 active torsions:
REMARK  status: ('A' for Active; 'I' for Inactive)
REMARK    1  A    between atoms: C5_6  and  C6_7 
REMARK    2  A    between atoms: C6_7  and  N1_8 
REMARK    3  A    between atoms: N1_8  and  N2_9 
REMARK       I    between atoms: N2_9  and  C7_11 
REMARK    4  A    between atoms: C7_11  and  C8_13 
REMARK    5  A    between atoms: C18_23  and  O3_24 
REMARK    6  A    between atoms: C20_27  and  O4_28 
REMARK    7  A    between atoms: O4_28  and  C21_29 
REMARK    8  A    between atoms: C21_29  and  C22_30 
ROOT
HETATM    1  O1  UNL     1      27.979  44.796  10.195  1.00  0.00    -0.292 OA
HETATM    2  C1  UNL     1      29.009  44.245   9.733  1.00  0.00     0.163 C 
HETATM    3  C2  UNL     1      29.642  42.963  10.121  1.00  0.00     0.088 C 
HETATM    4  C3  UNL     1      31.057  43.138   9.710  1.00  0.00     0.048 C 
HETATM    5  C4  UNL     1      31.025  44.171   8.626  1.00  0.00    -0.026 A 
HETATM    6  C5  UNL     1      31.996  44.523   7.680  1.00  0.00     0.035 A 
HETATM    7  C18 UNL     1      31.693  45.539   6.787  1.00  0.00     0.081 A 
HETATM    8  C19 UNL     1      30.428  46.181   6.857  1.00  0.00     0.075 A 
HETATM    9  C20 UNL     1      29.486  45.832   7.782  1.00  0.00     0.086 A 
HETATM   10  C23 UNL     1      29.819  44.818   8.656  1.00  0.00     0.050 A 
ENDROOT
BRANCH   6  11
HETATM   11  C6  UNL     1      33.259  43.818   7.695  1.00  0.00     0.223 C 
BRANCH  11  12
HETATM   12  N1  UNL     1      34.353  44.198   7.574  1.00  0.00    -0.335 NA
BRANCH  12  13
HETATM   13  N2  UNL     1      35.570  44.624   7.443  1.00  0.00    -0.203 N 
HETATM   14  C7  UNL     1      35.920  46.001   7.408  1.00  0.00     0.255 C 
HETATM   15  O2  UNL     1      34.969  46.852   7.513  1.00  0.00    -0.270 OA
ATOM     16  H2  UNL     1      36.316  43.934   7.360  1.00  0.00     0.205 HD
BRANCH  14  17
HETATM   17  C8  UNL     1      37.327  46.423   7.256  1.00  0.00     0.044 C 
HETATM   18  C9  UNL     1      37.757  46.316   5.790  1.00  0.00     0.024 C 
HETATM   19  C10 UNL     1      39.224  46.627   5.708  1.00  0.00    -0.013 C 
HETATM   20  C11 UNL     1      40.019  45.623   6.528  1.00  0.00     0.009 C 
HETATM   21  C15 UNL     1      39.480  48.027   6.177  1.00  0.00     0.009 C 
HETATM   22  C12 UNL     1      39.633  45.789   7.981  1.00  0.00    -0.013 C 
HETATM   23  C13 UNL     1      39.854  47.198   8.452  1.00  0.00     0.009 C 
HETATM   24  C17 UNL     1      38.173  45.491   8.110  1.00  0.00     0.024 C 
HETATM   25  C14 UNL     1      39.040  48.145   7.625  1.00  0.00    -0.013 C 
HETATM   26  C16 UNL     1      37.566  47.851   7.682  1.00  0.00     0.024 C 
ENDBRANCH  14  17
ENDBRANCH  12  13
ENDBRANCH  11  12
ENDBRANCH   6  11
BRANCH   7  27
HETATM   27  O3  UNL     1      32.561  45.932   5.863  1.00  0.00    -0.360 OA
ATOM     28  H3  UNL     1      32.279  46.389   5.079  1.00  0.00     0.217 HD
ENDBRANCH   7  27
BRANCH   9  29
HETATM   29  O4  UNL     1      28.253  46.478   7.829  1.00  0.00    -0.341 OA
BRANCH  29  30
HETATM   30  C21 UNL     1      28.222  47.867   7.981  1.00  0.00     0.293 C 
BRANCH  30  31
HETATM   31  C22 UNL     1      27.068  48.525   7.303  1.00  0.00     0.408 C 
HETATM   32  F1  UNL     1      25.950  47.738   7.215  1.00  0.00    -0.169 F 
HETATM   33  F2  UNL     1      27.419  48.870   6.005  1.00  0.00    -0.169 F 
HETATM   34  F3  UNL     1      26.682  49.693   7.957  1.00  0.00    -0.169 F 
ENDBRANCH  30  31
ENDBRANCH  29  30
ENDBRANCH   9  29
TORSDOF 8
ENDMDL
