MODEL 1
REMARK VINA RESULT: -7.431480520      0.000      0.000
REMARK  9 active torsions:
REMARK  status: ('A' for Active; 'I' for Inactive)
REMARK    1  A    between atoms: C2_2  and  C3_3 
REMARK    2  A    between atoms: C3_3  and  C4_4 
REMARK    3  A    between atoms: C4_4  and  C5_5 
REMARK    4  A    between atoms: C6_6  and  C7_7 
REMARK    5  A    between atoms: C13_14  and  C14_15 
REMARK    6  A    between atoms: C13_14  and  C15_19 
REMARK    7  A    between atoms: C15_19  and  O2_20 
REMARK    8  A    between atoms: C20_28  and  C21_29 
REMARK    9  A    between atoms: C21_29  and  N2_30 
ROOT
HETATM    1  C7  UNL     1      28.175  46.855   7.953  1.00  0.00     0.020 A 
HETATM    2  C8  UNL     1      28.123  45.789   8.861  1.00  0.00     0.022 A 
HETATM    3  C9  UNL     1      29.290  45.102   9.125  1.00  0.00     0.023 A 
HETATM    4  C10 UNL     1      30.409  45.464   8.524  1.00  0.00     0.034 A 
HETATM    5  C11 UNL     1      30.543  46.515   7.604  1.00  0.00     0.088 A 
HETATM    6  C12 UNL     1      29.360  47.200   7.345  1.00  0.00     0.058 A 
HETATM    7  O1  UNL     1      31.678  46.861   7.008  1.00  0.00    -0.325 OA
HETATM    8  C13 UNL     1      33.049  46.713   7.412  1.00  0.00     0.209 C 
HETATM    9  C20 UNL     1      33.120  46.103   8.782  1.00  0.00     0.128 C 
HETATM   10  S1  UNL     1      31.980  44.656   8.852  1.00  0.00    -0.117 SA
ENDROOT
BRANCH   8  11
HETATM   11  C14 UNL     1      33.469  48.170   7.506  1.00  0.00     0.423 C 
HETATM   12  F1  UNL     1      32.642  48.720   8.512  1.00  0.00    -0.168 F 
HETATM   13  F2  UNL     1      34.728  48.397   7.936  1.00  0.00    -0.168 F 
HETATM   14  F3  UNL     1      33.120  48.896   6.380  1.00  0.00    -0.168 F 
ENDBRANCH   8  11
BRANCH   8  15
HETATM   15  C15 UNL     1      33.635  45.931   6.309  1.00  0.00     0.102 C 
HETATM   16  C16 UNL     1      34.837  46.663   5.675  1.00  0.00     0.060 C 
HETATM   17  C17 UNL     1      34.974  46.049   4.271  1.00  0.00     0.117 C 
HETATM   18  N1  UNL     1      35.454  44.719   4.471  1.00  0.00    -0.421 N 
HETATM   19  C18 UNL     1      35.391  44.219   5.800  1.00  0.00     0.117 C 
ATOM     20  H1  UNL     1      35.822  44.159   3.703  1.00  0.00     0.153 HD
HETATM   21  C19 UNL     1      34.045  44.540   6.481  1.00  0.00     0.060 C 
BRANCH  15  22
HETATM   22  O2  UNL     1      32.678  45.994   5.259  1.00  0.00    -0.386 OA
ATOM     23  H2  UNL     1      33.179  46.201   4.479  1.00  0.00     0.210 HD
ENDBRANCH  15  22
ENDBRANCH   8  15
BRANCH   9  24
HETATM   24  C21 UNL     1      34.389  45.702   9.333  1.00  0.00     0.290 C 
BRANCH  24  25
HETATM   25  N2  UNL     1      34.217  44.839  10.510  1.00  0.00     0.081 N 
HETATM   26  C22 UNL     1      34.900  45.483  11.658  1.00  0.00     0.309 C 
HETATM   27  C23 UNL     1      34.892  43.555  10.376  1.00  0.00     0.309 C 
ENDBRANCH  24  25
ENDBRANCH   9  24
BRANCH   1  28
HETATM   28  C6  UNL     1      26.970  47.588   7.686  1.00  0.00    -0.067 C 
HETATM   29  C5  UNL     1      25.965  48.204   7.434  1.00  0.00    -0.101 C 
BRANCH  29  30
HETATM   30  C4  UNL     1      24.740  48.975   7.094  1.00  0.00     0.094 C 
BRANCH  30  31
HETATM   31  C3  UNL     1      23.665  47.968   6.649  1.00  0.00     0.012 C 
BRANCH  31  32
HETATM   32  C2  UNL     1      22.366  48.168   7.362  1.00  0.00    -0.004 C 
HETATM   33  C1  UNL     1      21.973  49.632   7.231  1.00  0.00     0.005 C 
ENDBRANCH  31  32
ENDBRANCH  30  31
ENDBRANCH  29  30
ENDBRANCH   1  28
TORSDOF 9
ENDMDL
MODEL 2
REMARK VINA RESULT: -7.078721216      0.754      1.321
REMARK  9 active torsions:
REMARK  status: ('A' for Active; 'I' for Inactive)
REMARK    1  A    between atoms: C2_2  and  C3_3 
REMARK    2  A    between atoms: C3_3  and  C4_4 
REMARK    3  A    between atoms: C4_4  and  C5_5 
REMARK    4  A    between atoms: C6_6  and  C7_7 
REMARK    5  A    between atoms: C13_14  and  C14_15 
REMARK    6  A    between atoms: C13_14  and  C15_19 
REMARK    7  A    between atoms: C15_19  and  O2_20 
REMARK    8  A    between atoms: C20_28  and  C21_29 
REMARK    9  A    between atoms: C21_29  and  N2_30 
ROOT
HETATM    1  C7  UNL     1      28.157  46.754   7.978  1.00  0.00     0.020 A 
HETATM    2  C8  UNL     1      28.130  45.694   8.894  1.00  0.00     0.022 A 
HETATM    3  C9  UNL     1      29.312  45.034   9.158  1.00  0.00     0.023 A 
HETATM    4  C10 UNL     1      30.421  45.413   8.550  1.00  0.00     0.034 A 
HETATM    5  C11 UNL     1      30.530  46.460   7.622  1.00  0.00     0.088 A 
HETATM    6  C12 UNL     1      29.332  47.119   7.363  1.00  0.00     0.058 A 
HETATM    7  O1  UNL     1      31.656  46.825   7.018  1.00  0.00    -0.325 OA
HETATM    8  C13 UNL     1      33.031  46.708   7.419  1.00  0.00     0.209 C 
HETATM    9  C20 UNL     1      33.120  46.109   8.793  1.00  0.00     0.128 C 
HETATM   10  S1  UNL     1      32.009  44.640   8.878  1.00  0.00    -0.117 SA
ENDROOT
BRANCH   8  11
HETATM   11  C14 UNL     1      33.422  48.174   7.500  1.00  0.00     0.423 C 
HETATM   12  F1  UNL     1      32.581  48.716   8.498  1.00  0.00    -0.168 F 
HETATM   13  F2  UNL     1      34.675  48.429   7.932  1.00  0.00    -0.168 F 
HETATM   14  F3  UNL     1      33.062  48.882   6.366  1.00  0.00    -0.168 F 
ENDBRANCH   8  11
BRANCH   8  15
HETATM   15  C15 UNL     1      33.628  45.929   6.319  1.00  0.00     0.102 C 
HETATM   16  C16 UNL     1      34.831  46.669   5.693  1.00  0.00     0.060 C 
HETATM   17  C17 UNL     1      34.980  46.056   4.289  1.00  0.00     0.117 C 
HETATM   18  N1  UNL     1      35.465  44.729   4.492  1.00  0.00    -0.421 N 
HETATM   19  C18 UNL     1      35.396  44.227   5.820  1.00  0.00     0.117 C 
ATOM     20  H1  UNL     1      35.842  44.171   3.726  1.00  0.00     0.153 HD
HETATM   21  C19 UNL     1      34.044  44.541   6.492  1.00  0.00     0.060 C 
BRANCH  15  22
HETATM   22  O2  UNL     1      32.678  45.989   5.262  1.00  0.00    -0.386 OA
ATOM     23  H2  UNL     1      33.115  46.458   4.562  1.00  0.00     0.210 HD
ENDBRANCH  15  22
ENDBRANCH   8  15
BRANCH   9  24
HETATM   24  C21 UNL     1      34.399  45.738   9.341  1.00  0.00     0.290 C 
BRANCH  24  25
HETATM   25  N2  UNL     1      34.248  44.871  10.518  1.00  0.00     0.081 N 
HETATM   26  C22 UNL     1      34.928  45.526  11.663  1.00  0.00     0.309 C 
HETATM   27  C23 UNL     1      34.945  43.599  10.379  1.00  0.00     0.309 C 
ENDBRANCH  24  25
ENDBRANCH   9  24
BRANCH   1  28
HETATM   28  C6  UNL     1      26.936  47.461   7.710  1.00  0.00    -0.067 C 
HETATM   29  C5  UNL     1      25.898  48.039   7.508  1.00  0.00    -0.101 C 
BRANCH  29  30
HETATM   30  C4  UNL     1      24.601  48.726   7.271  1.00  0.00     0.094 C 
BRANCH  30  31
HETATM   31  C3  UNL     1      24.808  49.729   6.123  1.00  0.00     0.012 C 
BRANCH  31  32
HETATM   32  C2  UNL     1      25.955  50.654   6.373  1.00  0.00    -0.004 C 
HETATM   33  C1  UNL     1      26.845  50.651   5.138  1.00  0.00     0.005 C 
ENDBRANCH  31  32
ENDBRANCH  30  31
ENDBRANCH  29  30
ENDBRANCH   1  28
TORSDOF 9
ENDMDL
MODEL 3
REMARK VINA RESULT: -7.042153500      2.065      2.808
REMARK  9 active torsions:
REMARK  status: ('A' for Active; 'I' for Inactive)
REMARK    1  A    between atoms: C2_2  and  C3_3 
REMARK    2  A    between atoms: C3_3  and  C4_4 
REMARK    3  A    between atoms: C4_4  and  C5_5 
REMARK    4  A    between atoms: C6_6  and  C7_7 
REMARK    5  A    between atoms: C13_14  and  C14_15 
REMARK    6  A    between atoms: C13_14  and  C15_19 
REMARK    7  A    between atoms: C15_19  and  O2_20 
REMARK    8  A    between atoms: C20_28  and  C21_29 
REMARK    9  A    between atoms: C21_29  and  N2_30 
ROOT
HETATM    1  C7  UNL     1      29.872  45.794   7.980  1.00  0.00     0.020 A 
HETATM    2  C8  UNL     1      29.423  44.492   8.239  1.00  0.00     0.022 A 
HETATM    3  C9  UNL     1      30.367  43.504   8.424  1.00  0.00     0.023 A 
HETATM    4  C10 UNL     1      31.651  43.807   8.354  1.00  0.00     0.034 A 
HETATM    5  C11 UNL     1      32.179  45.081   8.098  1.00  0.00     0.088 A 
HETATM    6  C12 UNL     1      31.218  46.070   7.914  1.00  0.00     0.058 A 
HETATM    7  O1  UNL     1      33.475  45.366   8.029  1.00  0.00    -0.325 OA
HETATM    8  C13 UNL     1      34.619  44.743   8.636  1.00  0.00     0.209 C 
HETATM    9  C20 UNL     1      34.182  43.619   9.530  1.00  0.00     0.128 C 
HETATM   10  S1  UNL     1      32.942  42.590   8.634  1.00  0.00    -0.117 SA
ENDROOT
BRANCH   8  11
HETATM   11  C14 UNL     1      35.129  45.883   9.501  1.00  0.00     0.423 C 
HETATM   12  F1  UNL     1      34.283  45.883  10.634  1.00  0.00    -0.168 F 
HETATM   13  F2  UNL     1      36.373  45.735  10.002  1.00  0.00    -0.168 F 
HETATM   14  F3  UNL     1      34.895  47.125   8.934  1.00  0.00    -0.168 F 
ENDBRANCH   8  11
BRANCH   8  15
HETATM   15  C15 UNL     1      35.449  44.379   7.474  1.00  0.00     0.102 C 
HETATM   16  C16 UNL     1      35.293  45.401   6.327  1.00  0.00     0.060 C 
HETATM   17  C17 UNL     1      35.731  44.641   5.062  1.00  0.00     0.117 C 
HETATM   18  N1  UNL     1      37.144  44.472   5.178  1.00  0.00    -0.421 N 
HETATM   19  C18 UNL     1      37.709  44.735   6.455  1.00  0.00     0.117 C 
ATOM     20  H1  UNL     1      37.717  44.180   4.386  1.00  0.00     0.153 HD
HETATM   21  C19 UNL     1      36.879  44.116   7.598  1.00  0.00     0.060 C 
BRANCH  15  22
HETATM   22  O2  UNL     1      34.824  43.230   6.916  1.00  0.00    -0.386 OA
ATOM     23  H2  UNL     1      35.203  42.492   7.379  1.00  0.00     0.210 HD
ENDBRANCH  15  22
ENDBRANCH   8  15
BRANCH   9  24
HETATM   24  C21 UNL     1      35.158  42.738  10.117  1.00  0.00     0.290 C 
BRANCH  24  25
HETATM   25  N2  UNL     1      35.042  41.374   9.581  1.00  0.00     0.081 N 
HETATM   26  C22 UNL     1      34.634  40.477  10.689  1.00  0.00     0.309 C 
HETATM   27  C23 UNL     1      36.319  40.827   9.140  1.00  0.00     0.309 C 
ENDBRANCH  24  25
ENDBRANCH   9  24
BRANCH   1  28
HETATM   28  C6  UNL     1      28.897  46.834   7.806  1.00  0.00    -0.067 C 
HETATM   29  C5  UNL     1      28.071  47.694   7.634  1.00  0.00    -0.101 C 
BRANCH  29  30
HETATM   30  C4  UNL     1      27.053  48.750   7.389  1.00  0.00     0.094 C 
BRANCH  30  31
HETATM   31  C3  UNL     1      25.666  48.095   7.506  1.00  0.00     0.012 C 
BRANCH  31  32
HETATM   32  C2  UNL     1      24.598  48.897   6.834  1.00  0.00    -0.004 C 
HETATM   33  C1  UNL     1      23.331  48.055   6.787  1.00  0.00     0.005 C 
ENDBRANCH  31  32
ENDBRANCH  30  31
ENDBRANCH  29  30
ENDBRANCH   1  28
TORSDOF 9
ENDMDL
MODEL 4
REMARK VINA RESULT: -6.935727672      1.360      1.823
REMARK  9 active torsions:
REMARK  status: ('A' for Active; 'I' for Inactive)
REMARK    1  A    between atoms: C2_2  and  C3_3 
REMARK    2  A    between atoms: C3_3  and  C4_4 
REMARK    3  A    between atoms: C4_4  and  C5_5 
REMARK    4  A    between atoms: C6_6  and  C7_7 
REMARK    5  A    between atoms: C13_14  and  C14_15 
REMARK    6  A    between atoms: C13_14  and  C15_19 
REMARK    7  A    between atoms: C15_19  and  O2_20 
REMARK    8  A    between atoms: C20_28  and  C21_29 
REMARK    9  A    between atoms: C21_29  and  N2_30 
ROOT
HETATM    1  C7  UNL     1      29.520  46.534   7.598  1.00  0.00     0.020 A 
HETATM    2  C8  UNL     1      29.319  45.199   7.973  1.00  0.00     0.022 A 
HETATM    3  C9  UNL     1      30.413  44.358   7.997  1.00  0.00     0.023 A 
HETATM    4  C10 UNL     1      31.603  44.828   7.670  1.00  0.00     0.034 A 
HETATM    5  C11 UNL     1      31.886  46.146   7.282  1.00  0.00     0.088 A 
HETATM    6  C12 UNL     1      30.776  46.985   7.262  1.00  0.00     0.058 A 
HETATM    7  O1  UNL     1      33.090  46.599   6.954  1.00  0.00    -0.325 OA
HETATM    8  C13 UNL     1      34.406  46.170   7.342  1.00  0.00     0.209 C 
HETATM    9  C20 UNL     1      34.312  45.047   8.334  1.00  0.00     0.128 C 
HETATM   10  S1  UNL     1      33.085  43.813   7.724  1.00  0.00    -0.117 SA
ENDROOT
BRANCH   8  11
HETATM   11  C14 UNL     1      34.903  47.414   8.060  1.00  0.00     0.423 C 
HETATM   12  F1  UNL     1      34.215  47.416   9.295  1.00  0.00    -0.168 F 
HETATM   13  F2  UNL     1      36.210  47.421   8.395  1.00  0.00    -0.168 F 
HETATM   14  F3  UNL     1      34.470  48.583   7.457  1.00  0.00    -0.168 F 
ENDBRANCH   8  11
BRANCH   8  15
HETATM   15  C15 UNL     1      35.044  45.859   6.050  1.00  0.00     0.102 C 
HETATM   16  C16 UNL     1      34.362  46.613   4.888  1.00  0.00     0.060 C 
HETATM   17  C17 UNL     1      34.727  45.806   3.629  1.00  0.00     0.117 C 
HETATM   18  N1  UNL     1      36.120  46.034   3.411  1.00  0.00    -0.421 N 
HETATM   19  C18 UNL     1      36.838  46.631   4.482  1.00  0.00     0.117 C 
ATOM     20  H1  UNL     1      36.574  45.782   2.533  1.00  0.00     0.153 HD
HETATM   21  C19 UNL     1      36.482  46.002   5.844  1.00  0.00     0.060 C 
BRANCH  15  22
HETATM   22  O2  UNL     1      34.679  44.514   5.769  1.00  0.00    -0.386 OA
ATOM     23  H2  UNL     1      35.135  44.295   4.966  1.00  0.00     0.210 HD
ENDBRANCH  15  22
ENDBRANCH   8  15
BRANCH   9  24
HETATM   24  C21 UNL     1      35.497  44.339   8.742  1.00  0.00     0.290 C 
BRANCH  24  25
HETATM   25  N2  UNL     1      35.412  43.911  10.146  1.00  0.00     0.081 N 
HETATM   26  C22 UNL     1      35.062  42.470  10.168  1.00  0.00     0.309 C 
HETATM   27  C23 UNL     1      34.318  44.548  10.867  1.00  0.00     0.309 C 
ENDBRANCH  24  25
ENDBRANCH   9  24
BRANCH   1  28
HETATM   28  C6  UNL     1      28.392  47.422   7.589  1.00  0.00    -0.067 C 
HETATM   29  C5  UNL     1      27.427  48.144   7.574  1.00  0.00    -0.101 C 
BRANCH  29  30
HETATM   30  C4  UNL     1      26.222  49.014   7.534  1.00  0.00     0.094 C 
BRANCH  30  31
HETATM   31  C3  UNL     1      25.009  48.116   7.237  1.00  0.00     0.012 C 
BRANCH  31  32
HETATM   32  C2  UNL     1      23.800  48.901   6.843  1.00  0.00    -0.004 C 
HETATM   33  C1  UNL     1      22.566  48.096   7.223  1.00  0.00     0.005 C 
ENDBRANCH  31  32
ENDBRANCH  30  31
ENDBRANCH  29  30
ENDBRANCH   1  28
TORSDOF 9
ENDMDL
MODEL 5
REMARK VINA RESULT: -6.907301564      2.707      4.398
REMARK  9 active torsions:
REMARK  status: ('A' for Active; 'I' for Inactive)
REMARK    1  A    between atoms: C2_2  and  C3_3 
REMARK    2  A    between atoms: C3_3  and  C4_4 
REMARK    3  A    between atoms: C4_4  and  C5_5 
REMARK    4  A    between atoms: C6_6  and  C7_7 
REMARK    5  A    between atoms: C13_14  and  C14_15 
REMARK    6  A    between atoms: C13_14  and  C15_19 
REMARK    7  A    between atoms: C15_19  and  O2_20 
REMARK    8  A    between atoms: C20_28  and  C21_29 
REMARK    9  A    between atoms: C21_29  and  N2_30 
ROOT
HETATM    1  C7  UNL     1      29.950  47.026   7.224  1.00  0.00     0.020 A 
HETATM    2  C8  UNL     1      30.605  47.647   6.151  1.00  0.00     0.022 A 
HETATM    3  C9  UNL     1      31.926  47.324   5.922  1.00  0.00     0.023 A 
HETATM    4  C10 UNL     1      32.529  46.450   6.707  1.00  0.00     0.034 A 
HETATM    5  C11 UNL     1      31.946  45.789   7.798  1.00  0.00     0.088 A 
HETATM    6  C12 UNL     1      30.613  46.122   8.020  1.00  0.00     0.058 A 
HETATM    7  O1  UNL     1      32.571  44.914   8.578  1.00  0.00    -0.325 OA
HETATM    8  C13 UNL     1      33.681  44.038   8.325  1.00  0.00     0.209 C 
HETATM    9  C20 UNL     1      34.114  44.153   6.892  1.00  0.00     0.128 C 
HETATM   10  S1  UNL     1      34.231  45.937   6.444  1.00  0.00    -0.117 SA
ENDROOT
BRANCH   8  11
HETATM   11  C14 UNL     1      33.019  42.686   8.527  1.00  0.00     0.423 C 
HETATM   12  F1  UNL     1      32.303  42.452   7.331  1.00  0.00    -0.168 F 
HETATM   13  F2  UNL     1      33.851  41.629   8.640  1.00  0.00    -0.168 F 
HETATM   14  F3  UNL     1      32.022  42.722   9.488  1.00  0.00    -0.168 F 
ENDBRANCH   8  11
BRANCH   8  15
HETATM   15  C15 UNL     1      34.662  44.447   9.346  1.00  0.00     0.102 C 
HETATM   16  C16 UNL     1      35.315  45.801   8.990  1.00  0.00     0.060 C 
HETATM   17  C17 UNL     1      36.636  45.819   9.780  1.00  0.00     0.117 C 
HETATM   18  N1  UNL     1      36.268  45.970  11.151  1.00  0.00    -0.421 N 
HETATM   19  C18 UNL     1      34.897  45.764  11.463  1.00  0.00     0.117 C 
ATOM     20  H1  UNL     1      36.951  46.213  11.868  1.00  0.00     0.153 HD
HETATM   21  C19 UNL     1      34.320  44.517  10.763  1.00  0.00     0.060 C 
BRANCH  15  22
HETATM   22  O2  UNL     1      35.758  43.554   9.188  1.00  0.00    -0.386 OA
ATOM     23  H2  UNL     1      36.348  43.989   8.585  1.00  0.00     0.210 HD
ENDBRANCH  15  22
ENDBRANCH   8  15
BRANCH   9  24
HETATM   24  C21 UNL     1      35.315  43.497   6.442  1.00  0.00     0.290 C 
BRANCH  24  25
HETATM   25  N2  UNL     1      36.176  44.413   5.681  1.00  0.00     0.081 N 
HETATM   26  C22 UNL     1      36.313  43.880   4.304  1.00  0.00     0.309 C 
HETATM   27  C23 UNL     1      37.544  44.452   6.180  1.00  0.00     0.309 C 
ENDBRANCH  24  25
ENDBRANCH   9  24
BRANCH   1  28
HETATM   28  C6  UNL     1      28.569  47.341   7.459  1.00  0.00    -0.067 C 
HETATM   29  C5  UNL     1      27.403  47.589   7.632  1.00  0.00    -0.101 C 
BRANCH  29  30
HETATM   30  C4  UNL     1      25.957  47.891   7.814  1.00  0.00     0.094 C 
BRANCH  30  31
HETATM   31  C3  UNL     1      25.633  49.137   6.973  1.00  0.00     0.012 C 
BRANCH  31  32
HETATM   32  C2  UNL     1      24.163  49.366   6.835  1.00  0.00    -0.004 C 
HETATM   33  C1  UNL     1      23.481  48.011   6.712  1.00  0.00     0.005 C 
ENDBRANCH  31  32
ENDBRANCH  30  31
ENDBRANCH  29  30
ENDBRANCH   1  28
TORSDOF 9
ENDMDL
