MODEL 1
REMARK VINA RESULT: -8.050028758      0.000      0.000
REMARK  4 active torsions:
REMARK  status: ('A' for Active; 'I' for Inactive)
REMARK    1  A    between atoms: C2_2  and  N1_3 
REMARK       I    between atoms: N1_3  and  C3_5 
REMARK    2  A    between atoms: C3_5  and  C4_7 
REMARK    3  A    between atoms: C22_31  and  N3_32 
REMARK    4  A    between atoms: C24_34  and  O5_35 
ROOT
HETATM    1  C4  UNL     1      27.870 -28.293  -5.583  1.00  0.00     0.034 A 
HETATM    2  C5  UNL     1      26.519 -28.178  -5.824  1.00  0.00     0.020 A 
HETATM    3  C6  UNL     1      25.708 -29.264  -5.601  1.00  0.00     0.040 A 
HETATM    4  C7  UNL     1      26.154 -30.494  -5.141  1.00  0.00     0.102 A 
HETATM    5  C8  UNL     1      27.517 -30.622  -4.896  1.00  0.00     0.103 A 
HETATM    6  C9  UNL     1      28.322 -29.524  -5.122  1.00  0.00     0.056 A 
HETATM    7  O2  UNL     1      28.060 -31.810  -4.440  1.00  0.00    -0.348 OA
HETATM    8  C10 UNL     1      28.104 -33.066  -5.068  1.00  0.00     0.178 C 
HETATM    9  C11 UNL     1      27.665 -33.118  -6.484  1.00  0.00     0.053 C 
HETATM   10  C12 UNL     1      28.474 -34.231  -7.173  1.00  0.00     0.170 C 
HETATM   11  O3  UNL     1      27.923 -35.425  -6.658  1.00  0.00    -0.387 OA
HETATM   12  C13 UNL     1      28.708 -36.530  -6.929  1.00  0.00     0.194 C 
HETATM   13  C14 UNL     1      28.513 -37.036  -8.316  1.00  0.00    -0.003 C 
HETATM   14  C15 UNL     1      27.328 -37.424  -8.749  1.00  0.00    -0.003 C 
HETATM   15  C16 UNL     1      26.129 -37.378  -7.885  1.00  0.00     0.194 C 
HETATM   16  O4  UNL     1      25.507 -36.153  -8.102  1.00  0.00    -0.386 OA
HETATM   17  C17 UNL     1      24.328 -36.265  -8.801  1.00  0.00     0.195 C 
HETATM   18  C18 UNL     1      23.721 -34.888  -8.960  1.00  0.00     0.258 C 
HETATM   19  N2  UNL     1      22.790 -34.658  -7.847  1.00  0.00    -0.068 N 
ATOM     20  H21 UNL     1      22.224 -35.480  -7.635  1.00  0.00     0.277 HD
ATOM     21  H22 UNL     1      22.030 -34.025  -8.098  1.00  0.00     0.277 HD
HETATM   22  C19 UNL     1      23.539 -34.195  -6.705  1.00  0.00     0.289 C 
HETATM   23  C20 UNL     1      22.603 -33.802  -5.619  1.00  0.00     0.039 A 
HETATM   24  C21 UNL     1      21.235 -33.629  -5.608  1.00  0.00     0.057 A 
HETATM   25  C22 UNL     1      20.823 -33.258  -4.350  1.00  0.00     0.048 A 
HETATM   26  C28 UNL     1      21.998 -33.214  -3.593  1.00  0.00     0.120 A 
HETATM   27  N4  UNL     1      23.047 -33.542  -4.369  1.00  0.00    -0.354 N 
HETATM   28  C29 UNL     1      24.448 -33.626  -4.003  1.00  0.00     0.155 C 
HETATM   29  C30 UNL     1      25.041 -32.242  -3.739  1.00  0.00     0.196 C 
HETATM   30  O6  UNL     1      25.270 -31.551  -4.933  1.00  0.00    -0.347 OA
ENDROOT
BRANCH  25  31
HETATM   31  N3  UNL     1      19.510 -32.980  -3.898  1.00  0.00    -0.372 N 
HETATM   32  C23 UNL     1      18.387 -32.374  -4.602  1.00  0.00     0.161 C 
HETATM   33  C24 UNL     1      17.388 -32.398  -3.474  1.00  0.00     0.077 C 
HETATM   34  C25 UNL     1      17.597 -33.795  -2.907  1.00  0.00     0.065 C 
HETATM   35  C27 UNL     1      18.260 -31.935  -2.303  1.00  0.00     0.065 C 
HETATM   36  C26 UNL     1      18.997 -33.249  -2.601  1.00  0.00     0.090 C 
BRANCH  33  37
HETATM   37  O5  UNL     1      16.174 -31.909  -3.616  1.00  0.00    -0.388 OA
ATOM     38  H5  UNL     1      15.419 -32.324  -3.214  1.00  0.00     0.210 HD
ENDBRANCH  33  37
ENDBRANCH  25  31
BRANCH   1  39
HETATM   39  C3  UNL     1      28.778 -27.174  -5.796  1.00  0.00     0.251 C 
HETATM   40  N1  UNL     1      30.049 -27.035  -5.182  1.00  0.00    -0.357 N 
ATOM     41  H1  UNL     1      30.376 -27.756  -4.540  1.00  0.00     0.162 HD
HETATM   42  O1  UNL     1      28.406 -26.266  -6.584  1.00  0.00    -0.268 OA
BRANCH  40  43
HETATM   43  C2  UNL     1      30.897 -25.879  -5.452  1.00  0.00     0.118 C 
HETATM   44  C1  UNL     1      32.320 -26.351  -5.603  1.00  0.00     0.026 C 
ENDBRANCH  40  43
ENDBRANCH   1  39
TORSDOF 4
ENDMDL
MODEL 2
REMARK VINA RESULT: -7.651976684      4.813      9.052
REMARK  4 active torsions:
REMARK  status: ('A' for Active; 'I' for Inactive)
REMARK    1  A    between atoms: C2_2  and  N1_3 
REMARK       I    between atoms: N1_3  and  C3_5 
REMARK    2  A    between atoms: C3_5  and  C4_7 
REMARK    3  A    between atoms: C22_31  and  N3_32 
REMARK    4  A    between atoms: C24_34  and  O5_35 
ROOT
HETATM    1  C4  UNL     1      20.663 -39.082 -11.922  1.00  0.00     0.034 A 
HETATM    2  C5  UNL     1      19.895 -39.011 -10.781  1.00  0.00     0.020 A 
HETATM    3  C6  UNL     1      20.194 -38.059  -9.836  1.00  0.00     0.040 A 
HETATM    4  C7  UNL     1      21.230 -37.145  -9.946  1.00  0.00     0.102 A 
HETATM    5  C8  UNL     1      22.012 -37.209 -11.093  1.00  0.00     0.103 A 
HETATM    6  C9  UNL     1      21.702 -38.168 -12.036  1.00  0.00     0.056 A 
HETATM    7  O2  UNL     1      23.073 -36.342 -11.294  1.00  0.00    -0.348 OA
HETATM    8  C10 UNL     1      24.258 -36.201 -10.553  1.00  0.00     0.178 C 
HETATM    9  C11 UNL     1      24.512 -37.220  -9.504  1.00  0.00     0.053 C 
HETATM   10  C12 UNL     1      26.037 -37.389  -9.392  1.00  0.00     0.170 C 
HETATM   11  O3  UNL     1      26.469 -36.206  -8.753  1.00  0.00    -0.387 OA
HETATM   12  C13 UNL     1      27.839 -36.035  -8.827  1.00  0.00     0.194 C 
HETATM   13  C14 UNL     1      28.566 -36.848  -7.814  1.00  0.00    -0.003 C 
HETATM   14  C15 UNL     1      28.337 -36.708  -6.521  1.00  0.00    -0.003 C 
HETATM   15  C16 UNL     1      27.347 -35.737  -6.006  1.00  0.00     0.194 C 
HETATM   16  O4  UNL     1      26.136 -36.409  -5.872  1.00  0.00    -0.386 OA
HETATM   17  C17 UNL     1      25.787 -36.632  -4.561  1.00  0.00     0.195 C 
HETATM   18  C18 UNL     1      24.451 -37.342  -4.524  1.00  0.00     0.258 C 
HETATM   19  N2  UNL     1      23.391 -36.331  -4.410  1.00  0.00    -0.068 N 
ATOM     20  H21 UNL     1      23.630 -35.587  -3.754  1.00  0.00     0.277 HD
ATOM     21  H22 UNL     1      22.565 -36.684  -3.927  1.00  0.00     0.277 HD
HETATM   22  C19 UNL     1      23.087 -35.828  -5.727  1.00  0.00     0.289 C 
HETATM   23  C20 UNL     1      21.909 -34.924  -5.657  1.00  0.00     0.039 A 
HETATM   24  C21 UNL     1      21.005 -34.674  -4.646  1.00  0.00     0.057 A 
HETATM   25  C22 UNL     1      20.083 -33.745  -5.066  1.00  0.00     0.048 A 
HETATM   26  C28 UNL     1      20.462 -33.438  -6.376  1.00  0.00     0.120 A 
HETATM   27  N4  UNL     1      21.554 -34.152  -6.709  1.00  0.00    -0.354 N 
HETATM   28  C29 UNL     1      22.284 -34.150  -7.961  1.00  0.00     0.155 C 
HETATM   29  C30 UNL     1      21.478 -34.810  -9.080  1.00  0.00     0.196 C 
HETATM   30  O6  UNL     1      21.470 -36.202  -8.948  1.00  0.00    -0.347 OA
ENDROOT
BRANCH  25  31
HETATM   31  N3  UNL     1      18.987 -33.205  -4.349  1.00  0.00    -0.372 N 
HETATM   32  C23 UNL     1      17.923 -32.316  -4.796  1.00  0.00     0.161 C 
HETATM   33  C24 UNL     1      17.189 -32.183  -3.487  1.00  0.00     0.077 C 
HETATM   34  C25 UNL     1      17.170 -33.625  -2.997  1.00  0.00     0.065 C 
HETATM   35  C27 UNL     1      18.358 -32.006  -2.514  1.00  0.00     0.065 C 
HETATM   36  C26 UNL     1      18.692 -33.431  -2.978  1.00  0.00     0.090 C 
BRANCH  33  37
HETATM   37  O5  UNL     1      16.120 -31.424  -3.368  1.00  0.00    -0.388 OA
ATOM     38  H5  UNL     1      15.270 -31.789  -3.153  1.00  0.00     0.210 HD
ENDBRANCH  33  37
ENDBRANCH  25  31
BRANCH   1  39
HETATM   39  C3  UNL     1      20.390 -40.068 -12.961  1.00  0.00     0.251 C 
HETATM   40  N1  UNL     1      19.825 -41.348 -12.732  1.00  0.00    -0.357 N 
ATOM     41  H1  UNL     1      19.583 -41.626 -11.781  1.00  0.00     0.162 HD
HETATM   42  O1  UNL     1      20.676 -39.757 -14.146  1.00  0.00    -0.268 OA
BRANCH  40  43
HETATM   43  C2  UNL     1      19.585 -42.276 -13.832  1.00  0.00     0.118 C 
HETATM   44  C1  UNL     1      19.602 -43.681 -13.289  1.00  0.00     0.026 C 
ENDBRANCH  40  43
ENDBRANCH   1  39
TORSDOF 4
ENDMDL
MODEL 3
REMARK VINA RESULT: -7.609425678      5.439      9.984
REMARK  4 active torsions:
REMARK  status: ('A' for Active; 'I' for Inactive)
REMARK    1  A    between atoms: C2_2  and  N1_3 
REMARK       I    between atoms: N1_3  and  C3_5 
REMARK    2  A    between atoms: C3_5  and  C4_7 
REMARK    3  A    between atoms: C22_31  and  N3_32 
REMARK    4  A    between atoms: C24_34  and  O5_35 
ROOT
HETATM    1  C4  UNL     1      19.581 -34.679  -6.087  1.00  0.00     0.034 A 
HETATM    2  C5  UNL     1      20.490 -35.279  -5.244  1.00  0.00     0.020 A 
HETATM    3  C6  UNL     1      21.658 -35.777  -5.770  1.00  0.00     0.040 A 
HETATM    4  C7  UNL     1      21.999 -35.721  -7.112  1.00  0.00     0.102 A 
HETATM    5  C8  UNL     1      21.087 -35.119  -7.973  1.00  0.00     0.103 A 
HETATM    6  C9  UNL     1      19.919 -34.621  -7.433  1.00  0.00     0.056 A 
HETATM    7  O2  UNL     1      21.334 -35.018  -9.331  1.00  0.00    -0.348 OA
HETATM    8  C10 UNL     1      21.487 -36.038 -10.285  1.00  0.00     0.178 C 
HETATM    9  C11 UNL     1      21.182 -37.419  -9.837  1.00  0.00     0.053 C 
HETATM   10  C12 UNL     1      20.646 -38.188 -11.058  1.00  0.00     0.170 C 
HETATM   11  O3  UNL     1      21.788 -38.393 -11.862  1.00  0.00    -0.387 OA
HETATM   12  C13 UNL     1      21.466 -38.806 -13.142  1.00  0.00     0.194 C 
HETATM   13  C14 UNL     1      21.158 -40.261 -13.205  1.00  0.00    -0.003 C 
HETATM   14  C15 UNL     1      22.039 -41.171 -12.833  1.00  0.00    -0.003 C 
HETATM   15  C16 UNL     1      23.380 -40.798 -12.331  1.00  0.00     0.194 C 
HETATM   16  O4  UNL     1      23.295 -40.704 -10.946  1.00  0.00    -0.386 OA
HETATM   17  C17 UNL     1      23.939 -41.731 -10.297  1.00  0.00     0.195 C 
HETATM   18  C18 UNL     1      23.810 -41.523  -8.804  1.00  0.00     0.258 C 
HETATM   19  N2  UNL     1      24.986 -40.777  -8.335  1.00  0.00    -0.068 N 
ATOM     20  H21 UNL     1      25.851 -41.101  -8.766  1.00  0.00     0.277 HD
ATOM     21  H22 UNL     1      25.222 -40.990  -7.366  1.00  0.00     0.277 HD
HETATM   22  C19 UNL     1      24.756 -39.370  -8.550  1.00  0.00     0.289 C 
HETATM   23  C20 UNL     1      25.860 -38.584  -7.938  1.00  0.00     0.039 A 
HETATM   24  C21 UNL     1      26.879 -38.949  -7.084  1.00  0.00     0.057 A 
HETATM   25  C22 UNL     1      27.659 -37.855  -6.795  1.00  0.00     0.048 A 
HETATM   26  C28 UNL     1      27.072 -36.806  -7.509  1.00  0.00     0.120 A 
HETATM   27  N4  UNL     1      26.001 -37.262  -8.184  1.00  0.00    -0.354 N 
HETATM   28  C29 UNL     1      25.100 -36.527  -9.049  1.00  0.00     0.155 C 
HETATM   29  C30 UNL     1      24.221 -35.563  -8.252  1.00  0.00     0.196 C 
HETATM   30  O6  UNL     1      23.206 -36.244  -7.573  1.00  0.00    -0.347 OA
ENDROOT
BRANCH  25  31
HETATM   31  N3  UNL     1      28.804 -37.782  -5.965  1.00  0.00    -0.372 N 
HETATM   32  C23 UNL     1      29.183 -38.601  -4.821  1.00  0.00     0.161 C 
HETATM   33  C24 UNL     1      30.474 -37.903  -4.475  1.00  0.00     0.077 C 
HETATM   34  C25 UNL     1      31.104 -37.724  -5.850  1.00  0.00     0.065 C 
HETATM   35  C27 UNL     1      30.059 -36.436  -4.619  1.00  0.00     0.065 C 
HETATM   36  C26 UNL     1      29.866 -36.848  -6.086  1.00  0.00     0.090 C 
BRANCH  33  37
HETATM   37  O5  UNL     1      31.207 -38.276  -3.448  1.00  0.00    -0.388 OA
ATOM     38  H5  UNL     1      30.867 -38.854  -2.776  1.00  0.00     0.210 HD
ENDBRANCH  33  37
ENDBRANCH  25  31
BRANCH   1  39
HETATM   39  C3  UNL     1      18.329 -34.128  -5.585  1.00  0.00     0.251 C 
HETATM   40  N1  UNL     1      18.218 -32.940  -4.819  1.00  0.00    -0.357 N 
ATOM     41  H1  UNL     1      19.059 -32.413  -4.587  1.00  0.00     0.162 HD
HETATM   42  O1  UNL     1      17.270 -34.752  -5.854  1.00  0.00    -0.268 OA
BRANCH  40  43
HETATM   43  C2  UNL     1      16.921 -32.457  -4.356  1.00  0.00     0.118 C 
HETATM   44  C1  UNL     1      17.146 -31.314  -3.401  1.00  0.00     0.026 C 
ENDBRANCH  40  43
ENDBRANCH   1  39
TORSDOF 4
ENDMDL
MODEL 4
REMARK VINA RESULT: -7.583860045      4.059      8.959
REMARK  4 active torsions:
REMARK  status: ('A' for Active; 'I' for Inactive)
REMARK    1  A    between atoms: C2_2  and  N1_3 
REMARK       I    between atoms: N1_3  and  C3_5 
REMARK    2  A    between atoms: C3_5  and  C4_7 
REMARK    3  A    between atoms: C22_31  and  N3_32 
REMARK    4  A    between atoms: C24_34  and  O5_35 
ROOT
HETATM    1  C4  UNL     1      18.711 -33.546  -4.304  1.00  0.00     0.034 A 
HETATM    2  C5  UNL     1      18.572 -33.669  -5.668  1.00  0.00     0.020 A 
HETATM    3  C6  UNL     1      19.458 -34.461  -6.359  1.00  0.00     0.040 A 
HETATM    4  C7  UNL     1      20.503 -35.160  -5.775  1.00  0.00     0.102 A 
HETATM    5  C8  UNL     1      20.654 -35.040  -4.398  1.00  0.00     0.103 A 
HETATM    6  C9  UNL     1      19.758 -34.244  -3.715  1.00  0.00     0.056 A 
HETATM    7  O2  UNL     1      21.670 -35.695  -3.723  1.00  0.00    -0.348 OA
HETATM    8  C10 UNL     1      23.061 -35.538  -3.841  1.00  0.00     0.178 C 
HETATM    9  C11 UNL     1      23.534 -34.404  -4.673  1.00  0.00     0.053 C 
HETATM   10  C12 UNL     1      24.872 -33.929  -4.080  1.00  0.00     0.170 C 
HETATM   11  O3  UNL     1      25.786 -34.946  -4.434  1.00  0.00    -0.387 OA
HETATM   12  C13 UNL     1      26.978 -34.850  -3.741  1.00  0.00     0.194 C 
HETATM   13  C14 UNL     1      27.890 -33.827  -4.323  1.00  0.00    -0.003 C 
HETATM   14  C15 UNL     1      28.301 -33.899  -5.575  1.00  0.00    -0.003 C 
HETATM   15  C16 UNL     1      27.880 -34.998  -6.471  1.00  0.00     0.194 C 
HETATM   16  O4  UNL     1      26.745 -34.569  -7.152  1.00  0.00    -0.386 OA
HETATM   17  C17 UNL     1      26.983 -34.309  -8.481  1.00  0.00     0.195 C 
HETATM   18  C18 UNL     1      25.688 -33.875  -9.134  1.00  0.00     0.258 C 
HETATM   19  N2  UNL     1      25.035 -35.062  -9.704  1.00  0.00    -0.068 N 
ATOM     20  H21 UNL     1      25.695 -35.686 -10.167  1.00  0.00     0.277 HD
ATOM     21  H22 UNL     1      24.459 -34.838 -10.516  1.00  0.00     0.277 HD
HETATM   22  C19 UNL     1      24.288 -35.724  -8.663  1.00  0.00     0.289 C 
HETATM   23  C20 UNL     1      23.490 -36.833  -9.249  1.00  0.00     0.039 A 
HETATM   24  C21 UNL     1      23.212 -37.169 -10.557  1.00  0.00     0.057 A 
HETATM   25  C22 UNL     1      22.422 -38.293 -10.591  1.00  0.00     0.048 A 
HETATM   26  C28 UNL     1      22.229 -38.629  -9.247  1.00  0.00     0.120 A 
HETATM   27  N4  UNL     1      22.875 -37.746  -8.464  1.00  0.00    -0.354 N 
HETATM   28  C29 UNL     1      22.948 -37.710  -7.017  1.00  0.00     0.155 C 
HETATM   29  C30 UNL     1      21.606 -37.318  -6.398  1.00  0.00     0.196 C 
HETATM   30  O6  UNL     1      21.360 -35.949  -6.540  1.00  0.00    -0.347 OA
ENDROOT
BRANCH  25  31
HETATM   31  N3  UNL     1      21.907 -38.976 -11.720  1.00  0.00    -0.372 N 
HETATM   32  C23 UNL     1      20.540 -39.368 -12.034  1.00  0.00     0.161 C 
HETATM   33  C24 UNL     1      20.808 -40.051 -13.350  1.00  0.00     0.077 C 
HETATM   34  C25 UNL     1      21.762 -39.070 -14.017  1.00  0.00     0.065 C 
HETATM   35  C27 UNL     1      22.072 -40.848 -13.013  1.00  0.00     0.065 C 
HETATM   36  C26 UNL     1      22.661 -39.441 -12.831  1.00  0.00     0.090 C 
BRANCH  33  37
HETATM   37  O5  UNL     1      19.844 -40.620 -14.043  1.00  0.00    -0.388 OA
ATOM     38  H5  UNL     1      19.911 -41.518 -14.345  1.00  0.00     0.210 HD
ENDBRANCH  33  37
ENDBRANCH  25  31
BRANCH   1  39
HETATM   39  C3  UNL     1      17.799 -32.724  -3.519  1.00  0.00     0.251 C 
HETATM   40  N1  UNL     1      17.438 -31.390  -3.833  1.00  0.00    -0.357 N 
ATOM     41  H1  UNL     1      17.831 -30.947  -4.664  1.00  0.00     0.162 HD
HETATM   42  O1  UNL     1      17.294 -33.240  -2.488  1.00  0.00    -0.268 OA
BRANCH  40  43
HETATM   43  C2  UNL     1      16.515 -30.637  -2.991  1.00  0.00     0.118 C 
HETATM   44  C1  UNL     1      17.295 -30.004  -1.868  1.00  0.00     0.026 C 
ENDBRANCH  40  43
ENDBRANCH   1  39
TORSDOF 4
ENDMDL
MODEL 5
REMARK VINA RESULT: -7.560546929      3.225      7.456
REMARK  4 active torsions:
REMARK  status: ('A' for Active; 'I' for Inactive)
REMARK    1  A    between atoms: C2_2  and  N1_3 
REMARK       I    between atoms: N1_3  and  C3_5 
REMARK    2  A    between atoms: C3_5  and  C4_7 
REMARK    3  A    between atoms: C22_31  and  N3_32 
REMARK    4  A    between atoms: C24_34  and  O5_35 
ROOT
HETATM    1  C4  UNL     1      28.207 -38.939  -4.047  1.00  0.00     0.034 A 
HETATM    2  C5  UNL     1      27.035 -38.643  -3.387  1.00  0.00     0.020 A 
HETATM    3  C6  UNL     1      26.290 -37.566  -3.804  1.00  0.00     0.040 A 
HETATM    4  C7  UNL     1      26.634 -36.737  -4.860  1.00  0.00     0.102 A 
HETATM    5  C8  UNL     1      27.816 -37.026  -5.533  1.00  0.00     0.103 A 
HETATM    6  C9  UNL     1      28.556 -38.110  -5.106  1.00  0.00     0.056 A 
HETATM    7  O2  UNL     1      28.249 -36.254  -6.597  1.00  0.00    -0.348 OA
HETATM    8  C10 UNL     1      28.623 -34.900  -6.620  1.00  0.00     0.178 C 
HETATM    9  C11 UNL     1      28.741 -34.220  -5.306  1.00  0.00     0.053 C 
HETATM   10  C12 UNL     1      29.834 -33.146  -5.445  1.00  0.00     0.170 C 
HETATM   11  O3  UNL     1      29.232 -32.142  -6.234  1.00  0.00    -0.387 OA
HETATM   12  C13 UNL     1      30.149 -31.227  -6.717  1.00  0.00     0.194 C 
HETATM   13  C14 UNL     1      30.519 -30.207  -5.699  1.00  0.00    -0.003 C 
HETATM   14  C15 UNL     1      29.612 -29.424  -5.143  1.00  0.00    -0.003 C 
HETATM   15  C16 UNL     1      28.180 -29.517  -5.498  1.00  0.00     0.194 C 
HETATM   16  O4  UNL     1      27.584 -30.394  -4.598  1.00  0.00    -0.386 OA
HETATM   17  C17 UNL     1      26.758 -29.761  -3.699  1.00  0.00     0.195 C 
HETATM   18  C18 UNL     1      26.142 -30.799  -2.785  1.00  0.00     0.258 C 
HETATM   19  N2  UNL     1      24.851 -31.211  -3.353  1.00  0.00    -0.068 N 
ATOM     20  H21 UNL     1      24.317 -30.424  -3.720  1.00  0.00     0.277 HD
ATOM     21  H22 UNL     1      24.189 -31.512  -2.638  1.00  0.00     0.277 HD
HETATM   22  C19 UNL     1      25.088 -32.228  -4.348  1.00  0.00     0.289 C 
HETATM   23  C20 UNL     1      23.789 -32.776  -4.821  1.00  0.00     0.039 A 
HETATM   24  C21 UNL     1      22.504 -32.624  -4.346  1.00  0.00     0.057 A 
HETATM   25  C22 UNL     1      21.630 -33.336  -5.132  1.00  0.00     0.048 A 
HETATM   26  C28 UNL     1      22.436 -33.928  -6.108  1.00  0.00     0.120 A 
HETATM   27  N4  UNL     1      23.720 -33.581  -5.905  1.00  0.00    -0.354 N 
HETATM   28  C29 UNL     1      24.889 -33.964  -6.672  1.00  0.00     0.155 C 
HETATM   29  C30 UNL     1      25.229 -35.441  -6.476  1.00  0.00     0.196 C 
HETATM   30  O6  UNL     1      25.824 -35.665  -5.230  1.00  0.00    -0.347 OA
ENDROOT
BRANCH  25  31
HETATM   31  N3  UNL     1      20.224 -33.455  -5.002  1.00  0.00    -0.372 N 
HETATM   32  C23 UNL     1      19.252 -34.077  -5.891  1.00  0.00     0.161 C 
HETATM   33  C24 UNL     1      18.008 -33.776  -5.095  1.00  0.00     0.077 C 
HETATM   34  C25 UNL     1      18.458 -34.119  -3.681  1.00  0.00     0.065 C 
HETATM   35  C27 UNL     1      18.270 -32.324  -4.684  1.00  0.00     0.065 C 
HETATM   36  C26 UNL     1      19.440 -32.966  -3.924  1.00  0.00     0.090 C 
BRANCH  33  37
HETATM   37  O5  UNL     1      16.813 -34.128  -5.520  1.00  0.00    -0.388 OA
ATOM     38  H5  UNL     1      16.376 -34.905  -5.191  1.00  0.00     0.210 HD
ENDBRANCH  33  37
ENDBRANCH  25  31
BRANCH   1  39
HETATM   39  C3  UNL     1      29.036 -40.071  -3.654  1.00  0.00     0.251 C 
HETATM   40  N1  UNL     1      29.570 -41.032  -4.549  1.00  0.00    -0.357 N 
ATOM     41  H1  UNL     1      29.376 -40.949  -5.547  1.00  0.00     0.162 HD
HETATM   42  O1  UNL     1      29.296 -40.203  -2.430  1.00  0.00    -0.268 OA
BRANCH  40  43
HETATM   43  C2  UNL     1      30.392 -42.137  -4.069  1.00  0.00     0.118 C 
HETATM   44  C1  UNL     1      29.733 -43.434  -4.463  1.00  0.00     0.026 C 
ENDBRANCH  40  43
ENDBRANCH   1  39
TORSDOF 4
ENDMDL
