MODEL 1
REMARK VINA RESULT: -8.275232830      0.000      0.000
REMARK  5 active torsions:
REMARK  status: ('A' for Active; 'I' for Inactive)
REMARK    1  A    between atoms: C4_7  and  N3_8 
REMARK       I    between atoms: N3_8  and  C5_10 
REMARK       I    between atoms: C5_10  and  N4_12 
REMARK    2  A    between atoms: N4_12  and  C6_14 
REMARK    3  A    between atoms: C9_17  and  C10_18 
REMARK    4  A    between atoms: C11_21  and  N6_22 
REMARK    5  A    between atoms: C16_30  and  N8_31 
ROOT
HETATM    1  N1  UNL     1      15.871 -29.200  -2.616  1.00  0.00    -0.191 NA
HETATM    2  C1  UNL     1      16.620 -30.073  -2.454  1.00  0.00     0.101 C 
HETATM    3  C2  UNL     1      17.559 -31.137  -2.252  1.00  0.00     0.071 A 
HETATM    4  C3  UNL     1      18.368 -31.237  -1.142  1.00  0.00     0.113 A 
HETATM    5  N2  UNL     1      19.248 -32.250  -0.970  1.00  0.00    -0.350 N 
ATOM      6  H2  UNL     1      19.816 -32.263  -0.123  1.00  0.00     0.166 HD
HETATM    7  C4  UNL     1      19.409 -33.238  -1.865  1.00  0.00     0.120 A 
HETATM    8  C25 UNL     1      18.592 -33.161  -3.012  1.00  0.00     0.020 A 
HETATM    9  C26 UNL     1      18.743 -34.174  -3.948  1.00  0.00     0.016 A 
HETATM   10  C27 UNL     1      17.953 -34.129  -5.092  1.00  0.00     0.001 A 
HETATM   11  C28 UNL     1      17.057 -33.094  -5.259  1.00  0.00     0.001 A 
HETATM   12  C29 UNL     1      16.895 -32.078  -4.339  1.00  0.00     0.014 A 
HETATM   13  C30 UNL     1      17.698 -32.141  -3.195  1.00  0.00    -0.000 A 
ENDROOT
BRANCH   7  14
HETATM   14  N3  UNL     1      20.235 -34.203  -1.767  1.00  0.00    -0.294 N 
HETATM   15  C5  UNL     1      21.575 -34.343  -2.013  1.00  0.00     0.326 C 
HETATM   16  O1  UNL     1      22.277 -34.948  -1.113  1.00  0.00    -0.247 OA
HETATM   17  N4  UNL     1      22.192 -33.862  -3.190  1.00  0.00    -0.309 N 
ATOM     18  H4  UNL     1      21.620 -33.379  -3.883  1.00  0.00     0.170 HD
ATOM     19  H3  UNL     1      19.801 -35.063  -1.430  1.00  0.00     0.172 HD
BRANCH  17  20
HETATM   20  C6  UNL     1      23.574 -34.026  -3.439  1.00  0.00     0.036 A 
HETATM   21  C7  UNL     1      23.965 -35.214  -4.086  1.00  0.00     0.030 A 
HETATM   22  C8  UNL     1      25.293 -35.481  -4.349  1.00  0.00     0.017 A 
HETATM   23  C9  UNL     1      26.275 -34.611  -3.995  1.00  0.00     0.009 A 
HETATM   24  C23 UNL     1      25.906 -33.449  -3.363  1.00  0.00     0.017 A 
HETATM   25  C24 UNL     1      24.561 -33.164  -3.090  1.00  0.00     0.030 A 
BRANCH  23  26
HETATM   26  C10 UNL     1      27.665 -34.858  -4.279  1.00  0.00     0.146 A 
HETATM   27  N5  UNL     1      28.542 -33.824  -4.445  1.00  0.00    -0.175 N 
HETATM   28  C11 UNL     1      29.832 -34.003  -4.725  1.00  0.00     0.696 A 
ATOM     29  H5  UNL     1      28.193 -32.870  -4.351  1.00  0.00     0.186 HD
HETATM   30  N7  UNL     1      30.304 -35.246  -4.853  1.00  0.00    -0.022 N 
HETATM   31  C16 UNL     1      29.489 -36.330  -4.703  1.00  0.00     0.696 A 
ATOM     32  H7  UNL     1      31.291 -35.387  -5.066  1.00  0.00     0.203 HD
HETATM   33  N9  UNL     1      28.201 -36.098  -4.422  1.00  0.00    -0.175 N 
ATOM     34  H9  UNL     1      27.584 -36.902  -4.307  1.00  0.00     0.186 HD
BRANCH  28  35
HETATM   35  N6  UNL     1      30.688 -32.907  -4.888  1.00  0.00    -0.213 N 
HETATM   36  C12 UNL     1      31.903 -32.709  -4.121  1.00  0.00     0.167 C 
HETATM   37  C13 UNL     1      32.668 -31.558  -4.689  1.00  0.00     0.188 C 
HETATM   38  O2  UNL     1      31.955 -30.393  -4.821  1.00  0.00    -0.388 OA
HETATM   39  C14 UNL     1      30.653 -30.550  -5.251  1.00  0.00     0.188 C 
HETATM   40  C15 UNL     1      30.382 -31.890  -5.873  1.00  0.00     0.167 C 
ENDBRANCH  28  35
BRANCH  31  41
HETATM   41  N8  UNL     1      29.991 -37.643  -4.865  1.00  0.00    -0.214 N 
HETATM   42  C17 UNL     1      30.622 -38.305  -5.987  1.00  0.00     0.144 C 
HETATM   43  C18 UNL     1      31.864 -38.866  -5.263  1.00  0.00     0.060 C 
HETATM   44  C19 UNL     1      31.174 -39.546  -4.088  1.00  0.00     0.081 C 
HETATM   45  C20 UNL     1      30.901 -40.993  -4.312  1.00  0.00     0.066 C 
HETATM   46  O3  UNL     1      31.939 -39.791  -2.978  1.00  0.00    -0.378 OA
HETATM   47  C22 UNL     1      29.973 -38.658  -3.814  1.00  0.00     0.179 C 
HETATM   48  C21 UNL     1      32.031 -41.125  -3.331  1.00  0.00     0.172 C 
ENDBRANCH  31  41
ENDBRANCH  23  26
ENDBRANCH  17  20
ENDBRANCH   7  14
TORSDOF 5
ENDMDL
MODEL 2
REMARK VINA RESULT: -8.259716416      7.685     11.802
REMARK  5 active torsions:
REMARK  status: ('A' for Active; 'I' for Inactive)
REMARK    1  A    between atoms: C4_7  and  N3_8 
REMARK       I    between atoms: N3_8  and  C5_10 
REMARK       I    between atoms: C5_10  and  N4_12 
REMARK    2  A    between atoms: N4_12  and  C6_14 
REMARK    3  A    between atoms: C9_17  and  C10_18 
REMARK    4  A    between atoms: C11_21  and  N6_22 
REMARK    5  A    between atoms: C16_30  and  N8_31 
ROOT
HETATM    1  N1  UNL     1      24.079 -44.558 -15.208  1.00  0.00    -0.191 NA
HETATM    2  C1  UNL     1      23.635 -43.536 -14.882  1.00  0.00     0.101 C 
HETATM    3  C2  UNL     1      23.098 -42.274 -14.466  1.00  0.00     0.071 A 
HETATM    4  C3  UNL     1      23.869 -41.152 -14.251  1.00  0.00     0.113 A 
HETATM    5  N2  UNL     1      23.343 -39.970 -13.857  1.00  0.00    -0.350 N 
ATOM      6  H2  UNL     1      23.973 -39.180 -13.718  1.00  0.00     0.166 HD
HETATM    7  C4  UNL     1      22.031 -39.790 -13.640  1.00  0.00     0.120 A 
HETATM    8  C25 UNL     1      21.217 -40.922 -13.853  1.00  0.00     0.020 A 
HETATM    9  C26 UNL     1      19.857 -40.756 -13.634  1.00  0.00     0.016 A 
HETATM   10  C27 UNL     1      19.025 -41.852 -13.834  1.00  0.00     0.001 A 
HETATM   11  C28 UNL     1      19.568 -43.054 -14.237  1.00  0.00     0.001 A 
HETATM   12  C29 UNL     1      20.918 -43.237 -14.458  1.00  0.00     0.014 A 
HETATM   13  C30 UNL     1      21.739 -42.123 -14.252  1.00  0.00    -0.000 A 
ENDROOT
BRANCH   7  14
HETATM   14  N3  UNL     1      21.483 -38.709 -13.249  1.00  0.00    -0.294 N 
HETATM   15  C5  UNL     1      21.421 -38.047 -12.051  1.00  0.00     0.326 C 
HETATM   16  O1  UNL     1      21.636 -36.774 -12.072  1.00  0.00    -0.247 OA
HETATM   17  N4  UNL     1      21.134 -38.699 -10.830  1.00  0.00    -0.309 N 
ATOM     18  H4  UNL     1      20.977 -39.707 -10.836  1.00  0.00     0.170 HD
ATOM     19  H3  UNL     1      20.978 -38.228 -13.994  1.00  0.00     0.172 HD
BRANCH  17  20
HETATM   20  C6  UNL     1      21.058 -38.003  -9.603  1.00  0.00     0.036 A 
HETATM   21  C7  UNL     1      22.222 -37.980  -8.812  1.00  0.00     0.030 A 
HETATM   22  C8  UNL     1      22.242 -37.350  -7.584  1.00  0.00     0.017 A 
HETATM   23  C9  UNL     1      21.140 -36.728  -7.090  1.00  0.00     0.009 A 
HETATM   24  C23 UNL     1      19.997 -36.744  -7.851  1.00  0.00     0.017 A 
HETATM   25  C24 UNL     1      19.963 -37.379  -9.099  1.00  0.00     0.030 A 
BRANCH  23  26
HETATM   26  C10 UNL     1      21.143 -36.046  -5.821  1.00  0.00     0.146 A 
HETATM   27  N5  UNL     1      20.194 -35.109  -5.526  1.00  0.00    -0.175 N 
HETATM   28  C11 UNL     1      20.165 -34.441  -4.374  1.00  0.00     0.696 A 
ATOM     29  H5  UNL     1      19.473 -34.912  -6.220  1.00  0.00     0.186 HD
HETATM   30  N7  UNL     1      21.103 -34.688  -3.455  1.00  0.00    -0.022 N 
HETATM   31  C16 UNL     1      22.086 -35.608  -3.678  1.00  0.00     0.696 A 
ATOM     32  H7  UNL     1      21.085 -34.180  -2.571  1.00  0.00     0.203 HD
HETATM   33  N9  UNL     1      22.070 -36.254  -4.850  1.00  0.00    -0.175 N 
ATOM     34  H9  UNL     1      22.800 -36.945  -5.025  1.00  0.00     0.186 HD
BRANCH  28  35
HETATM   35  N6  UNL     1      19.171 -33.489  -4.123  1.00  0.00    -0.213 N 
HETATM   36  C12 UNL     1      18.820 -33.016  -2.798  1.00  0.00     0.167 C 
HETATM   37  C13 UNL     1      17.872 -31.867  -2.914  1.00  0.00     0.188 C 
HETATM   38  O2  UNL     1      16.759 -32.105  -3.679  1.00  0.00    -0.388 OA
HETATM   39  C14 UNL     1      16.982 -32.847  -4.822  1.00  0.00     0.188 C 
HETATM   40  C15 UNL     1      18.428 -32.911  -5.224  1.00  0.00     0.167 C 
ENDBRANCH  28  35
BRANCH  31  41
HETATM   41  N8  UNL     1      23.091 -35.846  -2.709  1.00  0.00    -0.214 N 
HETATM   42  C17 UNL     1      24.233 -36.734  -2.700  1.00  0.00     0.144 C 
HETATM   43  C18 UNL     1      25.320 -35.716  -2.294  1.00  0.00     0.060 C 
HETATM   44  C19 UNL     1      24.642 -35.109  -1.074  1.00  0.00     0.081 C 
HETATM   45  C20 UNL     1      25.044 -35.747   0.211  1.00  0.00     0.066 C 
HETATM   46  O3  UNL     1      25.074 -33.872  -0.676  1.00  0.00    -0.378 OA
HETATM   47  C22 UNL     1      23.165 -35.152  -1.425  1.00  0.00     0.179 C 
HETATM   48  C21 UNL     1      25.787 -34.450   0.359  1.00  0.00     0.172 C 
ENDBRANCH  31  41
ENDBRANCH  23  26
ENDBRANCH  17  20
ENDBRANCH   7  14
TORSDOF 5
ENDMDL
MODEL 3
REMARK VINA RESULT: -8.019971845      1.948      2.611
REMARK  5 active torsions:
REMARK  status: ('A' for Active; 'I' for Inactive)
REMARK    1  A    between atoms: C4_7  and  N3_8 
REMARK       I    between atoms: N3_8  and  C5_10 
REMARK       I    between atoms: C5_10  and  N4_12 
REMARK    2  A    between atoms: N4_12  and  C6_14 
REMARK    3  A    between atoms: C9_17  and  C10_18 
REMARK    4  A    between atoms: C11_21  and  N6_22 
REMARK    5  A    between atoms: C16_30  and  N8_31 
ROOT
HETATM    1  N1  UNL     1      16.282 -30.029  -2.581  1.00  0.00    -0.191 NA
HETATM    2  C1  UNL     1      16.922 -30.852  -3.094  1.00  0.00     0.101 C 
HETATM    3  C2  UNL     1      17.698 -31.870  -3.738  1.00  0.00     0.071 A 
HETATM    4  C3  UNL     1      17.929 -31.905  -5.096  1.00  0.00     0.113 A 
HETATM    5  N2  UNL     1      18.665 -32.875  -5.685  1.00  0.00    -0.350 N 
ATOM      6  H2  UNL     1      18.797 -32.839  -6.696  1.00  0.00     0.166 HD
HETATM    7  C4  UNL     1      19.227 -33.884  -5.000  1.00  0.00     0.120 A 
HETATM    8  C25 UNL     1      19.006 -33.873  -3.607  1.00  0.00     0.020 A 
HETATM    9  C26 UNL     1      19.580 -34.907  -2.882  1.00  0.00     0.016 A 
HETATM   10  C27 UNL     1      19.383 -34.927  -1.506  1.00  0.00     0.001 A 
HETATM   11  C28 UNL     1      18.633 -33.933  -0.912  1.00  0.00     0.001 A 
HETATM   12  C29 UNL     1      18.055 -32.898  -1.618  1.00  0.00     0.014 A 
HETATM   13  C30 UNL     1      18.265 -32.894  -3.002  1.00  0.00    -0.000 A 
ENDROOT
BRANCH   7  14
HETATM   14  N3  UNL     1      19.910 -34.835  -5.503  1.00  0.00    -0.294 N 
HETATM   15  C5  UNL     1      21.223 -35.218  -5.418  1.00  0.00     0.326 C 
HETATM   16  O1  UNL     1      21.455 -36.473  -5.218  1.00  0.00    -0.247 OA
HETATM   17  N4  UNL     1      22.295 -34.307  -5.542  1.00  0.00    -0.309 N 
ATOM     18  H4  UNL     1      22.088 -33.319  -5.691  1.00  0.00     0.170 HD
ATOM     19  H3  UNL     1      19.356 -35.447  -6.102  1.00  0.00     0.172 HD
BRANCH  17  20
HETATM   20  C6  UNL     1      23.646 -34.717  -5.468  1.00  0.00     0.036 A 
HETATM   21  C7  UNL     1      24.255 -34.671  -4.199  1.00  0.00     0.030 A 
HETATM   22  C8  UNL     1      25.577 -35.025  -4.026  1.00  0.00     0.017 A 
HETATM   23  C9  UNL     1      26.345 -35.430  -5.072  1.00  0.00     0.009 A 
HETATM   24  C23 UNL     1      25.763 -35.478  -6.315  1.00  0.00     0.017 A 
HETATM   25  C24 UNL     1      24.421 -35.122  -6.505  1.00  0.00     0.030 A 
BRANCH  23  26
HETATM   26  C10 UNL     1      27.720 -35.825  -4.912  1.00  0.00     0.146 A 
HETATM   27  N5  UNL     1      28.726 -34.902  -4.968  1.00  0.00    -0.175 N 
HETATM   28  C11 UNL     1      30.013 -35.221  -4.841  1.00  0.00     0.696 A 
ATOM     29  H5  UNL     1      28.480 -33.923  -5.113  1.00  0.00     0.186 HD
HETATM   30  N7  UNL     1      30.351 -36.499  -4.651  1.00  0.00    -0.022 N 
HETATM   31  C16 UNL     1      29.404 -37.479  -4.586  1.00  0.00     0.696 A 
ATOM     32  H7  UNL     1      31.335 -36.748  -4.553  1.00  0.00     0.203 HD
HETATM   33  N9  UNL     1      28.124 -37.107  -4.718  1.00  0.00    -0.175 N 
ATOM     34  H9  UNL     1      27.408 -37.832  -4.670  1.00  0.00     0.186 HD
BRANCH  28  35
HETATM   35  N6  UNL     1      31.005 -34.235  -4.909  1.00  0.00    -0.213 N 
HETATM   36  C12 UNL     1      31.480 -33.486  -3.762  1.00  0.00     0.167 C 
HETATM   37  C13 UNL     1      32.669 -32.672  -4.157  1.00  0.00     0.188 C 
HETATM   38  O2  UNL     1      32.485 -31.864  -5.250  1.00  0.00    -0.388 OA
HETATM   39  C14 UNL     1      31.746 -32.424  -6.273  1.00  0.00     0.188 C 
HETATM   40  C15 UNL     1      31.624 -33.918  -6.179  1.00  0.00     0.167 C 
ENDBRANCH  28  35
BRANCH  31  41
HETATM   41  N8  UNL     1      29.771 -38.834  -4.410  1.00  0.00    -0.214 N 
HETATM   42  C17 UNL     1      30.887 -39.451  -3.727  1.00  0.00     0.144 C 
HETATM   43  C18 UNL     1      30.106 -40.470  -2.869  1.00  0.00     0.060 C 
HETATM   44  C19 UNL     1      29.256 -41.105  -3.961  1.00  0.00     0.081 C 
HETATM   45  C20 UNL     1      29.849 -42.346  -4.533  1.00  0.00     0.066 C 
HETATM   46  O3  UNL     1      28.116 -41.751  -3.562  1.00  0.00    -0.378 OA
HETATM   47  C22 UNL     1      29.000 -39.962  -4.927  1.00  0.00     0.179 C 
HETATM   48  C21 UNL     1      28.743 -42.971  -3.732  1.00  0.00     0.172 C 
ENDBRANCH  31  41
ENDBRANCH  23  26
ENDBRANCH  17  20
ENDBRANCH   7  14
TORSDOF 5
ENDMDL
MODEL 4
REMARK VINA RESULT: -7.983797459      0.975      1.211
REMARK  5 active torsions:
REMARK  status: ('A' for Active; 'I' for Inactive)
REMARK    1  A    between atoms: C4_7  and  N3_8 
REMARK       I    between atoms: N3_8  and  C5_10 
REMARK       I    between atoms: C5_10  and  N4_12 
REMARK    2  A    between atoms: N4_12  and  C6_14 
REMARK    3  A    between atoms: C9_17  and  C10_18 
REMARK    4  A    between atoms: C11_21  and  N6_22 
REMARK    5  A    between atoms: C16_30  and  N8_31 
ROOT
HETATM    1  N1  UNL     1      15.781 -29.309  -2.687  1.00  0.00    -0.191 NA
HETATM    2  C1  UNL     1      16.559 -30.158  -2.535  1.00  0.00     0.101 C 
HETATM    3  C2  UNL     1      17.532 -31.193  -2.345  1.00  0.00     0.071 A 
HETATM    4  C3  UNL     1      18.371 -31.259  -1.254  1.00  0.00     0.113 A 
HETATM    5  N2  UNL     1      19.284 -32.244  -1.094  1.00  0.00    -0.350 N 
ATOM      6  H2  UNL     1      19.871 -32.232  -0.261  1.00  0.00     0.166 HD
HETATM    7  C4  UNL     1      19.451 -33.236  -1.983  1.00  0.00     0.120 A 
HETATM    8  C25 UNL     1      18.605 -33.194  -3.111  1.00  0.00     0.020 A 
HETATM    9  C26 UNL     1      18.763 -34.212  -4.040  1.00  0.00     0.016 A 
HETATM   10  C27 UNL     1      17.945 -34.201  -5.165  1.00  0.00     0.001 A 
HETATM   11  C28 UNL     1      17.016 -33.194  -5.320  1.00  0.00     0.001 A 
HETATM   12  C29 UNL     1      16.846 -32.174  -4.407  1.00  0.00     0.014 A 
HETATM   13  C30 UNL     1      17.678 -32.202  -3.281  1.00  0.00    -0.000 A 
ENDROOT
BRANCH   7  14
HETATM   14  N3  UNL     1      20.306 -34.176  -1.896  1.00  0.00    -0.294 N 
HETATM   15  C5  UNL     1      21.653 -34.268  -2.130  1.00  0.00     0.326 C 
HETATM   16  O1  UNL     1      22.365 -34.869  -1.235  1.00  0.00    -0.247 OA
HETATM   17  N4  UNL     1      22.266 -33.743  -3.290  1.00  0.00    -0.309 N 
ATOM     18  H4  UNL     1      21.686 -33.265  -3.979  1.00  0.00     0.170 HD
ATOM     19  H3  UNL     1      19.897 -35.056  -1.581  1.00  0.00     0.172 HD
BRANCH  17  20
HETATM   20  C6  UNL     1      23.655 -33.858  -3.527  1.00  0.00     0.036 A 
HETATM   21  C7  UNL     1      24.088 -35.004  -4.221  1.00  0.00     0.030 A 
HETATM   22  C8  UNL     1      25.426 -35.223  -4.478  1.00  0.00     0.017 A 
HETATM   23  C9  UNL     1      26.378 -34.342  -4.072  1.00  0.00     0.009 A 
HETATM   24  C23 UNL     1      25.969 -33.220  -3.393  1.00  0.00     0.017 A 
HETATM   25  C24 UNL     1      24.614 -32.986  -3.126  1.00  0.00     0.030 A 
BRANCH  23  26
HETATM   26  C10 UNL     1      27.778 -34.538  -4.348  1.00  0.00     0.146 A 
HETATM   27  N5  UNL     1      28.603 -33.474  -4.580  1.00  0.00    -0.175 N 
HETATM   28  C11 UNL     1      29.900 -33.606  -4.855  1.00  0.00     0.696 A 
ATOM     29  H5  UNL     1      28.208 -32.535  -4.541  1.00  0.00     0.186 HD
HETATM   30  N7  UNL     1      30.432 -34.830  -4.910  1.00  0.00    -0.022 N 
HETATM   31  C16 UNL     1      29.671 -35.942  -4.693  1.00  0.00     0.696 A 
ATOM     32  H7  UNL     1      31.424 -34.936  -5.120  1.00  0.00     0.203 HD
HETATM   33  N9  UNL     1      28.374 -35.757  -4.419  1.00  0.00    -0.175 N 
ATOM     34  H9  UNL     1      27.798 -36.582  -4.253  1.00  0.00     0.186 HD
BRANCH  28  35
HETATM   35  N6  UNL     1      30.700 -32.482  -5.087  1.00  0.00    -0.213 N 
HETATM   36  C12 UNL     1      32.031 -32.309  -4.537  1.00  0.00     0.167 C 
HETATM   37  C13 UNL     1      32.669 -31.103  -5.146  1.00  0.00     0.188 C 
HETATM   38  O2  UNL     1      31.932 -29.950  -5.064  1.00  0.00    -0.388 OA
HETATM   39  C14 UNL     1      30.575 -30.107  -5.266  1.00  0.00     0.188 C 
HETATM   40  C15 UNL     1      30.212 -31.406  -5.926  1.00  0.00     0.167 C 
ENDBRANCH  28  35
BRANCH  31  41
HETATM   41  N8  UNL     1      30.237 -37.237  -4.778  1.00  0.00    -0.214 N 
HETATM   42  C17 UNL     1      30.394 -38.289  -3.798  1.00  0.00     0.144 C 
HETATM   43  C18 UNL     1      29.795 -39.459  -4.608  1.00  0.00     0.060 C 
HETATM   44  C19 UNL     1      30.594 -39.299  -5.894  1.00  0.00     0.081 C 
HETATM   45  C20 UNL     1      31.814 -40.152  -5.948  1.00  0.00     0.066 C 
HETATM   46  O3  UNL     1      30.065 -39.861  -7.025  1.00  0.00    -0.378 OA
HETATM   47  C22 UNL     1      30.804 -37.799  -6.002  1.00  0.00     0.179 C 
HETATM   48  C21 UNL     1      30.964 -40.908  -6.929  1.00  0.00     0.172 C 
ENDBRANCH  31  41
ENDBRANCH  23  26
ENDBRANCH  17  20
ENDBRANCH   7  14
TORSDOF 5
ENDMDL
MODEL 5
REMARK VINA RESULT: -7.897155529      1.065      1.226
REMARK  5 active torsions:
REMARK  status: ('A' for Active; 'I' for Inactive)
REMARK    1  A    between atoms: C4_7  and  N3_8 
REMARK       I    between atoms: N3_8  and  C5_10 
REMARK       I    between atoms: C5_10  and  N4_12 
REMARK    2  A    between atoms: N4_12  and  C6_14 
REMARK    3  A    between atoms: C9_17  and  C10_18 
REMARK    4  A    between atoms: C11_21  and  N6_22 
REMARK    5  A    between atoms: C16_30  and  N8_31 
ROOT
HETATM    1  N1  UNL     1      16.062 -29.531  -2.688  1.00  0.00    -0.191 NA
HETATM    2  C1  UNL     1      16.749 -30.467  -2.649  1.00  0.00     0.101 C 
HETATM    3  C2  UNL     1      17.612 -31.610  -2.596  1.00  0.00     0.071 A 
HETATM    4  C3  UNL     1      18.432 -31.897  -1.526  1.00  0.00     0.113 A 
HETATM    5  N2  UNL     1      19.239 -32.981  -1.497  1.00  0.00    -0.350 N 
ATOM      6  H2  UNL     1      19.819 -33.133  -0.671  1.00  0.00     0.166 HD
HETATM    7  C4  UNL     1      19.311 -33.866  -2.504  1.00  0.00     0.120 A 
HETATM    8  C25 UNL     1      18.482 -33.598  -3.612  1.00  0.00     0.020 A 
HETATM    9  C26 UNL     1      18.543 -34.502  -4.663  1.00  0.00     0.016 A 
HETATM   10  C27 UNL     1      17.738 -34.268  -5.772  1.00  0.00     0.001 A 
HETATM   11  C28 UNL     1      16.916 -33.161  -5.795  1.00  0.00     0.001 A 
HETATM   12  C29 UNL     1      16.844 -32.251  -4.760  1.00  0.00     0.014 A 
HETATM   13  C30 UNL     1      17.661 -32.504  -3.651  1.00  0.00    -0.000 A 
ENDROOT
BRANCH   7  14
HETATM   14  N3  UNL     1      20.067 -34.892  -2.540  1.00  0.00    -0.294 N 
HETATM   15  C5  UNL     1      21.417 -35.080  -2.680  1.00  0.00     0.326 C 
HETATM   16  O1  UNL     1      21.979 -35.915  -1.870  1.00  0.00    -0.247 OA
HETATM   17  N4  UNL     1      22.186 -34.410  -3.657  1.00  0.00    -0.309 N 
ATOM     18  H4  UNL     1      21.723 -33.748  -4.279  1.00  0.00     0.170 HD
ATOM     19  H3  UNL     1      19.552 -35.767  -2.443  1.00  0.00     0.172 HD
BRANCH  17  20
HETATM   20  C6  UNL     1      23.576 -34.624  -3.800  1.00  0.00     0.036 A 
HETATM   21  C7  UNL     1      23.971 -35.696  -4.623  1.00  0.00     0.030 A 
HETATM   22  C8  UNL     1      25.304 -36.006  -4.805  1.00  0.00     0.017 A 
HETATM   23  C9  UNL     1      26.286 -35.289  -4.199  1.00  0.00     0.009 A 
HETATM   24  C23 UNL     1      25.914 -34.241  -3.394  1.00  0.00     0.017 A 
HETATM   25  C24 UNL     1      24.565 -33.915  -3.200  1.00  0.00     0.030 A 
BRANCH  23  26
HETATM   26  C10 UNL     1      27.684 -35.579  -4.392  1.00  0.00     0.146 A 
HETATM   27  N5  UNL     1      28.595 -34.573  -4.543  1.00  0.00    -0.175 N 
HETATM   28  C11 UNL     1      29.894 -34.792  -4.740  1.00  0.00     0.696 A 
ATOM     29  H5  UNL     1      28.265 -33.608  -4.503  1.00  0.00     0.186 HD
HETATM   30  N7  UNL     1      30.341 -36.049  -4.796  1.00  0.00    -0.022 N 
HETATM   31  C16 UNL     1      29.491 -37.108  -4.656  1.00  0.00     0.696 A 
ATOM     32  H7  UNL     1      31.335 -36.222  -4.945  1.00  0.00     0.203 HD
HETATM   33  N9  UNL     1      28.196 -36.836  -4.459  1.00  0.00    -0.175 N 
ATOM     34  H9  UNL     1      27.553 -37.621  -4.352  1.00  0.00     0.186 HD
BRANCH  28  35
HETATM   35  N6  UNL     1      30.785 -33.723  -4.891  1.00  0.00    -0.213 N 
HETATM   36  C12 UNL     1      31.756 -33.332  -3.888  1.00  0.00     0.167 C 
HETATM   37  C13 UNL     1      32.669 -32.294  -4.456  1.00  0.00     0.188 C 
HETATM   38  O2  UNL     1      32.042 -31.206  -5.008  1.00  0.00    -0.388 OA
HETATM   39  C14 UNL     1      30.899 -31.492  -5.727  1.00  0.00     0.188 C 
HETATM   40  C15 UNL     1      30.775 -32.939  -6.109  1.00  0.00     0.167 C 
ENDBRANCH  28  35
BRANCH  31  41
HETATM   41  N8  UNL     1      29.969 -38.438  -4.741  1.00  0.00    -0.214 N 
HETATM   42  C17 UNL     1      31.275 -39.013  -4.503  1.00  0.00     0.144 C 
HETATM   43  C18 UNL     1      30.860 -40.158  -3.554  1.00  0.00     0.060 C 
HETATM   44  C19 UNL     1      29.744 -40.772  -4.389  1.00  0.00     0.081 C 
HETATM   45  C20 UNL     1      30.193 -41.910  -5.240  1.00  0.00     0.066 C 
HETATM   46  O3  UNL     1      28.825 -41.540  -3.725  1.00  0.00    -0.378 OA
HETATM   47  C22 UNL     1      29.135 -39.581  -5.107  1.00  0.00     0.179 C 
HETATM   48  C21 UNL     1      29.432 -42.687  -4.205  1.00  0.00     0.172 C 
ENDBRANCH  31  41
ENDBRANCH  23  26
ENDBRANCH  17  20
ENDBRANCH   7  14
TORSDOF 5
ENDMDL
