MODEL 1
REMARK VINA RESULT: -8.482154392      0.000      0.000
REMARK  8 active torsions:
REMARK  status: ('A' for Active; 'I' for Inactive)
REMARK    1  A    between atoms: C4_7  and  C5_8 
REMARK    2  A    between atoms: C9_18  and  C10_19 
REMARK    3  A    between atoms: C11_20  and  C12_21 
REMARK    4  A    between atoms: C12_21  and  O1_22 
REMARK    5  A    between atoms: C15_28  and  N7_29 
REMARK    6  A    between atoms: N7_29  and  C16_31 
REMARK    7  A    between atoms: C19_34  and  N8_35 
REMARK    8  A    between atoms: C22_38  and  N9_39 
ROOT
HETATM    1  C1  UNL     1      24.312 -34.020  -1.483  1.00  0.00     0.178 C 
HETATM    2  N1  UNL     1      22.975 -33.884  -2.081  1.00  0.00    -0.292 N 
HETATM    3  N2  UNL     1      21.828 -34.261  -1.542  1.00  0.00    -0.309 N 
ATOM      4  H2  UNL     1      21.741 -34.699  -0.625  1.00  0.00     0.186 HD
HETATM    5  C2  UNL     1      20.790 -33.994  -2.357  1.00  0.00     0.122 A 
HETATM    6  C3  UNL     1      21.307 -33.397  -3.513  1.00  0.00     0.027 A 
HETATM    7  C4  UNL     1      20.741 -32.920  -4.670  1.00  0.00     0.021 A 
HETATM    8  C14 UNL     1      21.569 -32.385  -5.623  1.00  0.00     0.104 A 
HETATM    9  N6  UNL     1      22.901 -32.347  -5.395  1.00  0.00    -0.349 N 
ATOM     10  H6  UNL     1      23.502 -31.946  -6.115  1.00  0.00     0.166 HD
HETATM   11  C15 UNL     1      23.480 -32.806  -4.273  1.00  0.00     0.135 A 
HETATM   12  C31 UNL     1      22.673 -33.358  -3.279  1.00  0.00     0.107 A 
ENDROOT
BRANCH  11  13
HETATM   13  N7  UNL     1      24.721 -32.775  -4.051  1.00  0.00    -0.341 N 
ATOM     14  H7  UNL     1      25.071 -31.943  -3.576  1.00  0.00     0.167 HD
BRANCH  13  15
HETATM   15  C16 UNL     1      25.687 -33.761  -4.383  1.00  0.00     0.033 A 
HETATM   16  C17 UNL     1      27.022 -33.563  -4.104  1.00  0.00     0.032 A 
HETATM   17  C18 UNL     1      27.994 -34.515  -4.412  1.00  0.00     0.031 A 
HETATM   18  C19 UNL     1      27.686 -35.711  -5.014  1.00  0.00     0.030 A 
HETATM   19  C29 UNL     1      26.321 -35.894  -5.291  1.00  0.00     0.031 A 
HETATM   20  C30 UNL     1      25.364 -34.955  -4.986  1.00  0.00     0.032 A 
BRANCH  18  21
HETATM   21  N8  UNL     1      28.637 -36.686  -5.341  1.00  0.00    -0.381 N 
HETATM   22  C20 UNL     1      29.912 -36.804  -4.714  1.00  0.00     0.125 C 
HETATM   23  C21 UNL     1      30.021 -38.081  -3.891  1.00  0.00     0.055 C 
HETATM   24  C22 UNL     1      29.202 -39.179  -4.553  1.00  0.00     0.226 C 
HETATM   25  C27 UNL     1      29.145 -38.947  -6.049  1.00  0.00     0.055 C 
HETATM   26  C28 UNL     1      28.345 -37.679  -6.375  1.00  0.00     0.125 C 
BRANCH  24  27
HETATM   27  N9  UNL     1      29.615 -40.496  -4.227  1.00  0.00     0.097 N 
HETATM   28  C23 UNL     1      28.918 -41.547  -4.896  1.00  0.00     0.299 C 
HETATM   29  C24 UNL     1      29.235 -42.850  -4.148  1.00  0.00     0.198 C 
HETATM   30  O2  UNL     1      30.598 -43.081  -4.350  1.00  0.00    -0.388 OA
HETATM   31  C25 UNL     1      31.361 -42.077  -3.755  1.00  0.00     0.198 C 
HETATM   32  C26 UNL     1      31.031 -40.706  -4.335  1.00  0.00     0.299 C 
ENDBRANCH  24  27
ENDBRANCH  18  21
ENDBRANCH  13  15
ENDBRANCH  11  13
BRANCH   7  33
HETATM   33  C5  UNL     1      19.301 -32.899  -4.806  1.00  0.00     0.061 A 
HETATM   34  N3  UNL     1      18.584 -31.925  -4.152  1.00  0.00    -0.351 N 
HETATM   35  C6  UNL     1      17.275 -31.798  -4.200  1.00  0.00     0.182 A 
ATOM     36  H3  UNL     1      19.104 -31.252  -3.590  1.00  0.00     0.166 HD
HETATM   37  N4  UNL     1      16.578 -32.663  -4.924  1.00  0.00    -0.338 N 
HETATM   38  C7  UNL     1      17.220 -33.647  -5.587  1.00  0.00     0.120 A 
ATOM     39  H4  UNL     1      15.562 -32.585  -4.978  1.00  0.00     0.168 HD
HETATM   40  N5  UNL     1      16.747 -34.627  -6.343  1.00  0.00    -0.350 N 
HETATM   41  C13 UNL     1      18.613 -33.794  -5.545  1.00  0.00     0.056 A 
HETATM   42  C8  UNL     1      17.708 -35.416  -6.803  1.00  0.00     0.111 A 
ATOM     43  H5  UNL     1      15.757 -34.760  -6.548  1.00  0.00     0.166 HD
HETATM   44  C9  UNL     1      18.909 -34.887  -6.293  1.00  0.00     0.049 A 
BRANCH  44  45
HETATM   45  C10 UNL     1      20.205 -35.476  -6.503  1.00  0.00    -0.062 C 
HETATM   46  C11 UNL     1      21.288 -36.012  -6.651  1.00  0.00    -0.075 C 
BRANCH  46  47
HETATM   47  C12 UNL     1      22.598 -36.667  -6.827  1.00  0.00     0.258 C 
BRANCH  47  48
HETATM   48  O1  UNL     1      22.866 -37.510  -5.728  1.00  0.00    -0.389 OA
ATOM     49  H1  UNL     1      22.606 -37.082  -4.921  1.00  0.00     0.210 HD
ENDBRANCH  47  48
ENDBRANCH  46  47
ENDBRANCH  44  45
ENDBRANCH   7  33
TORSDOF 8
ENDMDL
MODEL 2
REMARK VINA RESULT: -8.303670365      0.569      1.139
REMARK  8 active torsions:
REMARK  status: ('A' for Active; 'I' for Inactive)
REMARK    1  A    between atoms: C4_7  and  C5_8 
REMARK    2  A    between atoms: C9_18  and  C10_19 
REMARK    3  A    between atoms: C11_20  and  C12_21 
REMARK    4  A    between atoms: C12_21  and  O1_22 
REMARK    5  A    between atoms: C15_28  and  N7_29 
REMARK    6  A    between atoms: N7_29  and  C16_31 
REMARK    7  A    between atoms: C19_34  and  N8_35 
REMARK    8  A    between atoms: C22_38  and  N9_39 
ROOT
HETATM    1  C1  UNL     1      24.120 -34.078  -1.260  1.00  0.00     0.178 C 
HETATM    2  N1  UNL     1      22.811 -33.994  -1.927  1.00  0.00    -0.292 N 
HETATM    3  N2  UNL     1      21.667 -34.482  -1.482  1.00  0.00    -0.309 N 
ATOM      4  H2  UNL     1      21.561 -34.985  -0.600  1.00  0.00     0.186 HD
HETATM    5  C2  UNL     1      20.658 -34.232  -2.338  1.00  0.00     0.122 A 
HETATM    6  C3  UNL     1      21.194 -33.526  -3.422  1.00  0.00     0.027 A 
HETATM    7  C4  UNL     1      20.659 -33.013  -4.578  1.00  0.00     0.021 A 
HETATM    8  C14 UNL     1      21.498 -32.361  -5.445  1.00  0.00     0.104 A 
HETATM    9  N6  UNL     1      22.810 -32.247  -5.136  1.00  0.00    -0.349 N 
ATOM     10  H6  UNL     1      23.418 -31.759  -5.793  1.00  0.00     0.166 HD
HETATM   11  C15 UNL     1      23.358 -32.740  -4.013  1.00  0.00     0.135 A 
HETATM   12  C31 UNL     1      22.539 -33.410  -3.106  1.00  0.00     0.107 A 
ENDROOT
BRANCH  11  13
HETATM   13  N7  UNL     1      24.579 -32.640  -3.716  1.00  0.00    -0.341 N 
ATOM     14  H7  UNL     1      24.830 -31.862  -3.106  1.00  0.00     0.167 HD
BRANCH  13  15
HETATM   15  C16 UNL     1      25.645 -33.481  -4.132  1.00  0.00     0.033 A 
HETATM   16  C17 UNL     1      25.395 -34.731  -4.655  1.00  0.00     0.032 A 
HETATM   17  C18 UNL     1      26.421 -35.577  -5.077  1.00  0.00     0.031 A 
HETATM   18  C19 UNL     1      27.746 -35.221  -4.999  1.00  0.00     0.030 A 
HETATM   19  C29 UNL     1      27.980 -33.945  -4.463  1.00  0.00     0.031 A 
HETATM   20  C30 UNL     1      26.968 -33.111  -4.048  1.00  0.00     0.032 A 
BRANCH  18  21
HETATM   21  N8  UNL     1      28.800 -36.048  -5.410  1.00  0.00    -0.381 N 
HETATM   22  C20 UNL     1      29.963 -36.311  -4.629  1.00  0.00     0.125 C 
HETATM   23  C21 UNL     1      30.023 -37.765  -4.178  1.00  0.00     0.055 C 
HETATM   24  C22 UNL     1      29.395 -38.650  -5.244  1.00  0.00     0.226 C 
HETATM   25  C27 UNL     1      29.564 -38.011  -6.607  1.00  0.00     0.055 C 
HETATM   26  C28 UNL     1      28.743 -36.718  -6.709  1.00  0.00     0.125 C 
BRANCH  24  27
HETATM   27  N9  UNL     1      29.838 -39.997  -5.222  1.00  0.00     0.097 N 
HETATM   28  C23 UNL     1      30.451 -40.428  -4.008  1.00  0.00     0.299 C 
HETATM   29  C24 UNL     1      31.180 -41.745  -4.310  1.00  0.00     0.198 C 
HETATM   30  O2  UNL     1      30.179 -42.674  -4.605  1.00  0.00    -0.388 OA
HETATM   31  C25 UNL     1      29.500 -42.313  -5.767  1.00  0.00     0.198 C 
HETATM   32  C26 UNL     1      28.839 -40.945  -5.626  1.00  0.00     0.299 C 
ENDBRANCH  24  27
ENDBRANCH  18  21
ENDBRANCH  13  15
ENDBRANCH  11  13
BRANCH   7  33
HETATM   33  C5  UNL     1      19.231 -33.080  -4.798  1.00  0.00     0.061 A 
HETATM   34  N3  UNL     1      18.412 -32.205  -4.125  1.00  0.00    -0.351 N 
HETATM   35  C6  UNL     1      17.101 -32.164  -4.242  1.00  0.00     0.182 A 
ATOM     36  H3  UNL     1      18.851 -31.538  -3.490  1.00  0.00     0.166 HD
HETATM   37  N4  UNL     1      16.509 -33.023  -5.061  1.00  0.00    -0.338 N 
HETATM   38  C7  UNL     1      17.255 -33.912  -5.749  1.00  0.00     0.120 A 
ATOM     39  H4  UNL     1      15.494 -33.010  -5.170  1.00  0.00     0.168 HD
HETATM   40  N5  UNL     1      16.896 -34.867  -6.594  1.00  0.00    -0.350 N 
HETATM   41  C13 UNL     1      18.650 -33.967  -5.634  1.00  0.00     0.056 A 
HETATM   42  C8  UNL     1      17.935 -35.555  -7.046  1.00  0.00     0.111 A 
ATOM     43  H5  UNL     1      15.930 -35.052  -6.865  1.00  0.00     0.166 HD
HETATM   44  C9  UNL     1      19.065 -34.982  -6.432  1.00  0.00     0.049 A 
BRANCH  44  45
HETATM   45  C10 UNL     1      20.410 -35.465  -6.603  1.00  0.00    -0.062 C 
HETATM   46  C11 UNL     1      21.552 -35.873  -6.698  1.00  0.00    -0.075 C 
BRANCH  46  47
HETATM   47  C12 UNL     1      22.938 -36.368  -6.806  1.00  0.00     0.258 C 
BRANCH  47  48
HETATM   48  O1  UNL     1      23.144 -37.423  -5.895  1.00  0.00    -0.389 OA
ATOM     49  H1  UNL     1      22.990 -37.121  -5.008  1.00  0.00     0.210 HD
ENDBRANCH  47  48
ENDBRANCH  46  47
ENDBRANCH  44  45
ENDBRANCH   7  33
TORSDOF 8
ENDMDL
MODEL 3
REMARK VINA RESULT: -8.198539675      4.952      8.420
REMARK  8 active torsions:
REMARK  status: ('A' for Active; 'I' for Inactive)
REMARK    1  A    between atoms: C4_7  and  C5_8 
REMARK    2  A    between atoms: C9_18  and  C10_19 
REMARK    3  A    between atoms: C11_20  and  C12_21 
REMARK    4  A    between atoms: C12_21  and  O1_22 
REMARK    5  A    between atoms: C15_28  and  N7_29 
REMARK    6  A    between atoms: N7_29  and  C16_31 
REMARK    7  A    between atoms: C19_34  and  N8_35 
REMARK    8  A    between atoms: C22_38  and  N9_39 
ROOT
HETATM    1  C1  UNL     1      19.467 -33.677  -4.786  1.00  0.00     0.178 C 
HETATM    2  N1  UNL     1      19.500 -34.565  -5.958  1.00  0.00    -0.292 N 
HETATM    3  N2  UNL     1      18.645 -34.573  -6.966  1.00  0.00    -0.309 N 
ATOM      4  H2  UNL     1      17.846 -33.944  -7.047  1.00  0.00     0.186 HD
HETATM    5  C2  UNL     1      18.963 -35.516  -7.874  1.00  0.00     0.122 A 
HETATM    6  C3  UNL     1      20.114 -36.168  -7.416  1.00  0.00     0.027 A 
HETATM    7  C4  UNL     1      20.883 -37.194  -7.908  1.00  0.00     0.021 A 
HETATM    8  C14 UNL     1      21.972 -37.594  -7.178  1.00  0.00     0.104 A 
HETATM    9  N6  UNL     1      22.249 -36.972  -6.009  1.00  0.00    -0.349 N 
ATOM     10  H6  UNL     1      23.063 -37.283  -5.480  1.00  0.00     0.166 HD
HETATM   11  C15 UNL     1      21.514 -35.966  -5.506  1.00  0.00     0.135 A 
HETATM   12  C31 UNL     1      20.398 -35.530  -6.218  1.00  0.00     0.107 A 
ENDROOT
BRANCH  11  13
HETATM   13  N7  UNL     1      21.764 -35.380  -4.418  1.00  0.00    -0.341 N 
ATOM     14  H7  UNL     1      21.152 -35.609  -3.634  1.00  0.00     0.167 HD
BRANCH  13  15
HETATM   15  C16 UNL     1      22.795 -34.440  -4.156  1.00  0.00     0.033 A 
HETATM   16  C17 UNL     1      23.577 -34.547  -3.026  1.00  0.00     0.032 A 
HETATM   17  C18 UNL     1      24.601 -33.643  -2.744  1.00  0.00     0.031 A 
HETATM   18  C19 UNL     1      24.897 -32.586  -3.571  1.00  0.00     0.030 A 
HETATM   19  C29 UNL     1      24.089 -32.493  -4.717  1.00  0.00     0.031 A 
HETATM   20  C30 UNL     1      23.080 -33.386  -4.994  1.00  0.00     0.032 A 
BRANCH  18  21
HETATM   21  N8  UNL     1      25.915 -31.658  -3.316  1.00  0.00    -0.381 N 
HETATM   22  C20 UNL     1      27.084 -31.510  -4.118  1.00  0.00     0.125 C 
HETATM   23  C21 UNL     1      27.105 -30.170  -4.843  1.00  0.00     0.055 C 
HETATM   24  C22 UNL     1      26.427 -29.118  -3.978  1.00  0.00     0.226 C 
HETATM   25  C27 UNL     1      26.590 -29.474  -2.514  1.00  0.00     0.055 C 
HETATM   26  C28 UNL     1      25.811 -30.752  -2.173  1.00  0.00     0.125 C 
BRANCH  24  27
HETATM   27  N9  UNL     1      26.825 -27.786  -4.255  1.00  0.00     0.097 N 
HETATM   28  C23 UNL     1      26.661 -27.359  -5.608  1.00  0.00     0.299 C 
HETATM   29  C24 UNL     1      27.477 -26.070  -5.779  1.00  0.00     0.198 C 
HETATM   30  O2  UNL     1      26.849 -25.114  -4.978  1.00  0.00    -0.388 OA
HETATM   31  C25 UNL     1      26.932 -25.468  -3.633  1.00  0.00     0.198 C 
HETATM   32  C26 UNL     1      26.261 -26.811  -3.366  1.00  0.00     0.299 C 
ENDBRANCH  24  27
ENDBRANCH  18  21
ENDBRANCH  13  15
ENDBRANCH  11  13
BRANCH   7  33
HETATM   33  C5  UNL     1      20.589 -37.746  -9.213  1.00  0.00     0.061 A 
HETATM   34  N3  UNL     1      19.544 -38.630  -9.343  1.00  0.00    -0.351 N 
HETATM   35  C6  UNL     1      19.177 -39.195 -10.473  1.00  0.00     0.182 A 
ATOM     36  H3  UNL     1      19.015 -38.864  -8.503  1.00  0.00     0.166 HD
HETATM   37  N4  UNL     1      19.852 -38.907 -11.577  1.00  0.00    -0.338 N 
HETATM   38  C7  UNL     1      20.892 -38.050 -11.519  1.00  0.00     0.120 A 
ATOM     39  H4  UNL     1      19.586 -39.331 -12.466  1.00  0.00     0.168 HD
HETATM   40  N5  UNL     1      21.718 -37.632 -12.466  1.00  0.00    -0.350 N 
HETATM   41  C13 UNL     1      21.294 -37.440 -10.323  1.00  0.00     0.056 A 
HETATM   42  C8  UNL     1      22.639 -36.800 -11.999  1.00  0.00     0.111 A 
ATOM     43  H5  UNL     1      21.654 -37.917 -13.443  1.00  0.00     0.166 HD
HETATM   44  C9  UNL     1      22.373 -36.674 -10.622  1.00  0.00     0.049 A 
BRANCH  44  45
HETATM   45  C10 UNL     1      23.175 -35.900  -9.711  1.00  0.00    -0.062 C 
HETATM   46  C11 UNL     1      23.875 -35.225  -8.980  1.00  0.00    -0.075 C 
BRANCH  46  47
HETATM   47  C12 UNL     1      24.727 -34.404  -8.100  1.00  0.00     0.258 C 
BRANCH  47  48
HETATM   48  O1  UNL     1      25.171 -33.258  -8.791  1.00  0.00    -0.389 OA
ATOM     49  H1  UNL     1      26.018 -32.987  -8.459  1.00  0.00     0.210 HD
ENDBRANCH  47  48
ENDBRANCH  46  47
ENDBRANCH  44  45
ENDBRANCH   7  33
TORSDOF 8
ENDMDL
MODEL 4
REMARK VINA RESULT: -8.080843237      5.098      7.918
REMARK  8 active torsions:
REMARK  status: ('A' for Active; 'I' for Inactive)
REMARK    1  A    between atoms: C4_7  and  C5_8 
REMARK    2  A    between atoms: C9_18  and  C10_19 
REMARK    3  A    between atoms: C11_20  and  C12_21 
REMARK    4  A    between atoms: C12_21  and  O1_22 
REMARK    5  A    between atoms: C15_28  and  N7_29 
REMARK    6  A    between atoms: N7_29  and  C16_31 
REMARK    7  A    between atoms: C19_34  and  N8_35 
REMARK    8  A    between atoms: C22_38  and  N9_39 
ROOT
HETATM    1  C1  UNL     1      24.371 -34.134  -1.465  1.00  0.00     0.178 C 
HETATM    2  N1  UNL     1      23.029 -34.038  -2.062  1.00  0.00    -0.292 N 
HETATM    3  N2  UNL     1      21.912 -34.554  -1.579  1.00  0.00    -0.309 N 
ATOM      4  H2  UNL     1      21.855 -35.090  -0.712  1.00  0.00     0.186 HD
HETATM    5  C2  UNL     1      20.860 -34.282  -2.374  1.00  0.00     0.122 A 
HETATM    6  C3  UNL     1      21.335 -33.531  -3.456  1.00  0.00     0.027 A 
HETATM    7  C4  UNL     1      20.739 -32.980  -4.564  1.00  0.00     0.021 A 
HETATM    8  C14 UNL     1      21.528 -32.289  -5.447  1.00  0.00     0.104 A 
HETATM    9  N6  UNL     1      22.853 -32.174  -5.200  1.00  0.00    -0.349 N 
ATOM     10  H6  UNL     1      23.424 -31.657  -5.868  1.00  0.00     0.166 HD
HETATM   11  C15 UNL     1      23.460 -32.703  -4.125  1.00  0.00     0.135 A 
HETATM   12  C31 UNL     1      22.693 -33.414  -3.203  1.00  0.00     0.107 A 
ENDROOT
BRANCH  11  13
HETATM   13  N7  UNL     1      24.694 -32.602  -3.886  1.00  0.00    -0.341 N 
ATOM     14  H7  UNL     1      25.117 -33.377  -3.374  1.00  0.00     0.167 HD
BRANCH  13  15
HETATM   15  C16 UNL     1      25.563 -31.539  -4.245  1.00  0.00     0.033 A 
HETATM   16  C17 UNL     1      25.952 -30.600  -3.313  1.00  0.00     0.032 A 
HETATM   17  C18 UNL     1      26.810 -29.547  -3.634  1.00  0.00     0.031 A 
HETATM   18  C19 UNL     1      27.323 -29.377  -4.897  1.00  0.00     0.030 A 
HETATM   19  C29 UNL     1      26.915 -30.342  -5.832  1.00  0.00     0.031 A 
HETATM   20  C30 UNL     1      26.070 -31.379  -5.514  1.00  0.00     0.032 A 
BRANCH  18  21
HETATM   21  N8  UNL     1      28.183 -28.330  -5.253  1.00  0.00    -0.381 N 
HETATM   22  C20 UNL     1      29.497 -28.513  -5.775  1.00  0.00     0.125 C 
HETATM   23  C21 UNL     1      29.596 -28.058  -7.225  1.00  0.00     0.055 C 
HETATM   24  C22 UNL     1      28.660 -26.879  -7.449  1.00  0.00     0.226 C 
HETATM   25  C27 UNL     1      28.492 -26.104  -6.159  1.00  0.00     0.055 C 
HETATM   26  C28 UNL     1      27.746 -26.941  -5.111  1.00  0.00     0.125 C 
BRANCH  24  27
HETATM   27  N9  UNL     1      29.018 -26.044  -8.537  1.00  0.00     0.097 N 
HETATM   28  C23 UNL     1      30.394 -26.075  -8.915  1.00  0.00     0.299 C 
HETATM   29  C24 UNL     1      30.644 -24.862  -9.821  1.00  0.00     0.198 C 
HETATM   30  O2  UNL     1      29.905 -25.098 -10.983  1.00  0.00    -0.388 OA
HETATM   31  C25 UNL     1      28.540 -25.118 -10.702  1.00  0.00     0.198 C 
HETATM   32  C26 UNL     1      28.192 -26.213  -9.698  1.00  0.00     0.299 C 
ENDBRANCH  24  27
ENDBRANCH  18  21
ENDBRANCH  13  15
ENDBRANCH  11  13
BRANCH   7  33
HETATM   33  C5  UNL     1      19.302 -33.053  -4.713  1.00  0.00     0.061 A 
HETATM   34  N3  UNL     1      18.511 -32.207  -3.973  1.00  0.00    -0.351 N 
HETATM   35  C6  UNL     1      17.196 -32.174  -4.024  1.00  0.00     0.182 A 
ATOM     36  H3  UNL     1      18.976 -31.557  -3.340  1.00  0.00     0.166 HD
HETATM   37  N4  UNL     1      16.569 -33.011  -4.839  1.00  0.00    -0.338 N 
HETATM   38  C7  UNL     1      17.287 -33.871  -5.591  1.00  0.00     0.120 A 
ATOM     39  H4  UNL     1      15.551 -33.004  -4.897  1.00  0.00     0.168 HD
HETATM   40  N5  UNL     1      16.892 -34.802  -6.448  1.00  0.00    -0.350 N 
HETATM   41  C13 UNL     1      18.686 -33.917  -5.548  1.00  0.00     0.056 A 
HETATM   42  C8  UNL     1      17.912 -35.466  -6.974  1.00  0.00     0.111 A 
ATOM     43  H5  UNL     1      15.916 -34.987  -6.676  1.00  0.00     0.166 HD
HETATM   44  C9  UNL     1      19.068 -34.903  -6.399  1.00  0.00     0.049 A 
BRANCH  44  45
HETATM   45  C10 UNL     1      20.406 -35.369  -6.652  1.00  0.00    -0.062 C 
HETATM   46  C11 UNL     1      21.554 -35.729  -6.834  1.00  0.00    -0.075 C 
BRANCH  46  47
HETATM   47  C12 UNL     1      22.948 -36.160  -7.050  1.00  0.00     0.258 C 
BRANCH  47  48
HETATM   48  O1  UNL     1      23.833 -35.125  -6.685  1.00  0.00    -0.389 OA
ATOM     49  H1  UNL     1      24.426 -34.938  -7.404  1.00  0.00     0.210 HD
ENDBRANCH  47  48
ENDBRANCH  46  47
ENDBRANCH  44  45
ENDBRANCH   7  33
TORSDOF 8
ENDMDL
MODEL 5
REMARK VINA RESULT: -8.065461682      4.728      7.134
REMARK  8 active torsions:
REMARK  status: ('A' for Active; 'I' for Inactive)
REMARK    1  A    between atoms: C4_7  and  C5_8 
REMARK    2  A    between atoms: C9_18  and  C10_19 
REMARK    3  A    between atoms: C11_20  and  C12_21 
REMARK    4  A    between atoms: C12_21  and  O1_22 
REMARK    5  A    between atoms: C15_28  and  N7_29 
REMARK    6  A    between atoms: N7_29  and  C16_31 
REMARK    7  A    between atoms: C19_34  and  N8_35 
REMARK    8  A    between atoms: C22_38  and  N9_39 
ROOT
HETATM    1  C1  UNL     1      24.153 -34.635  -1.294  1.00  0.00     0.178 C 
HETATM    2  N1  UNL     1      22.837 -34.387  -1.902  1.00  0.00    -0.292 N 
HETATM    3  N2  UNL     1      21.669 -34.824  -1.463  1.00  0.00    -0.309 N 
ATOM      4  H2  UNL     1      21.547 -35.396  -0.628  1.00  0.00     0.186 HD
HETATM    5  C2  UNL     1      20.661 -34.416  -2.257  1.00  0.00     0.122 A 
HETATM    6  C3  UNL     1      21.221 -33.657  -3.291  1.00  0.00     0.027 A 
HETATM    7  C4  UNL     1      20.697 -32.997  -4.376  1.00  0.00     0.021 A 
HETATM    8  C14 UNL     1      21.562 -32.335  -5.210  1.00  0.00     0.104 A 
HETATM    9  N6  UNL     1      22.887 -32.354  -4.938  1.00  0.00    -0.349 N 
ATOM     10  H6  UNL     1      23.514 -31.856  -5.570  1.00  0.00     0.166 HD
HETATM   11  C15 UNL     1      23.424 -32.991  -3.885  1.00  0.00     0.135 A 
HETATM   12  C31 UNL     1      22.580 -33.676  -3.013  1.00  0.00     0.107 A 
ENDROOT
BRANCH  11  13
HETATM   13  N7  UNL     1      24.657 -33.015  -3.624  1.00  0.00    -0.341 N 
ATOM     14  H7  UNL     1      24.986 -33.814  -3.081  1.00  0.00     0.167 HD
BRANCH  13  15
HETATM   15  C16 UNL     1      25.642 -32.062  -3.995  1.00  0.00     0.033 A 
HETATM   16  C17 UNL     1      26.404 -32.240  -5.129  1.00  0.00     0.032 A 
HETATM   17  C18 UNL     1      27.375 -31.319  -5.524  1.00  0.00     0.031 A 
HETATM   18  C19 UNL     1      27.635 -30.174  -4.809  1.00  0.00     0.030 A 
HETATM   19  C29 UNL     1      26.849 -30.011  -3.657  1.00  0.00     0.031 A 
HETATM   20  C30 UNL     1      25.892 -30.920  -3.270  1.00  0.00     0.032 A 
BRANCH  18  21
HETATM   21  N8  UNL     1      28.604 -29.231  -5.174  1.00  0.00    -0.381 N 
HETATM   22  C20 UNL     1      30.002 -29.503  -5.241  1.00  0.00     0.125 C 
HETATM   23  C21 UNL     1      30.520 -29.446  -6.673  1.00  0.00     0.055 C 
HETATM   24  C22 UNL     1      29.734 -28.401  -7.452  1.00  0.00     0.226 C 
HETATM   25  C27 UNL     1      29.249 -27.317  -6.512  1.00  0.00     0.055 C 
HETATM   26  C28 UNL     1      28.206 -27.870  -5.532  1.00  0.00     0.125 C 
BRANCH  24  27
HETATM   27  N9  UNL     1      30.416 -27.873  -8.577  1.00  0.00     0.097 N 
HETATM   28  C23 UNL     1      30.191 -26.489  -8.845  1.00  0.00     0.299 C 
HETATM   29  C24 UNL     1      30.692 -26.215 -10.270  1.00  0.00     0.198 C 
HETATM   30  O2  UNL     1      32.076 -26.394 -10.226  1.00  0.00    -0.388 OA
HETATM   31  C25 UNL     1      32.393 -27.719  -9.935  1.00  0.00     0.198 C 
HETATM   32  C26 UNL     1      31.826 -28.146  -8.585  1.00  0.00     0.299 C 
ENDBRANCH  24  27
ENDBRANCH  18  21
ENDBRANCH  13  15
ENDBRANCH  11  13
BRANCH   7  33
HETATM   33  C5  UNL     1      19.263 -32.932  -4.549  1.00  0.00     0.061 A 
HETATM   34  N3  UNL     1      18.550 -31.986  -3.852  1.00  0.00    -0.351 N 
HETATM   35  C6  UNL     1      17.246 -31.824  -3.927  1.00  0.00     0.182 A 
ATOM     36  H3  UNL     1      19.069 -31.365  -3.231  1.00  0.00     0.166 HD
HETATM   37  N4  UNL     1      16.551 -32.622  -4.726  1.00  0.00    -0.338 N 
HETATM   38  C7  UNL     1      17.189 -33.574  -5.437  1.00  0.00     0.120 A 
ATOM     39  H4  UNL     1      15.539 -32.515  -4.802  1.00  0.00     0.168 HD
HETATM   40  N5  UNL     1      16.716 -34.490  -6.269  1.00  0.00    -0.350 N 
HETATM   41  C13 UNL     1      18.576 -33.759  -5.366  1.00  0.00     0.056 A 
HETATM   42  C8  UNL     1      17.672 -35.270  -6.754  1.00  0.00     0.111 A 
ATOM     43  H5  UNL     1      15.730 -34.585  -6.509  1.00  0.00     0.166 HD
HETATM   44  C9  UNL     1      18.870 -34.806  -6.177  1.00  0.00     0.049 A 
BRANCH  44  45
HETATM   45  C10 UNL     1      20.158 -35.411  -6.391  1.00  0.00    -0.062 C 
HETATM   46  C11 UNL     1      21.268 -35.883  -6.550  1.00  0.00    -0.075 C 
BRANCH  46  47
HETATM   47  C12 UNL     1      22.617 -36.449  -6.740  1.00  0.00     0.258 C 
BRANCH  47  48
HETATM   48  O1  UNL     1      23.554 -35.728  -5.973  1.00  0.00    -0.389 OA
ATOM     49  H1  UNL     1      24.400 -36.159  -6.006  1.00  0.00     0.210 HD
ENDBRANCH  47  48
ENDBRANCH  46  47
ENDBRANCH  44  45
ENDBRANCH   7  33
TORSDOF 8
ENDMDL
