MODEL 1
REMARK VINA RESULT: -8.019670021      0.000      0.000
REMARK  5 active torsions:
REMARK  status: ('A' for Active; 'I' for Inactive)
REMARK    1  A    between atoms: N1_1  and  S1_4 
REMARK    2  A    between atoms: S1_4  and  C1_7 
REMARK    3  A    between atoms: C4_10  and  N2_11 
REMARK    4  A    between atoms: C18_32  and  C19_33 
REMARK    5  A    between atoms: C25_39  and  O5_40 
ROOT
HETATM    1  N2  UNL     1      24.753 -33.411  -5.623  1.00  0.00    -0.229 N 
HETATM    2  C5  UNL     1      24.929 -34.133  -6.815  1.00  0.00     0.342 A 
HETATM    3  O3  UNL     1      25.560 -33.724  -7.836  1.00  0.00    -0.246 OA
HETATM    4  N3  UNL     1      24.264 -35.396  -6.643  1.00  0.00    -0.219 N 
HETATM    5  C6  UNL     1      24.267 -36.311  -7.727  1.00  0.00     0.283 C 
HETATM    6  O4  UNL     1      24.941 -36.052  -8.771  1.00  0.00    -0.265 OA
HETATM    7  C7  UNL     1      23.520 -37.576  -7.723  1.00  0.00     0.128 A 
HETATM    8  N4  UNL     1      23.966 -38.431  -8.667  1.00  0.00    -0.349 N 
ATOM      9  H4  UNL     1      24.734 -38.137  -9.270  1.00  0.00     0.166 HD
HETATM   10  C8  UNL     1      23.427 -39.675  -8.845  1.00  0.00     0.043 A 
HETATM   11  C9  UNL     1      23.986 -40.497  -9.893  1.00  0.00    -0.009 A 
HETATM   12  C10 UNL     1      25.002 -40.025 -10.691  1.00  0.00     0.013 A 
HETATM   13  C11 UNL     1      25.545 -40.823 -11.702  1.00  0.00     0.001 A 
HETATM   14  C12 UNL     1      25.030 -42.086 -11.870  1.00  0.00     0.000 A 
HETATM   15  C13 UNL     1      24.018 -42.591 -11.095  1.00  0.00     0.001 A 
HETATM   16  C14 UNL     1      23.509 -41.766 -10.102  1.00  0.00     0.013 A 
HETATM   17  C15 UNL     1      22.394 -40.024  -8.011  1.00  0.00     0.033 A 
HETATM   18  C16 UNL     1      21.882 -39.213  -7.028  1.00  0.00     0.034 A 
HETATM   19  C17 UNL     1      22.474 -37.964  -6.900  1.00  0.00     0.061 A 
HETATM   20  N5  UNL     1      21.919 -37.147  -5.883  1.00  0.00    -0.374 N 
ATOM     21  H5  UNL     1      21.021 -37.505  -5.557  1.00  0.00     0.160 HD
HETATM   22  C18 UNL     1      22.296 -35.954  -5.202  1.00  0.00     0.181 C 
HETATM   23  C25 UNL     1      23.700 -35.516  -5.353  1.00  0.00     0.253 A 
HETATM   24  C26 UNL     1      23.993 -34.210  -4.729  1.00  0.00     0.291 A 
HETATM   25  O6  UNL     1      23.665 -33.788  -3.593  1.00  0.00    -0.267 OA
ENDROOT
BRANCH   1  26
HETATM   26  C4  UNL     1      25.286 -32.097  -5.407  1.00  0.00     0.047 A 
HETATM   27  C3  UNL     1      24.691 -31.007  -6.018  1.00  0.00     0.032 A 
HETATM   28  C2  UNL     1      25.160 -29.717  -5.840  1.00  0.00     0.027 A 
HETATM   29  C1  UNL     1      26.251 -29.476  -5.036  1.00  0.00     0.079 A 
HETATM   30  C28 UNL     1      26.855 -30.548  -4.420  1.00  0.00     0.027 A 
HETATM   31  C27 UNL     1      26.376 -31.851  -4.605  1.00  0.00     0.032 A 
BRANCH  29  32
HETATM   32  S1  UNL     1      26.833 -27.836  -4.811  1.00  0.00     0.256 S 
HETATM   33  O1  UNL     1      28.251 -27.739  -5.273  1.00  0.00    -0.201 OA
HETATM   34  O2  UNL     1      26.034 -26.857  -5.634  1.00  0.00    -0.201 OA
BRANCH  32  35
HETATM   35  N1  UNL     1      26.740 -27.333  -3.163  1.00  0.00    -0.324 N 
ATOM     36  H12 UNL     1      27.528 -27.320  -2.515  1.00  0.00     0.169 HD
ATOM     37  H11 UNL     1      25.781 -27.057  -2.951  1.00  0.00     0.169 HD
ENDBRANCH  32  35
ENDBRANCH  29  32
ENDBRANCH   1  26
BRANCH  23  38
HETATM   38  O5  UNL     1      24.541 -36.426  -4.643  1.00  0.00    -0.361 OA
ATOM     39  H5  UNL     1      24.848 -35.952  -3.879  1.00  0.00     0.213 HD
ENDBRANCH  23  38
BRANCH  22  40
HETATM   40  C19 UNL     1      21.282 -34.919  -5.504  1.00  0.00    -0.030 A 
HETATM   41  C20 UNL     1      20.391 -34.516  -4.523  1.00  0.00     0.009 A 
HETATM   42  C21 UNL     1      19.436 -33.553  -4.744  1.00  0.00     0.001 A 
HETATM   43  C22 UNL     1      19.336 -32.952  -5.971  1.00  0.00     0.000 A 
HETATM   44  C23 UNL     1      20.188 -33.313  -6.968  1.00  0.00     0.001 A 
HETATM   45  C24 UNL     1      21.137 -34.283  -6.718  1.00  0.00     0.009 A 
ENDBRANCH  22  40
TORSDOF 5
ENDMDL
MODEL 2
REMARK VINA RESULT: -7.955825546      0.599      1.021
REMARK  5 active torsions:
REMARK  status: ('A' for Active; 'I' for Inactive)
REMARK    1  A    between atoms: N1_1  and  S1_4 
REMARK    2  A    between atoms: S1_4  and  C1_7 
REMARK    3  A    between atoms: C4_10  and  N2_11 
REMARK    4  A    between atoms: C18_32  and  C19_33 
REMARK    5  A    between atoms: C25_39  and  O5_40 
ROOT
HETATM    1  N2  UNL     1      24.737 -33.455  -5.490  1.00  0.00    -0.229 N 
HETATM    2  C5  UNL     1      24.922 -34.164  -6.689  1.00  0.00     0.342 A 
HETATM    3  O3  UNL     1      25.572 -33.750  -7.696  1.00  0.00    -0.246 OA
HETATM    4  N3  UNL     1      24.242 -35.423  -6.542  1.00  0.00    -0.219 N 
HETATM    5  C6  UNL     1      24.251 -36.325  -7.636  1.00  0.00     0.283 C 
HETATM    6  O4  UNL     1      24.942 -36.061  -8.667  1.00  0.00    -0.265 OA
HETATM    7  C7  UNL     1      23.491 -37.583  -7.658  1.00  0.00     0.128 A 
HETATM    8  N4  UNL     1      23.942 -38.430  -8.605  1.00  0.00    -0.349 N 
ATOM      9  H4  UNL     1      24.722 -38.138  -9.194  1.00  0.00     0.166 HD
HETATM   10  C8  UNL     1      23.393 -39.667  -8.806  1.00  0.00     0.043 A 
HETATM   11  C9  UNL     1      23.959 -40.482  -9.856  1.00  0.00    -0.009 A 
HETATM   12  C10 UNL     1      24.991 -40.011 -10.634  1.00  0.00     0.013 A 
HETATM   13  C11 UNL     1      25.539 -40.803 -11.647  1.00  0.00     0.001 A 
HETATM   14  C12 UNL     1      25.014 -42.058 -11.837  1.00  0.00     0.000 A 
HETATM   15  C13 UNL     1      23.986 -42.562 -11.082  1.00  0.00     0.001 A 
HETATM   16  C14 UNL     1      23.472 -41.744 -10.087  1.00  0.00     0.013 A 
HETATM   17  C15 UNL     1      22.345 -40.015  -7.991  1.00  0.00     0.033 A 
HETATM   18  C16 UNL     1      21.827 -39.210  -7.006  1.00  0.00     0.034 A 
HETATM   19  C17 UNL     1      22.431 -37.969  -6.855  1.00  0.00     0.061 A 
HETATM   20  N5  UNL     1      21.869 -37.159  -5.836  1.00  0.00    -0.374 N 
ATOM     21  H5  UNL     1      20.963 -37.511  -5.526  1.00  0.00     0.160 HD
HETATM   22  C18 UNL     1      22.248 -35.978  -5.134  1.00  0.00     0.181 C 
HETATM   23  C25 UNL     1      23.659 -35.552  -5.261  1.00  0.00     0.253 A 
HETATM   24  C26 UNL     1      23.957 -34.257  -4.617  1.00  0.00     0.291 A 
HETATM   25  O6  UNL     1      23.617 -33.845  -3.481  1.00  0.00    -0.267 OA
ENDROOT
BRANCH   1  26
HETATM   26  C4  UNL     1      25.280 -32.150  -5.251  1.00  0.00     0.047 A 
HETATM   27  C3  UNL     1      24.710 -31.047  -5.864  1.00  0.00     0.032 A 
HETATM   28  C2  UNL     1      25.190 -29.765  -5.665  1.00  0.00     0.027 A 
HETATM   29  C1  UNL     1      26.267 -29.543  -4.836  1.00  0.00     0.079 A 
HETATM   30  C28 UNL     1      26.846 -30.628  -4.219  1.00  0.00     0.027 A 
HETATM   31  C27 UNL     1      26.356 -31.924  -4.425  1.00  0.00     0.032 A 
BRANCH  29  32
HETATM   32  S1  UNL     1      26.863 -27.912  -4.583  1.00  0.00     0.256 S 
HETATM   33  O1  UNL     1      26.067 -26.954  -5.409  1.00  0.00    -0.201 OA
HETATM   34  O2  UNL     1      26.702 -27.492  -3.144  1.00  0.00    -0.201 OA
BRANCH  32  35
HETATM   35  N1  UNL     1      28.532 -27.759  -4.991  1.00  0.00    -0.324 N 
ATOM     36  H12 UNL     1      28.916 -27.900  -5.926  1.00  0.00     0.169 HD
ATOM     37  H11 UNL     1      29.060 -27.510  -4.154  1.00  0.00     0.169 HD
ENDBRANCH  32  35
ENDBRANCH  29  32
ENDBRANCH   1  26
BRANCH  23  38
HETATM   38  O5  UNL     1      24.481 -36.479  -4.550  1.00  0.00    -0.361 OA
ATOM     39  H5  UNL     1      25.282 -36.011  -4.346  1.00  0.00     0.213 HD
ENDBRANCH  23  38
BRANCH  22  40
HETATM   40  C19 UNL     1      21.250 -34.929  -5.439  1.00  0.00    -0.030 A 
HETATM   41  C20 UNL     1      21.165 -34.404  -6.718  1.00  0.00     0.009 A 
HETATM   42  C21 UNL     1      20.252 -33.437  -7.060  1.00  0.00     0.001 A 
HETATM   43  C22 UNL     1      19.379 -32.953  -6.122  1.00  0.00     0.000 A 
HETATM   44  C23 UNL     1      19.421 -33.435  -4.851  1.00  0.00     0.001 A 
HETATM   45  C24 UNL     1      20.349 -34.407  -4.536  1.00  0.00     0.009 A 
ENDBRANCH  22  40
TORSDOF 5
ENDMDL
MODEL 3
REMARK VINA RESULT: -7.839569294      4.644      7.377
REMARK  5 active torsions:
REMARK  status: ('A' for Active; 'I' for Inactive)
REMARK    1  A    between atoms: N1_1  and  S1_4 
REMARK    2  A    between atoms: S1_4  and  C1_7 
REMARK    3  A    between atoms: C4_10  and  N2_11 
REMARK    4  A    between atoms: C18_32  and  C19_33 
REMARK    5  A    between atoms: C25_39  and  O5_40 
ROOT
HETATM    1  N2  UNL     1      23.378 -33.072  -5.302  1.00  0.00    -0.229 N 
HETATM    2  C5  UNL     1      24.231 -34.171  -5.108  1.00  0.00     0.342 A 
HETATM    3  O3  UNL     1      23.904 -35.269  -4.565  1.00  0.00    -0.246 OA
HETATM    4  N3  UNL     1      25.516 -33.804  -5.640  1.00  0.00    -0.219 N 
HETATM    5  C6  UNL     1      26.577 -34.740  -5.542  1.00  0.00     0.283 C 
HETATM    6  O4  UNL     1      26.351 -35.907  -5.098  1.00  0.00    -0.265 OA
HETATM    7  C7  UNL     1      27.962 -34.440  -5.930  1.00  0.00     0.128 A 
HETATM    8  N4  UNL     1      28.692 -35.561  -6.107  1.00  0.00    -0.349 N 
ATOM      9  H4  UNL     1      28.246 -36.465  -5.958  1.00  0.00     0.166 HD
HETATM   10  C8  UNL     1      30.008 -35.529  -6.480  1.00  0.00     0.043 A 
HETATM   11  C9  UNL     1      30.685 -36.796  -6.632  1.00  0.00    -0.009 A 
HETATM   12  C10 UNL     1      30.030 -37.979  -6.383  1.00  0.00     0.013 A 
HETATM   13  C11 UNL     1      30.686 -39.204  -6.534  1.00  0.00     0.001 A 
HETATM   14  C12 UNL     1      32.000 -39.184  -6.936  1.00  0.00     0.000 A 
HETATM   15  C13 UNL     1      32.686 -38.026  -7.194  1.00  0.00     0.001 A 
HETATM   16  C14 UNL     1      31.997 -36.833  -7.033  1.00  0.00     0.013 A 
HETATM   17  C15 UNL     1      30.565 -34.289  -6.668  1.00  0.00     0.033 A 
HETATM   18  C16 UNL     1      29.892 -33.103  -6.507  1.00  0.00     0.034 A 
HETATM   19  C17 UNL     1      28.560 -33.206  -6.128  1.00  0.00     0.061 A 
HETATM   20  N5  UNL     1      27.895 -31.965  -5.963  1.00  0.00    -0.374 N 
ATOM     21  H5  UNL     1      28.551 -31.185  -5.917  1.00  0.00     0.160 HD
HETATM   22  C18 UNL     1      26.543 -31.531  -5.843  1.00  0.00     0.181 C 
HETATM   23  C25 UNL     1      25.494 -32.509  -6.205  1.00  0.00     0.253 A 
HETATM   24  C26 UNL     1      24.118 -32.043  -5.939  1.00  0.00     0.291 A 
HETATM   25  O6  UNL     1      23.599 -30.930  -6.202  1.00  0.00    -0.267 OA
ENDROOT
BRANCH   1  26
HETATM   26  C4  UNL     1      22.000 -33.060  -4.907  1.00  0.00     0.047 A 
HETATM   27  C3  UNL     1      21.016 -32.837  -5.855  1.00  0.00     0.032 A 
HETATM   28  C2  UNL     1      19.671 -32.821  -5.530  1.00  0.00     0.027 A 
HETATM   29  C1  UNL     1      19.264 -33.030  -4.231  1.00  0.00     0.079 A 
HETATM   30  C28 UNL     1      20.228 -33.253  -3.275  1.00  0.00     0.027 A 
HETATM   31  C27 UNL     1      21.588 -33.268  -3.611  1.00  0.00     0.032 A 
BRANCH  29  32
HETATM   32  S1  UNL     1      17.555 -33.015  -3.830  1.00  0.00     0.256 S 
HETATM   33  O1  UNL     1      16.842 -34.049  -4.639  1.00  0.00    -0.201 OA
HETATM   34  O2  UNL     1      17.335 -33.361  -2.379  1.00  0.00    -0.201 OA
BRANCH  32  35
HETATM   35  N1  UNL     1      16.834 -31.475  -4.117  1.00  0.00    -0.324 N 
ATOM     36  H12 UNL     1      15.922 -31.186  -3.761  1.00  0.00     0.169 HD
ATOM     37  H11 UNL     1      17.462 -30.912  -4.691  1.00  0.00     0.169 HD
ENDBRANCH  32  35
ENDBRANCH  29  32
ENDBRANCH   1  26
BRANCH  23  38
HETATM   38  O5  UNL     1      25.518 -32.701  -7.620  1.00  0.00    -0.361 OA
ATOM     39  H5  UNL     1      25.123 -33.551  -7.773  1.00  0.00     0.213 HD
ENDBRANCH  23  38
BRANCH  22  40
HETATM   40  C19 UNL     1      26.383 -30.908  -4.511  1.00  0.00    -0.030 A 
HETATM   41  C20 UNL     1      26.487 -29.533  -4.372  1.00  0.00     0.009 A 
HETATM   42  C21 UNL     1      26.338 -28.899  -3.163  1.00  0.00     0.001 A 
HETATM   43  C22 UNL     1      26.077 -29.628  -2.033  1.00  0.00     0.000 A 
HETATM   44  C23 UNL     1      25.964 -30.981  -2.114  1.00  0.00     0.001 A 
HETATM   45  C24 UNL     1      26.119 -31.590  -3.343  1.00  0.00     0.009 A 
ENDBRANCH  22  40
TORSDOF 5
ENDMDL
MODEL 4
REMARK VINA RESULT: -7.690456179      0.626      1.018
REMARK  5 active torsions:
REMARK  status: ('A' for Active; 'I' for Inactive)
REMARK    1  A    between atoms: N1_1  and  S1_4 
REMARK    2  A    between atoms: S1_4  and  C1_7 
REMARK    3  A    between atoms: C4_10  and  N2_11 
REMARK    4  A    between atoms: C18_32  and  C19_33 
REMARK    5  A    between atoms: C25_39  and  O5_40 
ROOT
HETATM    1  N2  UNL     1      24.814 -33.312  -5.772  1.00  0.00    -0.229 N 
HETATM    2  C5  UNL     1      24.998 -34.063  -6.946  1.00  0.00     0.342 A 
HETATM    3  O3  UNL     1      25.623 -33.673  -7.978  1.00  0.00    -0.246 OA
HETATM    4  N3  UNL     1      24.350 -35.330  -6.739  1.00  0.00    -0.219 N 
HETATM    5  C6  UNL     1      24.364 -36.274  -7.798  1.00  0.00     0.283 C 
HETATM    6  O4  UNL     1      25.033 -36.033  -8.849  1.00  0.00    -0.265 OA
HETATM    7  C7  UNL     1      23.634 -37.548  -7.760  1.00  0.00     0.128 A 
HETATM    8  N4  UNL     1      24.090 -38.421  -8.681  1.00  0.00    -0.349 N 
ATOM      9  H4  UNL     1      24.854 -38.134  -9.293  1.00  0.00     0.166 HD
HETATM   10  C8  UNL     1      23.568 -39.677  -8.826  1.00  0.00     0.043 A 
HETATM   11  C9  UNL     1      24.137 -40.519  -9.852  1.00  0.00    -0.009 A 
HETATM   12  C10 UNL     1      25.146 -40.055 -10.664  1.00  0.00     0.013 A 
HETATM   13  C11 UNL     1      25.698 -40.872 -11.654  1.00  0.00     0.001 A 
HETATM   14  C12 UNL     1      25.200 -42.146 -11.788  1.00  0.00     0.000 A 
HETATM   15  C13 UNL     1      24.195 -42.644 -10.998  1.00  0.00     0.001 A 
HETATM   16  C14 UNL     1      23.677 -41.799 -10.028  1.00  0.00     0.013 A 
HETATM   17  C15 UNL     1      22.540 -40.017  -7.982  1.00  0.00     0.033 A 
HETATM   18  C16 UNL     1      22.018 -39.187  -7.020  1.00  0.00     0.034 A 
HETATM   19  C17 UNL     1      22.594 -37.927  -6.926  1.00  0.00     0.061 A 
HETATM   20  N5  UNL     1      22.029 -37.092  -5.930  1.00  0.00    -0.374 N 
ATOM     21  H5  UNL     1      21.136 -37.452  -5.593  1.00  0.00     0.160 HD
HETATM   22  C18 UNL     1      22.390 -35.876  -5.281  1.00  0.00     0.181 C 
HETATM   23  C25 UNL     1      23.789 -35.423  -5.446  1.00  0.00     0.253 A 
HETATM   24  C26 UNL     1      24.065 -34.097  -4.857  1.00  0.00     0.291 A 
HETATM   25  O6  UNL     1      23.733 -33.650  -3.732  1.00  0.00    -0.267 OA
ENDROOT
BRANCH   1  26
HETATM   26  C4  UNL     1      25.329 -31.987  -5.592  1.00  0.00     0.047 A 
HETATM   27  C3  UNL     1      26.581 -31.807  -5.029  1.00  0.00     0.032 A 
HETATM   28  C2  UNL     1      27.128 -30.551  -4.836  1.00  0.00     0.027 A 
HETATM   29  C1  UNL     1      26.432 -29.422  -5.206  1.00  0.00     0.079 A 
HETATM   30  C28 UNL     1      25.186 -29.581  -5.768  1.00  0.00     0.027 A 
HETATM   31  C27 UNL     1      24.637 -30.856  -5.959  1.00  0.00     0.032 A 
BRANCH  29  32
HETATM   32  S1  UNL     1      27.139 -27.834  -4.966  1.00  0.00     0.256 S 
HETATM   33  O1  UNL     1      26.508 -26.857  -5.905  1.00  0.00    -0.201 OA
HETATM   34  O2  UNL     1      26.881 -27.331  -3.568  1.00  0.00    -0.201 OA
BRANCH  32  35
HETATM   35  N1  UNL     1      28.845 -27.837  -5.215  1.00  0.00    -0.324 N 
ATOM     36  H12 UNL     1      29.502 -28.447  -4.726  1.00  0.00     0.169 HD
ATOM     37  H11 UNL     1      29.083 -27.139  -5.921  1.00  0.00     0.169 HD
ENDBRANCH  32  35
ENDBRANCH  29  32
ENDBRANCH   1  26
BRANCH  23  38
HETATM   38  O5  UNL     1      24.643 -36.303  -4.713  1.00  0.00    -0.361 OA
ATOM     39  H5  UNL     1      25.477 -36.292  -5.167  1.00  0.00     0.213 HD
ENDBRANCH  23  38
BRANCH  22  40
HETATM   40  C19 UNL     1      21.363 -34.863  -5.609  1.00  0.00    -0.030 A 
HETATM   41  C20 UNL     1      20.435 -34.484  -4.653  1.00  0.00     0.009 A 
HETATM   42  C21 UNL     1      19.465 -33.542  -4.899  1.00  0.00     0.001 A 
HETATM   43  C22 UNL     1      19.388 -32.939  -6.126  1.00  0.00     0.000 A 
HETATM   44  C23 UNL     1      20.276 -33.275  -7.100  1.00  0.00     0.001 A 
HETATM   45  C24 UNL     1      21.239 -34.225  -6.825  1.00  0.00     0.009 A 
ENDBRANCH  22  40
TORSDOF 5
ENDMDL
MODEL 5
REMARK VINA RESULT: -7.575523660      4.336      6.215
REMARK  5 active torsions:
REMARK  status: ('A' for Active; 'I' for Inactive)
REMARK    1  A    between atoms: N1_1  and  S1_4 
REMARK    2  A    between atoms: S1_4  and  C1_7 
REMARK    3  A    between atoms: C4_10  and  N2_11 
REMARK    4  A    between atoms: C18_32  and  C19_33 
REMARK    5  A    between atoms: C25_39  and  O5_40 
ROOT
HETATM    1  N2  UNL     1      19.609 -33.389  -5.684  1.00  0.00    -0.229 N 
HETATM    2  C5  UNL     1      19.272 -34.490  -6.490  1.00  0.00     0.342 A 
HETATM    3  O3  UNL     1      18.107 -34.972  -6.627  1.00  0.00    -0.246 OA
HETATM    4  N3  UNL     1      20.487 -34.943  -7.111  1.00  0.00    -0.219 N 
HETATM    5  C6  UNL     1      20.426 -36.076  -7.963  1.00  0.00     0.283 C 
HETATM    6  O4  UNL     1      19.302 -36.591  -8.247  1.00  0.00    -0.265 OA
HETATM    7  C7  UNL     1      21.611 -36.712  -8.554  1.00  0.00     0.128 A 
HETATM    8  N4  UNL     1      21.293 -37.503  -9.599  1.00  0.00    -0.349 N 
ATOM      9  H4  UNL     1      20.312 -37.591  -9.867  1.00  0.00     0.166 HD
HETATM   10  C8  UNL     1      22.234 -38.192 -10.313  1.00  0.00     0.043 A 
HETATM   11  C9  UNL     1      21.769 -39.012 -11.407  1.00  0.00    -0.009 A 
HETATM   12  C10 UNL     1      20.427 -39.109 -11.693  1.00  0.00     0.013 A 
HETATM   13  C11 UNL     1      19.979 -39.901 -12.754  1.00  0.00     0.001 A 
HETATM   14  C12 UNL     1      20.920 -40.574 -13.496  1.00  0.00     0.000 A 
HETATM   15  C13 UNL     1      22.266 -40.502 -13.242  1.00  0.00     0.001 A 
HETATM   16  C14 UNL     1      22.667 -39.704 -12.180  1.00  0.00     0.013 A 
HETATM   17  C15 UNL     1      23.539 -38.044  -9.914  1.00  0.00     0.033 A 
HETATM   18  C16 UNL     1      23.945 -37.260  -8.862  1.00  0.00     0.034 A 
HETATM   19  C17 UNL     1      22.939 -36.587  -8.181  1.00  0.00     0.061 A 
HETATM   20  N5  UNL     1      23.389 -35.793  -7.096  1.00  0.00    -0.374 N 
ATOM     21  H5  UNL     1      24.349 -36.017  -6.833  1.00  0.00     0.160 HD
HETATM   22  C18 UNL     1      22.841 -34.762  -6.279  1.00  0.00     0.181 C 
HETATM   23  C25 UNL     1      21.588 -34.133  -6.752  1.00  0.00     0.253 A 
HETATM   24  C26 UNL     1      21.005 -33.165  -5.801  1.00  0.00     0.291 A 
HETATM   25  O6  UNL     1      21.577 -32.253  -5.156  1.00  0.00    -0.267 OA
ENDROOT
BRANCH   1  26
HETATM   26  C4  UNL     1      18.654 -32.655  -4.907  1.00  0.00     0.047 A 
HETATM   27  C3  UNL     1      17.717 -31.859  -5.543  1.00  0.00     0.032 A 
HETATM   28  C2  UNL     1      16.769 -31.134  -4.843  1.00  0.00     0.027 A 
HETATM   29  C1  UNL     1      16.729 -31.184  -3.468  1.00  0.00     0.079 A 
HETATM   30  C28 UNL     1      17.652 -31.970  -2.818  1.00  0.00     0.027 A 
HETATM   31  C27 UNL     1      18.609 -32.701  -3.533  1.00  0.00     0.032 A 
BRANCH  29  32
HETATM   32  S1  UNL     1      15.517 -30.267  -2.589  1.00  0.00     0.256 S 
HETATM   33  O1  UNL     1      14.523 -31.203  -1.982  1.00  0.00    -0.201 OA
HETATM   34  O2  UNL     1      16.140 -29.491  -1.456  1.00  0.00    -0.201 OA
BRANCH  32  35
HETATM   35  N1  UNL     1      14.691 -29.142  -3.603  1.00  0.00    -0.324 N 
ATOM     36  H12 UNL     1      13.842 -28.641  -3.341  1.00  0.00     0.169 HD
ATOM     37  H11 UNL     1      15.187 -29.065  -4.491  1.00  0.00     0.169 HD
ENDBRANCH  32  35
ENDBRANCH  29  32
ENDBRANCH   1  26
BRANCH  23  38
HETATM   38  O5  UNL     1      21.881 -33.341  -7.904  1.00  0.00    -0.361 OA
ATOM     39  H5  UNL     1      21.098 -32.831  -8.074  1.00  0.00     0.213 HD
ENDBRANCH  23  38
BRANCH  22  40
HETATM   40  C19 UNL     1      22.804 -35.258  -4.886  1.00  0.00    -0.030 A 
HETATM   41  C20 UNL     1      23.565 -34.637  -3.909  1.00  0.00     0.009 A 
HETATM   42  C21 UNL     1      23.563 -35.048  -2.599  1.00  0.00     0.001 A 
HETATM   43  C22 UNL     1      22.789 -36.110  -2.213  1.00  0.00     0.000 A 
HETATM   44  C23 UNL     1      22.023 -36.755  -3.133  1.00  0.00     0.001 A 
HETATM   45  C24 UNL     1      22.045 -36.320  -4.443  1.00  0.00     0.009 A 
ENDBRANCH  22  40
TORSDOF 5
ENDMDL
