MODEL 1
REMARK VINA RESULT: -9.784376491      0.000      0.000
REMARK  6 active torsions:
REMARK  status: ('A' for Active; 'I' for Inactive)
REMARK    1  A    between atoms: C5_9  and  C6_10 
REMARK    2  A    between atoms: C8_16  and  C9_17 
REMARK       I    between atoms: C9_17  and  N5_19 
REMARK    3  A    between atoms: C17_29  and  C18_30 
REMARK    4  A    between atoms: N10_42  and  C24_43 
REMARK    5  A    between atoms: C24_43  and  C25_44 
REMARK    6  A    between atoms: N11_49  and  O2_50 
ROOT
HETATM    1  C6  UNL     1      23.107 -35.922  -1.483  1.00  0.00     0.059 A 
HETATM    2  C7  UNL     1      23.107 -36.277  -0.117  1.00  0.00     0.124 A 
HETATM    3  N3  UNL     1      24.336 -36.662   0.163  1.00  0.00    -0.310 N 
ATOM      4  H3  UNL     1      24.646 -36.978   1.083  1.00  0.00     0.186 HD
HETATM    5  N4  UNL     1      25.113 -36.587  -0.894  1.00  0.00    -0.295 N 
ATOM      6  H4  UNL     1      26.102 -36.834  -0.916  1.00  0.00     0.187 HD
HETATM    7  C8  UNL     1      24.392 -36.127  -1.958  1.00  0.00     0.132 A 
ENDROOT
BRANCH   1   8
HETATM    8  C5  UNL     1      21.917 -35.418  -2.179  1.00  0.00     0.121 A 
HETATM    9  N2  UNL     1      20.804 -34.965  -1.618  1.00  0.00    -0.349 N 
HETATM   10  C4  UNL     1      19.753 -34.537  -2.313  1.00  0.00     0.123 A 
ATOM     11  H2  UNL     1      20.751 -34.945  -0.600  1.00  0.00     0.167 HD
HETATM   12  C3  UNL     1      19.823 -34.563  -3.695  1.00  0.00     0.094 A 
HETATM   13  N1  UNL     1      18.978 -34.233  -4.680  1.00  0.00    -0.342 N 
HETATM   14  C23 UNL     1      20.970 -35.029  -4.283  1.00  0.00     0.139 A 
HETATM   15  C2  UNL     1      19.551 -34.472  -5.871  1.00  0.00     0.081 A 
ATOM     16  H1  UNL     1      18.040 -33.855  -4.545  1.00  0.00     0.167 HD
HETATM   17  C1  UNL     1      18.898 -34.228  -7.216  1.00  0.00     0.089 C 
HETATM   18  N10 UNL     1      20.772 -34.960  -5.634  1.00  0.00    -0.315 N 
HETATM   19  N9  UNL     1      22.001 -35.450  -3.548  1.00  0.00    -0.326 N 
ATOM     20  H9  UNL     1      22.848 -35.794  -4.001  1.00  0.00     0.169 HD
BRANCH  18  21
HETATM   21  C24 UNL     1      21.767 -35.402  -6.569  1.00  0.00     0.191 C 
BRANCH  21  22
HETATM   22  C25 UNL     1      21.571 -36.745  -7.149  1.00  0.00     0.058 A 
HETATM   23  C26 UNL     1      20.917 -36.998  -8.333  1.00  0.00     0.029 A 
HETATM   24  C27 UNL     1      20.757 -38.260  -8.883  1.00  0.00     0.003 A 
HETATM   25  C28 UNL     1      21.277 -39.344  -8.220  1.00  0.00     0.020 A 
HETATM   26  C29 UNL     1      21.932 -39.098  -7.037  1.00  0.00     0.123 A 
HETATM   27  N11 UNL     1      22.068 -37.865  -6.537  1.00  0.00    -0.239 N 
BRANCH  27  28
HETATM   28  O2  UNL     1      22.766 -37.705  -5.361  1.00  0.00    -0.283 OA
ATOM     29  H2  UNL     1      23.309 -38.426  -5.062  1.00  0.00     0.245 HD
ENDBRANCH  27  28
ENDBRANCH  21  22
ENDBRANCH  18  21
ENDBRANCH   1   8
BRANCH   7  30
HETATM   30  C9  UNL     1      24.955 -35.873  -3.278  1.00  0.00     0.279 C 
HETATM   31  O1  UNL     1      25.140 -36.851  -4.091  1.00  0.00    -0.265 OA
HETATM   32  N5  UNL     1      25.331 -34.596  -3.767  1.00  0.00    -0.286 N 
HETATM   33  C10 UNL     1      26.127 -34.445  -4.992  1.00  0.00     0.048 A 
HETATM   34  C22 UNL     1      25.073 -33.236  -3.370  1.00  0.00     0.235 C 
HETATM   35  C11 UNL     1      27.046 -35.287  -5.579  1.00  0.00     0.030 A 
HETATM   36  C15 UNL     1      25.854 -33.230  -5.573  1.00  0.00    -0.005 A 
HETATM   37  C12 UNL     1      27.712 -34.945  -6.751  1.00  0.00     0.002 A 
HETATM   38  C13 UNL     1      27.452 -33.733  -7.346  1.00  0.00     0.001 A 
HETATM   39  C14 UNL     1      26.532 -32.901  -6.749  1.00  0.00     0.012 A 
HETATM   40  C16 UNL     1      24.846 -32.559  -4.746  1.00  0.00     0.162 C 
HETATM   41  N6  UNL     1      24.941 -31.140  -4.677  1.00  0.00    -0.365 N 
HETATM   42  C17 UNL     1      26.036 -30.541  -4.004  1.00  0.00     0.100 C 
ATOM     43  H6  UNL     1      24.225 -30.557  -5.111  1.00  0.00     0.161 HD
HETATM   44  N7  UNL     1      26.624 -31.275  -3.112  1.00  0.00    -0.291 N 
HETATM   45  N8  UNL     1      26.226 -32.563  -2.821  1.00  0.00    -0.309 N 
ATOM     46  H7  UNL     1      27.416 -30.883  -2.602  1.00  0.00     0.188 HD
ATOM     47  H8  UNL     1      26.798 -33.087  -2.159  1.00  0.00     0.182 HD
BRANCH  42  48
HETATM   48  C18 UNL     1      26.454 -29.158  -4.323  1.00  0.00     0.009 C 
HETATM   49  C19 UNL     1      27.850 -29.226  -4.913  1.00  0.00     0.023 C 
HETATM   50  C20 UNL     1      26.372 -28.247  -3.143  1.00  0.00     0.023 C 
HETATM   51  C21 UNL     1      25.555 -28.597  -5.412  1.00  0.00     0.023 C 
ENDBRANCH  42  48
ENDBRANCH   7  30
TORSDOF 6
ENDMDL
MODEL 2
REMARK VINA RESULT: -9.432342981      2.319      4.758
REMARK  6 active torsions:
REMARK  status: ('A' for Active; 'I' for Inactive)
REMARK    1  A    between atoms: C5_9  and  C6_10 
REMARK    2  A    between atoms: C8_16  and  C9_17 
REMARK       I    between atoms: C9_17  and  N5_19 
REMARK    3  A    between atoms: C17_29  and  C18_30 
REMARK    4  A    between atoms: N10_42  and  C24_43 
REMARK    5  A    between atoms: C24_43  and  C25_44 
REMARK    6  A    between atoms: N11_49  and  O2_50 
ROOT
HETATM    1  C6  UNL     1      18.218 -32.908  -4.038  1.00  0.00     0.059 A 
HETATM    2  C7  UNL     1      17.449 -31.734  -3.880  1.00  0.00     0.124 A 
HETATM    3  N3  UNL     1      17.764 -31.244  -2.697  1.00  0.00    -0.310 N 
ATOM      4  H3  UNL     1      17.366 -30.391  -2.303  1.00  0.00     0.186 HD
HETATM    5  N4  UNL     1      18.657 -31.994  -2.092  1.00  0.00    -0.295 N 
ATOM      6  H4  UNL     1      19.048 -31.812  -1.168  1.00  0.00     0.187 HD
HETATM    7  C8  UNL     1      18.980 -33.054  -2.889  1.00  0.00     0.132 A 
ENDROOT
BRANCH   1   8
HETATM    8  C5  UNL     1      18.169 -33.741  -5.245  1.00  0.00     0.121 A 
HETATM    9  N2  UNL     1      17.099 -34.340  -5.750  1.00  0.00    -0.349 N 
HETATM   10  C4  UNL     1      17.129 -35.098  -6.843  1.00  0.00     0.123 A 
ATOM     11  H2  UNL     1      16.205 -34.211  -5.276  1.00  0.00     0.167 HD
HETATM   12  C3  UNL     1      18.341 -35.273  -7.489  1.00  0.00     0.094 A 
HETATM   13  N1  UNL     1      18.732 -35.958  -8.571  1.00  0.00    -0.342 N 
HETATM   14  C23 UNL     1      19.451 -34.658  -6.973  1.00  0.00     0.139 A 
HETATM   15  C2  UNL     1      20.052 -35.797  -8.759  1.00  0.00     0.081 A 
ATOM     16  H1  UNL     1      18.119 -36.518  -9.164  1.00  0.00     0.167 HD
HETATM   17  C1  UNL     1      20.855 -36.426  -9.879  1.00  0.00     0.089 C 
HETATM   18  N10 UNL     1      20.498 -35.001  -7.783  1.00  0.00    -0.315 N 
HETATM   19  N9  UNL     1      19.377 -33.906  -5.874  1.00  0.00    -0.326 N 
ATOM     20  H9  UNL     1      20.213 -33.455  -5.503  1.00  0.00     0.169 HD
BRANCH  18  21
HETATM   21  C24 UNL     1      21.837 -34.555  -7.520  1.00  0.00     0.191 C 
BRANCH  21  22
HETATM   22  C25 UNL     1      22.815 -35.597  -7.151  1.00  0.00     0.058 A 
HETATM   23  C26 UNL     1      22.485 -36.851  -6.687  1.00  0.00     0.029 A 
HETATM   24  C27 UNL     1      23.407 -37.833  -6.366  1.00  0.00     0.003 A 
HETATM   25  C28 UNL     1      24.745 -37.560  -6.511  1.00  0.00     0.020 A 
HETATM   26  C29 UNL     1      25.081 -36.311  -6.973  1.00  0.00     0.123 A 
HETATM   27  N11 UNL     1      24.162 -35.388  -7.275  1.00  0.00    -0.239 N 
BRANCH  27  28
HETATM   28  O2  UNL     1      24.586 -34.171  -7.762  1.00  0.00    -0.283 OA
ATOM     29  H2  UNL     1      24.352 -33.941  -8.654  1.00  0.00     0.245 HD
ENDBRANCH  27  28
ENDBRANCH  21  22
ENDBRANCH  18  21
ENDBRANCH   1   8
BRANCH   7  30
HETATM   30  C9  UNL     1      19.978 -34.059  -2.549  1.00  0.00     0.279 C 
HETATM   31  O1  UNL     1      19.620 -35.136  -1.945  1.00  0.00    -0.265 OA
HETATM   32  N5  UNL     1      21.364 -33.954  -2.835  1.00  0.00    -0.286 N 
HETATM   33  C10 UNL     1      22.344 -34.870  -2.238  1.00  0.00     0.048 A 
HETATM   34  C22 UNL     1      22.167 -33.123  -3.694  1.00  0.00     0.235 C 
HETATM   35  C11 UNL     1      22.323 -35.561  -1.046  1.00  0.00     0.030 A 
HETATM   36  C15 UNL     1      23.433 -34.986  -3.069  1.00  0.00    -0.005 A 
HETATM   37  C12 UNL     1      23.376 -36.380  -0.653  1.00  0.00     0.002 A 
HETATM   38  C13 UNL     1      24.473 -36.507  -1.471  1.00  0.00     0.001 A 
HETATM   39  C14 UNL     1      24.483 -35.811  -2.658  1.00  0.00     0.012 A 
HETATM   40  C16 UNL     1      23.178 -34.158  -4.252  1.00  0.00     0.162 C 
HETATM   41  N6  UNL     1      24.321 -33.542  -4.837  1.00  0.00    -0.365 N 
HETATM   42  C17 UNL     1      24.998 -32.511  -4.138  1.00  0.00     0.100 C 
ATOM     43  H6  UNL     1      24.650 -33.841  -5.755  1.00  0.00     0.161 HD
HETATM   44  N7  UNL     1      24.302 -31.874  -3.249  1.00  0.00    -0.291 N 
HETATM   45  N8  UNL     1      22.981 -32.168  -2.983  1.00  0.00    -0.309 N 
ATOM     46  H7  UNL     1      24.750 -31.124  -2.724  1.00  0.00     0.188 HD
ATOM     47  H8  UNL     1      22.540 -31.664  -2.214  1.00  0.00     0.182 HD
BRANCH  42  48
HETATM   48  C18 UNL     1      26.416 -32.204  -4.433  1.00  0.00     0.009 C 
HETATM   49  C19 UNL     1      27.212 -33.479  -4.230  1.00  0.00     0.023 C 
HETATM   50  C20 UNL     1      26.937 -31.065  -3.621  1.00  0.00     0.023 C 
HETATM   51  C21 UNL     1      26.559 -31.837  -5.900  1.00  0.00     0.023 C 
ENDBRANCH  42  48
ENDBRANCH   7  30
TORSDOF 6
ENDMDL
MODEL 3
REMARK VINA RESULT: -9.330371831      2.762      4.965
REMARK  6 active torsions:
REMARK  status: ('A' for Active; 'I' for Inactive)
REMARK    1  A    between atoms: C5_9  and  C6_10 
REMARK    2  A    between atoms: C8_16  and  C9_17 
REMARK       I    between atoms: C9_17  and  N5_19 
REMARK    3  A    between atoms: C17_29  and  C18_30 
REMARK    4  A    between atoms: N10_42  and  C24_43 
REMARK    5  A    between atoms: C24_43  and  C25_44 
REMARK    6  A    between atoms: N11_49  and  O2_50 
ROOT
HETATM    1  C6  UNL     1      24.775 -33.980  -4.152  1.00  0.00     0.059 A 
HETATM    2  C7  UNL     1      25.111 -34.337  -2.828  1.00  0.00     0.124 A 
HETATM    3  N3  UNL     1      26.011 -33.461  -2.428  1.00  0.00    -0.310 N 
ATOM      4  H3  UNL     1      26.445 -33.462  -1.504  1.00  0.00     0.186 HD
HETATM    5  N4  UNL     1      26.278 -32.586  -3.370  1.00  0.00    -0.295 N 
ATOM      6  H4  UNL     1      26.944 -31.817  -3.288  1.00  0.00     0.187 HD
HETATM    7  C8  UNL     1      25.529 -32.864  -4.477  1.00  0.00     0.132 A 
ENDROOT
BRANCH   1   8
HETATM    8  C5  UNL     1      23.781 -34.707  -4.950  1.00  0.00     0.121 A 
HETATM    9  N2  UNL     1      23.942 -35.888  -5.531  1.00  0.00    -0.349 N 
HETATM   10  C4  UNL     1      22.999 -36.485  -6.257  1.00  0.00     0.123 A 
ATOM     11  H2  UNL     1      24.836 -36.365  -5.415  1.00  0.00     0.167 HD
HETATM   12  C3  UNL     1      21.785 -35.839  -6.416  1.00  0.00     0.094 A 
HETATM   13  N1  UNL     1      20.652 -36.128  -7.069  1.00  0.00    -0.342 N 
HETATM   14  C23 UNL     1      21.610 -34.618  -5.818  1.00  0.00     0.139 A 
HETATM   15  C2  UNL     1      19.766 -35.132  -6.905  1.00  0.00     0.081 A 
ATOM     16  H1  UNL     1      20.488 -36.977  -7.610  1.00  0.00     0.167 HD
HETATM   17  C1  UNL     1      18.374 -35.098  -7.502  1.00  0.00     0.089 C 
HETATM   18  N10 UNL     1      20.347 -34.204  -6.139  1.00  0.00    -0.315 N 
HETATM   19  N9  UNL     1      22.583 -34.056  -5.098  1.00  0.00    -0.326 N 
ATOM     20  H9  UNL     1      22.436 -33.146  -4.660  1.00  0.00     0.169 HD
BRANCH  18  21
HETATM   21  C24 UNL     1      19.832 -32.937  -5.704  1.00  0.00     0.191 C 
BRANCH  21  22
HETATM   22  C25 UNL     1      19.006 -32.951  -4.481  1.00  0.00     0.058 A 
HETATM   23  C26 UNL     1      19.358 -33.575  -3.305  1.00  0.00     0.029 A 
HETATM   24  C27 UNL     1      18.588 -33.564  -2.153  1.00  0.00     0.003 A 
HETATM   25  C28 UNL     1      17.390 -32.893  -2.163  1.00  0.00     0.020 A 
HETATM   26  C29 UNL     1      17.033 -32.268  -3.333  1.00  0.00     0.123 A 
HETATM   27  N11 UNL     1      17.803 -32.299  -4.425  1.00  0.00    -0.239 N 
BRANCH  27  28
HETATM   28  O2  UNL     1      17.382 -31.619  -5.547  1.00  0.00    -0.283 OA
ATOM     29  H2  UNL     1      16.447 -31.528  -5.689  1.00  0.00     0.245 HD
ENDBRANCH  27  28
ENDBRANCH  21  22
ENDBRANCH  18  21
ENDBRANCH   1   8
BRANCH   7  30
HETATM   30  C9  UNL     1      25.538 -32.061  -5.693  1.00  0.00     0.279 C 
HETATM   31  O1  UNL     1      25.197 -32.594  -6.812  1.00  0.00    -0.265 OA
HETATM   32  N5  UNL     1      25.902 -30.692  -5.757  1.00  0.00    -0.286 N 
HETATM   33  C10 UNL     1      26.141 -30.019  -7.041  1.00  0.00     0.048 A 
HETATM   34  C22 UNL     1      26.076 -29.637  -4.793  1.00  0.00     0.235 C 
HETATM   35  C11 UNL     1      26.574 -30.514  -8.252  1.00  0.00     0.030 A 
HETATM   36  C15 UNL     1      25.875 -28.676  -6.914  1.00  0.00    -0.005 A 
HETATM   37  C12 UNL     1      26.752 -29.693  -9.360  1.00  0.00     0.002 A 
HETATM   38  C13 UNL     1      26.491 -28.347  -9.252  1.00  0.00     0.001 A 
HETATM   39  C14 UNL     1      26.060 -27.865  -8.036  1.00  0.00     0.012 A 
HETATM   40  C16 UNL     1      25.430 -28.440  -5.537  1.00  0.00     0.162 C 
HETATM   41  N6  UNL     1      25.795 -27.186  -4.972  1.00  0.00    -0.365 N 
HETATM   42  C17 UNL     1      27.157 -26.915  -4.683  1.00  0.00     0.100 C 
ATOM     43  H6  UNL     1      25.081 -26.484  -4.776  1.00  0.00     0.161 HD
HETATM   44  N7  UNL     1      27.918 -27.950  -4.512  1.00  0.00    -0.291 N 
HETATM   45  N8  UNL     1      27.452 -29.245  -4.602  1.00  0.00    -0.309 N 
ATOM     46  H7  UNL     1      28.905 -27.802  -4.301  1.00  0.00     0.188 HD
ATOM     47  H8  UNL     1      28.141 -29.993  -4.527  1.00  0.00     0.182 HD
BRANCH  42  48
HETATM   48  C18 UNL     1      27.648 -25.522  -4.588  1.00  0.00     0.009 C 
HETATM   49  C19 UNL     1      29.149 -25.549  -4.806  1.00  0.00     0.023 C 
HETATM   50  C20 UNL     1      27.264 -24.865  -3.304  1.00  0.00     0.023 C 
HETATM   51  C21 UNL     1      27.064 -24.703  -5.727  1.00  0.00     0.023 C 
ENDBRANCH  42  48
ENDBRANCH   7  30
TORSDOF 6
ENDMDL
MODEL 4
REMARK VINA RESULT: -9.319137745      1.626      3.266
REMARK  6 active torsions:
REMARK  status: ('A' for Active; 'I' for Inactive)
REMARK    1  A    between atoms: C5_9  and  C6_10 
REMARK    2  A    between atoms: C8_16  and  C9_17 
REMARK       I    between atoms: C9_17  and  N5_19 
REMARK    3  A    between atoms: C17_29  and  C18_30 
REMARK    4  A    between atoms: N10_42  and  C24_43 
REMARK    5  A    between atoms: C24_43  and  C25_44 
REMARK    6  A    between atoms: N11_49  and  O2_50 
ROOT
HETATM    1  C6  UNL     1      23.358 -35.044  -1.618  1.00  0.00     0.059 A 
HETATM    2  C7  UNL     1      23.150 -36.238  -0.893  1.00  0.00     0.124 A 
HETATM    3  N3  UNL     1      24.236 -36.423  -0.168  1.00  0.00    -0.310 N 
ATOM      4  H3  UNL     1      24.379 -37.210   0.465  1.00  0.00     0.186 HD
HETATM    5  N4  UNL     1      25.111 -35.462  -0.366  1.00  0.00    -0.295 N 
ATOM      6  H4  UNL     1      26.024 -35.396   0.085  1.00  0.00     0.187 HD
HETATM    7  C8  UNL     1      24.611 -34.567  -1.267  1.00  0.00     0.132 A 
ENDROOT
BRANCH   1   8
HETATM    8  C5  UNL     1      22.361 -34.480  -2.534  1.00  0.00     0.121 A 
HETATM    9  N2  UNL     1      21.330 -33.711  -2.207  1.00  0.00    -0.349 N 
HETATM   10  C4  UNL     1      20.451 -33.246  -3.090  1.00  0.00     0.123 A 
ATOM     11  H2  UNL     1      21.206 -33.464  -1.225  1.00  0.00     0.167 HD
HETATM   12  C3  UNL     1      20.619 -33.580  -4.424  1.00  0.00     0.094 A 
HETATM   13  N1  UNL     1      19.941 -33.310  -5.546  1.00  0.00    -0.342 N 
HETATM   14  C23 UNL     1      21.681 -34.373  -4.770  1.00  0.00     0.139 A 
HETATM   15  C2  UNL     1      20.538 -33.904  -6.592  1.00  0.00     0.081 A 
ATOM     16  H1  UNL     1      19.098 -32.738  -5.599  1.00  0.00     0.167 HD
HETATM   17  C1  UNL     1      20.056 -33.832  -8.027  1.00  0.00     0.089 C 
HETATM   18  N10 UNL     1      21.605 -34.557  -6.123  1.00  0.00    -0.315 N 
HETATM   19  N9  UNL     1      22.539 -34.819  -3.851  1.00  0.00    -0.326 N 
ATOM     20  H9  UNL     1      23.325 -35.409  -4.126  1.00  0.00     0.169 HD
BRANCH  18  21
HETATM   21  C24 UNL     1      22.551 -35.372  -6.831  1.00  0.00     0.191 C 
BRANCH  21  22
HETATM   22  C25 UNL     1      22.099 -36.726  -7.204  1.00  0.00     0.058 A 
HETATM   23  C26 UNL     1      21.524 -37.055  -8.411  1.00  0.00     0.029 A 
HETATM   24  C27 UNL     1      21.124 -38.333  -8.764  1.00  0.00     0.003 A 
HETATM   25  C28 UNL     1      21.301 -39.356  -7.865  1.00  0.00     0.020 A 
HETATM   26  C29 UNL     1      21.874 -39.035  -6.658  1.00  0.00     0.123 A 
HETATM   27  N11 UNL     1      22.250 -37.789  -6.353  1.00  0.00    -0.239 N 
BRANCH  27  28
HETATM   28  O2  UNL     1      22.845 -37.561  -5.132  1.00  0.00    -0.283 OA
ATOM     29  H2  UNL     1      23.335 -38.272  -4.734  1.00  0.00     0.245 HD
ENDBRANCH  27  28
ENDBRANCH  21  22
ENDBRANCH  18  21
ENDBRANCH   1   8
BRANCH   7  30
HETATM   30  C9  UNL     1      25.299 -33.350  -1.679  1.00  0.00     0.279 C 
HETATM   31  O1  UNL     1      25.447 -32.387  -0.841  1.00  0.00    -0.265 OA
HETATM   32  N5  UNL     1      25.841 -33.123  -2.970  1.00  0.00    -0.286 N 
HETATM   33  C10 UNL     1      26.283 -31.788  -3.394  1.00  0.00     0.048 A 
HETATM   34  C22 UNL     1      26.163 -33.954  -4.101  1.00  0.00     0.235 C 
HETATM   35  C11 UNL     1      25.864 -30.534  -3.006  1.00  0.00     0.030 A 
HETATM   36  C15 UNL     1      27.269 -31.909  -4.344  1.00  0.00    -0.005 A 
HETATM   37  C12 UNL     1      26.412 -29.377  -3.549  1.00  0.00     0.002 A 
HETATM   38  C13 UNL     1      27.398 -29.478  -4.501  1.00  0.00     0.001 A 
HETATM   39  C14 UNL     1      27.807 -30.737  -4.880  1.00  0.00     0.012 A 
HETATM   40  C16 UNL     1      27.514 -33.340  -4.549  1.00  0.00     0.162 C 
HETATM   41  N6  UNL     1      27.875 -33.726  -5.872  1.00  0.00    -0.365 N 
HETATM   42  C17 UNL     1      26.919 -33.638  -6.915  1.00  0.00     0.100 C 
ATOM     43  H6  UNL     1      28.818 -34.063  -6.068  1.00  0.00     0.161 HD
HETATM   44  N7  UNL     1      25.675 -33.661  -6.549  1.00  0.00    -0.291 N 
HETATM   45  N8  UNL     1      25.285 -33.762  -5.230  1.00  0.00    -0.309 N 
ATOM     46  H7  UNL     1      24.954 -33.601  -7.268  1.00  0.00     0.188 HD
ATOM     47  H8  UNL     1      24.286 -33.695  -5.036  1.00  0.00     0.182 HD
BRANCH  42  48
HETATM   48  C18 UNL     1      27.348 -33.531  -8.327  1.00  0.00     0.009 C 
HETATM   49  C19 UNL     1      26.668 -32.312  -8.922  1.00  0.00     0.023 C 
HETATM   50  C20 UNL     1      27.080 -34.776  -9.105  1.00  0.00     0.023 C 
HETATM   51  C21 UNL     1      28.842 -33.257  -8.381  1.00  0.00     0.023 C 
ENDBRANCH  42  48
ENDBRANCH   7  30
TORSDOF 6
ENDMDL
MODEL 5
REMARK VINA RESULT: -9.256959337      2.096      3.460
REMARK  6 active torsions:
REMARK  status: ('A' for Active; 'I' for Inactive)
REMARK    1  A    between atoms: C5_9  and  C6_10 
REMARK    2  A    between atoms: C8_16  and  C9_17 
REMARK       I    between atoms: C9_17  and  N5_19 
REMARK    3  A    between atoms: C17_29  and  C18_30 
REMARK    4  A    between atoms: N10_42  and  C24_43 
REMARK    5  A    between atoms: C24_43  and  C25_44 
REMARK    6  A    between atoms: N11_49  and  O2_50 
ROOT
HETATM    1  C6  UNL     1      23.376 -35.824  -3.221  1.00  0.00     0.059 A 
HETATM    2  C7  UNL     1      23.471 -37.184  -3.589  1.00  0.00     0.124 A 
HETATM    3  N3  UNL     1      24.759 -37.453  -3.673  1.00  0.00    -0.310 N 
ATOM      4  H3  UNL     1      25.142 -38.366  -3.921  1.00  0.00     0.186 HD
HETATM    5  N4  UNL     1      25.487 -36.395  -3.395  1.00  0.00    -0.295 N 
ATOM      6  H4  UNL     1      26.507 -36.366  -3.398  1.00  0.00     0.187 HD
HETATM    7  C8  UNL     1      24.670 -35.342  -3.103  1.00  0.00     0.132 A 
ENDROOT
BRANCH   1   8
HETATM    8  C5  UNL     1      22.096 -35.140  -3.005  1.00  0.00     0.121 A 
HETATM    9  N2  UNL     1      21.382 -35.132  -1.887  1.00  0.00    -0.349 N 
HETATM   10  C4  UNL     1      20.215 -34.503  -1.765  1.00  0.00     0.123 A 
ATOM     11  H2  UNL     1      21.747 -35.634  -1.078  1.00  0.00     0.167 HD
HETATM   12  C3  UNL     1      19.719 -33.819  -2.862  1.00  0.00     0.094 A 
HETATM   13  N1  UNL     1      18.608 -33.109  -3.095  1.00  0.00    -0.342 N 
HETATM   14  C23 UNL     1      20.451 -33.823  -4.021  1.00  0.00     0.139 A 
HETATM   15  C2  UNL     1      18.611 -32.662  -4.362  1.00  0.00     0.081 A 
ATOM     16  H1  UNL     1      17.870 -32.934  -2.413  1.00  0.00     0.167 HD
HETATM   17  C1  UNL     1      17.516 -31.828  -4.994  1.00  0.00     0.089 C 
HETATM   18  N10 UNL     1      19.738 -33.096  -4.934  1.00  0.00    -0.315 N 
HETATM   19  N9  UNL     1      21.616 -34.468  -4.100  1.00  0.00    -0.326 N 
ATOM     20  H9  UNL     1      22.148 -34.460  -4.970  1.00  0.00     0.169 HD
BRANCH  18  21
HETATM   21  C24 UNL     1      20.197 -32.916  -6.282  1.00  0.00     0.191 C 
BRANCH  21  22
HETATM   22  C25 UNL     1      20.248 -34.127  -7.124  1.00  0.00     0.058 A 
HETATM   23  C26 UNL     1      19.145 -34.829  -7.555  1.00  0.00     0.029 A 
HETATM   24  C27 UNL     1      19.200 -35.952  -8.365  1.00  0.00     0.003 A 
HETATM   25  C28 UNL     1      20.426 -36.414  -8.775  1.00  0.00     0.020 A 
HETATM   26  C29 UNL     1      21.531 -35.719  -8.349  1.00  0.00     0.123 A 
HETATM   27  N11 UNL     1      21.439 -34.638  -7.568  1.00  0.00    -0.239 N 
BRANCH  27  28
HETATM   28  O2  UNL     1      22.597 -33.982  -7.211  1.00  0.00    -0.283 OA
ATOM     29  H2  UNL     1      23.427 -34.390  -7.431  1.00  0.00     0.245 HD
ENDBRANCH  27  28
ENDBRANCH  21  22
ENDBRANCH  18  21
ENDBRANCH   1   8
BRANCH   7  30
HETATM   30  C9  UNL     1      25.146 -34.025  -2.701  1.00  0.00     0.279 C 
HETATM   31  O1  UNL     1      25.217 -33.726  -1.453  1.00  0.00    -0.265 OA
HETATM   32  N5  UNL     1      25.554 -33.002  -3.595  1.00  0.00    -0.286 N 
HETATM   33  C10 UNL     1      25.770 -31.623  -3.140  1.00  0.00     0.048 A 
HETATM   34  C22 UNL     1      25.906 -32.949  -4.990  1.00  0.00     0.235 C 
HETATM   35  C11 UNL     1      25.207 -30.919  -2.097  1.00  0.00     0.030 A 
HETATM   36  C15 UNL     1      26.690 -31.007  -3.954  1.00  0.00    -0.005 A 
HETATM   37  C12 UNL     1      25.543 -29.594  -1.839  1.00  0.00     0.002 A 
HETATM   38  C13 UNL     1      26.461 -28.962  -2.643  1.00  0.00     0.001 A 
HETATM   39  C14 UNL     1      27.016 -29.676  -3.682  1.00  0.00     0.012 A 
HETATM   40  C16 UNL     1      27.120 -31.986  -4.957  1.00  0.00     0.162 C 
HETATM   41  N6  UNL     1      27.434 -31.461  -6.243  1.00  0.00    -0.365 N 
HETATM   42  C17 UNL     1      26.401 -30.931  -7.058  1.00  0.00     0.100 C 
ATOM     43  H6  UNL     1      28.398 -31.465  -6.577  1.00  0.00     0.161 HD
HETATM   44  N7  UNL     1      25.204 -31.359  -6.806  1.00  0.00    -0.291 N 
HETATM   45  N8  UNL     1      24.930 -32.274  -5.811  1.00  0.00    -0.309 N 
ATOM     46  H7  UNL     1      24.430 -31.005  -7.369  1.00  0.00     0.188 HD
ATOM     47  H8  UNL     1      23.949 -32.492  -5.639  1.00  0.00     0.182 HD
BRANCH  42  48
HETATM   48  C18 UNL     1      26.706 -29.951  -8.123  1.00  0.00     0.009 C 
HETATM   49  C19 UNL     1      25.715 -28.810  -7.994  1.00  0.00     0.023 C 
HETATM   50  C20 UNL     1      26.704 -30.564  -9.484  1.00  0.00     0.023 C 
HETATM   51  C21 UNL     1      28.082 -29.353  -7.881  1.00  0.00     0.023 C 
ENDBRANCH  42  48
ENDBRANCH   7  30
TORSDOF 6
ENDMDL
