MODEL 1
REMARK VINA RESULT: -7.638311538      0.000      0.000
REMARK  5 active torsions:
REMARK  status: ('A' for Active; 'I' for Inactive)
REMARK    1  A    between atoms: N1_1  and  C1_5 
REMARK    2  A    between atoms: C1_5  and  C2_6 
REMARK    3  A    between atoms: C2_6  and  N2_7 
REMARK    4  A    between atoms: N2_7  and  C3_9 
REMARK    5  A    between atoms: N5_19  and  N6_20 
ROOT
HETATM    1  C3  UNL     1      -8.687  31.917  19.677  1.00  0.00     0.682 A 
HETATM    2  N3  UNL     1      -8.186  32.548  18.598  1.00  0.00    -0.154 N 
ATOM      3  H3  UNL     1      -7.426  33.222  18.697  1.00  0.00     0.187 HD
HETATM    4  C4  UNL     1      -8.703  32.273  17.385  1.00  0.00     0.290 A 
HETATM    5  O1  UNL     1      -8.263  32.844  16.332  1.00  0.00    -0.265 OA
HETATM    6  C5  UNL     1      -9.732  31.371  17.193  1.00  0.00     0.152 A 
HETATM    7  N4  UNL     1     -10.424  30.914  16.134  1.00  0.00    -0.299 N 
ATOM      8  H4  UNL     1     -10.282  31.199  15.164  1.00  0.00     0.171 HD
HETATM    9  C6  UNL     1     -11.333  30.019  16.563  1.00  0.00     0.347 A 
HETATM   10  O2  UNL     1     -12.174  29.369  15.865  1.00  0.00    -0.245 OA
HETATM   11  N5  UNL     1     -11.206  29.919  17.895  1.00  0.00    -0.192 N 
HETATM   12  C7  UNL     1     -10.221  30.743  18.325  1.00  0.00     0.179 A 
HETATM   13  N7  UNL     1      -9.687  31.035  19.520  1.00  0.00    -0.172 N 
ATOM     14  H7  UNL     1     -10.057  30.567  20.347  1.00  0.00     0.186 HD
ENDROOT
BRANCH   1  15
HETATM   15  N2  UNL     1      -8.196  32.174  20.848  1.00  0.00    -0.224 N 
ATOM     16  H2  UNL     1      -8.236  31.455  21.569  1.00  0.00     0.177 HD
BRANCH  15  17
HETATM   17  C2  UNL     1      -7.590  33.452  21.166  1.00  0.00     0.165 C 
BRANCH  17  18
HETATM   18  C1  UNL     1      -6.886  33.260  22.514  1.00  0.00     0.249 C 
BRANCH  18  19
HETATM   19  N1  UNL     1      -5.908  32.189  22.290  1.00  0.00    -0.078 N 
ATOM     20  H13 UNL     1      -6.044  31.683  21.414  1.00  0.00     0.274 HD
ATOM     21  H12 UNL     1      -4.967  32.526  22.087  1.00  0.00     0.274 HD
ATOM     22  H11 UNL     1      -5.963  31.597  23.119  1.00  0.00     0.274 HD
ENDBRANCH  18  19
ENDBRANCH  17  18
ENDBRANCH  15  17
ENDBRANCH   1  15
BRANCH  11  23
HETATM   23  N6  UNL     1     -11.952  29.101  18.763  1.00  0.00    -0.333 N 
ATOM     24  H62 UNL     1     -12.091  29.320  19.750  1.00  0.00     0.177 HD
ATOM     25  H61 UNL     1     -12.428  28.229  18.532  1.00  0.00     0.177 HD
ENDBRANCH  11  23
TORSDOF 5
ENDMDL
MODEL 2
REMARK VINA RESULT: -7.488705346      1.961      2.750
REMARK  5 active torsions:
REMARK  status: ('A' for Active; 'I' for Inactive)
REMARK    1  A    between atoms: N1_1  and  C1_5 
REMARK    2  A    between atoms: C1_5  and  C2_6 
REMARK    3  A    between atoms: C2_6  and  N2_7 
REMARK    4  A    between atoms: N2_7  and  C3_9 
REMARK    5  A    between atoms: N5_19  and  N6_20 
ROOT
HETATM    1  C3  UNL     1      -8.819  31.109  19.309  1.00  0.00     0.682 A 
HETATM    2  N3  UNL     1      -8.998  29.794  19.537  1.00  0.00    -0.154 N 
ATOM      3  H3  UNL     1      -8.800  29.395  20.456  1.00  0.00     0.187 HD
HETATM    4  C4  UNL     1      -9.441  29.014  18.533  1.00  0.00     0.290 A 
HETATM    5  O1  UNL     1      -9.627  27.763  18.698  1.00  0.00    -0.265 OA
HETATM    6  C5  UNL     1      -9.722  29.501  17.271  1.00  0.00     0.152 A 
HETATM    7  N4  UNL     1     -10.163  28.974  16.114  1.00  0.00    -0.299 N 
ATOM      8  H4  UNL     1     -10.394  27.993  15.959  1.00  0.00     0.171 HD
HETATM    9  C6  UNL     1     -10.251  29.955  15.196  1.00  0.00     0.347 A 
HETATM   10  O2  UNL     1     -10.626  29.856  13.985  1.00  0.00    -0.245 OA
HETATM   11  N5  UNL     1      -9.862  31.096  15.785  1.00  0.00    -0.192 N 
HETATM   12  C7  UNL     1      -9.527  30.857  17.074  1.00  0.00     0.179 A 
HETATM   13  N7  UNL     1      -9.084  31.610  18.092  1.00  0.00    -0.172 N 
ATOM     14  H7  UNL     1      -8.942  32.608  17.935  1.00  0.00     0.186 HD
ENDROOT
BRANCH   1  15
HETATM   15  N2  UNL     1      -8.392  31.868  20.269  1.00  0.00    -0.224 N 
ATOM     16  H2  UNL     1      -8.301  31.476  21.206  1.00  0.00     0.177 HD
BRANCH  15  17
HETATM   17  C2  UNL     1      -8.040  33.258  20.054  1.00  0.00     0.165 C 
BRANCH  17  18
HETATM   18  C1  UNL     1      -7.346  33.720  21.340  1.00  0.00     0.249 C 
BRANCH  18  19
HETATM   19  N1  UNL     1      -7.917  32.890  22.407  1.00  0.00    -0.078 N 
ATOM     20  H13 UNL     1      -8.935  32.831  22.382  1.00  0.00     0.274 HD
ATOM     21  H12 UNL     1      -7.738  31.892  22.294  1.00  0.00     0.274 HD
ATOM     22  H11 UNL     1      -7.550  33.279  23.276  1.00  0.00     0.274 HD
ENDBRANCH  18  19
ENDBRANCH  17  18
ENDBRANCH  15  17
ENDBRANCH   1  15
BRANCH  11  23
HETATM   23  N6  UNL     1      -9.795  32.375  15.201  1.00  0.00    -0.333 N 
ATOM     24  H62 UNL     1      -9.276  33.149  15.618  1.00  0.00     0.177 HD
ATOM     25  H61 UNL     1     -10.231  32.680  14.331  1.00  0.00     0.177 HD
ENDBRANCH  11  23
TORSDOF 5
ENDMDL
MODEL 3
REMARK VINA RESULT: -7.455104367      1.072      1.183
REMARK  5 active torsions:
REMARK  status: ('A' for Active; 'I' for Inactive)
REMARK    1  A    between atoms: N1_1  and  C1_5 
REMARK    2  A    between atoms: C1_5  and  C2_6 
REMARK    3  A    between atoms: C2_6  and  N2_7 
REMARK    4  A    between atoms: N2_7  and  C3_9 
REMARK    5  A    between atoms: N5_19  and  N6_20 
ROOT
HETATM    1  C3  UNL     1      -8.539  32.487  18.358  1.00  0.00     0.682 A 
HETATM    2  N3  UNL     1      -8.180  32.845  17.111  1.00  0.00    -0.154 N 
ATOM      3  H3  UNL     1      -7.418  33.507  16.960  1.00  0.00     0.187 HD
HETATM    4  C4  UNL     1      -8.845  32.315  16.065  1.00  0.00     0.290 A 
HETATM    5  O1  UNL     1      -8.543  32.623  14.864  1.00  0.00    -0.265 OA
HETATM    6  C5  UNL     1      -9.884  31.417  16.212  1.00  0.00     0.152 A 
HETATM    7  N4  UNL     1     -10.700  30.749  15.378  1.00  0.00    -0.299 N 
ATOM      8  H4  UNL     1     -10.683  30.803  14.359  1.00  0.00     0.171 HD
HETATM    9  C6  UNL     1     -11.544  29.995  16.107  1.00  0.00     0.347 A 
HETATM   10  O2  UNL     1     -12.462  29.223  15.685  1.00  0.00    -0.245 OA
HETATM   11  N5  UNL     1     -11.250  30.195  17.401  1.00  0.00    -0.192 N 
HETATM   12  C7  UNL     1     -10.224  31.072  17.508  1.00  0.00     0.179 A 
HETATM   13  N7  UNL     1      -9.546  31.615  18.530  1.00  0.00    -0.172 N 
ATOM     14  H7  UNL     1      -9.806  31.354  19.481  1.00  0.00     0.186 HD
ENDROOT
BRANCH   1  15
HETATM   15  N2  UNL     1      -7.907  32.990  19.370  1.00  0.00    -0.224 N 
ATOM     16  H2  UNL     1      -7.187  33.694  19.203  1.00  0.00     0.177 HD
BRANCH  15  17
HETATM   17  C2  UNL     1      -8.188  32.586  20.734  1.00  0.00     0.165 C 
BRANCH  17  18
HETATM   18  C1  UNL     1      -7.375  33.529  21.628  1.00  0.00     0.249 C 
BRANCH  18  19
HETATM   19  N1  UNL     1      -7.543  33.009  22.991  1.00  0.00    -0.078 N 
ATOM     20  H13 UNL     1      -6.802  32.372  23.283  1.00  0.00     0.274 HD
ATOM     21  H12 UNL     1      -7.394  33.707  23.719  1.00  0.00     0.274 HD
ATOM     22  H11 UNL     1      -8.474  32.591  23.006  1.00  0.00     0.274 HD
ENDBRANCH  18  19
ENDBRANCH  17  18
ENDBRANCH  15  17
ENDBRANCH   1  15
BRANCH  11  23
HETATM   23  N6  UNL     1     -11.877  29.612  18.517  1.00  0.00    -0.333 N 
ATOM     24  H62 UNL     1     -11.842  28.611  18.714  1.00  0.00     0.177 HD
ATOM     25  H61 UNL     1     -12.420  30.087  19.239  1.00  0.00     0.177 HD
ENDBRANCH  11  23
TORSDOF 5
ENDMDL
MODEL 4
REMARK VINA RESULT: -7.440708770      1.531      1.716
REMARK  5 active torsions:
REMARK  status: ('A' for Active; 'I' for Inactive)
REMARK    1  A    between atoms: N1_1  and  C1_5 
REMARK    2  A    between atoms: C1_5  and  C2_6 
REMARK    3  A    between atoms: C2_6  and  N2_7 
REMARK    4  A    between atoms: N2_7  and  C3_9 
REMARK    5  A    between atoms: N5_19  and  N6_20 
ROOT
HETATM    1  C3  UNL     1      -8.377  32.502  18.761  1.00  0.00     0.682 A 
HETATM    2  N3  UNL     1      -7.835  33.396  17.913  1.00  0.00    -0.154 N 
ATOM      3  H3  UNL     1      -7.264  34.165  18.265  1.00  0.00     0.187 HD
HETATM    4  C4  UNL     1      -8.059  33.259  16.591  1.00  0.00     0.290 A 
HETATM    5  O1  UNL     1      -7.568  34.080  15.747  1.00  0.00    -0.265 OA
HETATM    6  C5  UNL     1      -8.825  32.240  16.061  1.00  0.00     0.152 A 
HETATM    7  N4  UNL     1      -9.205  31.867  14.825  1.00  0.00    -0.299 N 
ATOM      8  H4  UNL     1      -8.956  32.343  13.958  1.00  0.00     0.171 HD
HETATM    9  C6  UNL     1      -9.969  30.762  14.920  1.00  0.00     0.347 A 
HETATM   10  O2  UNL     1     -10.516  30.111  13.976  1.00  0.00    -0.245 OA
HETATM   11  N5  UNL     1     -10.063  30.446  16.221  1.00  0.00    -0.192 N 
HETATM   12  C7  UNL     1      -9.365  31.339  16.962  1.00  0.00     0.179 A 
HETATM   13  N7  UNL     1      -9.126  31.500  18.272  1.00  0.00    -0.172 N 
ATOM     14  H7  UNL     1      -9.531  30.831  18.927  1.00  0.00     0.186 HD
ENDROOT
BRANCH   1  15
HETATM   15  N2  UNL     1      -8.168  32.625  20.033  1.00  0.00    -0.224 N 
ATOM     16  H2  UNL     1      -8.447  31.866  20.655  1.00  0.00     0.177 HD
BRANCH  15  17
HETATM   17  C2  UNL     1      -7.548  33.806  20.602  1.00  0.00     0.165 C 
BRANCH  17  18
HETATM   18  C1  UNL     1      -6.908  33.352  21.918  1.00  0.00     0.249 C 
BRANCH  18  19
HETATM   19  N1  UNL     1      -7.986  32.692  22.665  1.00  0.00    -0.078 N 
ATOM     20  H13 UNL     1      -8.858  32.610  22.143  1.00  0.00     0.274 HD
ATOM     21  H12 UNL     1      -7.837  31.693  22.805  1.00  0.00     0.274 HD
ATOM     22  H11 UNL     1      -8.075  33.221  23.533  1.00  0.00     0.274 HD
ENDBRANCH  18  19
ENDBRANCH  17  18
ENDBRANCH  15  17
ENDBRANCH   1  15
BRANCH  11  23
HETATM   23  N6  UNL     1     -10.764  29.365  16.786  1.00  0.00    -0.333 N 
ATOM     24  H62 UNL     1     -11.303  28.701  16.229  1.00  0.00     0.177 HD
ATOM     25  H61 UNL     1     -10.822  29.115  17.773  1.00  0.00     0.177 HD
ENDBRANCH  11  23
TORSDOF 5
ENDMDL
MODEL 5
REMARK VINA RESULT: -7.371830394      1.935      2.336
REMARK  5 active torsions:
REMARK  status: ('A' for Active; 'I' for Inactive)
REMARK    1  A    between atoms: N1_1  and  C1_5 
REMARK    2  A    between atoms: C1_5  and  C2_6 
REMARK    3  A    between atoms: C2_6  and  N2_7 
REMARK    4  A    between atoms: N2_7  and  C3_9 
REMARK    5  A    between atoms: N5_19  and  N6_20 
ROOT
HETATM    1  C3  UNL     1      -9.148  31.610  19.435  1.00  0.00     0.682 A 
HETATM    2  N3  UNL     1      -8.703  30.344  19.553  1.00  0.00    -0.154 N 
ATOM      3  H3  UNL     1      -7.962  30.114  20.216  1.00  0.00     0.187 HD
HETATM    4  C4  UNL     1      -9.253  29.387  18.781  1.00  0.00     0.290 A 
HETATM    5  O1  UNL     1      -8.866  28.173  18.855  1.00  0.00    -0.265 OA
HETATM    6  C5  UNL     1     -10.257  29.642  17.867  1.00  0.00     0.152 A 
HETATM    7  N4  UNL     1     -10.969  28.909  16.993  1.00  0.00    -0.299 N 
ATOM      8  H4  UNL     1     -10.870  27.905  16.840  1.00  0.00     0.171 HD
HETATM    9  C6  UNL     1     -11.834  29.717  16.351  1.00  0.00     0.347 A 
HETATM   10  O2  UNL     1     -12.676  29.399  15.453  1.00  0.00    -0.245 OA
HETATM   11  N5  UNL     1     -11.659  30.958  16.831  1.00  0.00    -0.192 N 
HETATM   12  C7  UNL     1     -10.689  30.953  17.774  1.00  0.00     0.179 A 
HETATM   13  N7  UNL     1     -10.123  31.887  18.555  1.00  0.00    -0.172 N 
ATOM     14  H7  UNL     1     -10.449  32.850  18.476  1.00  0.00     0.186 HD
ENDROOT
BRANCH   1  15
HETATM   15  N2  UNL     1      -8.626  32.538  20.173  1.00  0.00    -0.224 N 
ATOM     16  H2  UNL     1      -8.749  32.492  21.185  1.00  0.00     0.177 HD
BRANCH  15  17
HETATM   17  C2  UNL     1      -7.873  33.640  19.608  1.00  0.00     0.165 C 
BRANCH  17  18
HETATM   18  C1  UNL     1      -7.127  34.285  20.780  1.00  0.00     0.249 C 
BRANCH  18  19
HETATM   19  N1  UNL     1      -7.664  33.638  21.983  1.00  0.00    -0.078 N 
ATOM     20  H13 UNL     1      -7.837  32.639  21.871  1.00  0.00     0.274 HD
ATOM     21  H12 UNL     1      -6.989  33.556  22.743  1.00  0.00     0.274 HD
ATOM     22  H11 UNL     1      -8.497  34.174  22.228  1.00  0.00     0.274 HD
ENDBRANCH  18  19
ENDBRANCH  17  18
ENDBRANCH  15  17
ENDBRANCH   1  15
BRANCH  11  23
HETATM   23  N6  UNL     1     -12.350  32.123  16.449  1.00  0.00    -0.333 N 
ATOM     24  H62 UNL     1     -13.011  32.603  17.060  1.00  0.00     0.177 HD
ATOM     25  H61 UNL     1     -12.283  32.616  15.558  1.00  0.00     0.177 HD
ENDBRANCH  11  23
TORSDOF 5
ENDMDL
