MODEL 1
REMARK VINA RESULT: -7.953532285      0.000      0.000
REMARK  3 active torsions:
REMARK  status: ('A' for Active; 'I' for Inactive)
REMARK    1  A    between atoms: N1_1  and  N2_4 
REMARK    2  A    between atoms: N4_8  and  N5_9 
REMARK    3  A    between atoms: N6_11  and  C3_13 
ROOT
HETATM    1  N5  UNL     1      -7.180  33.451  18.804  1.00  0.00    -0.227 N 
ATOM      2  H5  UNL     1      -6.865  33.557  17.840  1.00  0.00     0.209 HD
HETATM    3  N6  UNL     1      -8.126  32.637  19.037  1.00  0.00    -0.279 N 
ATOM      4  H6  UNL     1      -8.477  32.494  19.984  1.00  0.00     0.189 HD
ENDROOT
BRANCH   3   5
HETATM    5  C3  UNL     1      -8.679  31.933  17.936  1.00  0.00     0.133 A 
HETATM    6  C4  UNL     1      -8.715  32.482  16.654  1.00  0.00     0.129 A 
HETATM    7  N7  UNL     1      -9.255  31.747  15.671  1.00  0.00    -0.316 N 
HETATM    8  C5  UNL     1      -9.747  30.532  15.897  1.00  0.00     0.327 A 
ATOM      9  H7  UNL     1      -9.290  32.130  14.726  1.00  0.00     0.170 HD
HETATM   10  O1  UNL     1     -10.261  29.819  14.990  1.00  0.00    -0.247 OA
HETATM   11  N8  UNL     1      -9.728  29.965  17.140  1.00  0.00    -0.274 N 
HETATM   12  C6  UNL     1      -9.198  30.661  18.151  1.00  0.00     0.279 A 
ATOM     13  H8  UNL     1     -10.109  29.032  17.293  1.00  0.00     0.173 HD
HETATM   14  O2  UNL     1      -9.155  30.185  19.315  1.00  0.00    -0.265 OA
ENDBRANCH   3   5
BRANCH   1  15
HETATM   15  N4  UNL     1      -6.548  34.205  19.786  1.00  0.00    -0.204 N 
HETATM   16  N2  UNL     1      -7.236  35.071  20.644  1.00  0.00    -0.034 NA
HETATM   17  N3  UNL     1      -6.279  36.022  20.965  1.00  0.00    -0.122 NA
HETATM   18  C1  UNL     1      -5.075  35.216  21.231  1.00  0.00     0.155 C 
HETATM   19  C2  UNL     1      -5.128  34.231  20.084  1.00  0.00     0.186 C 
BRANCH  16  20
HETATM   20  N1  UNL     1      -7.715  34.373  21.741  1.00  0.00    -0.329 NA
ATOM     21  H12 UNL     1      -8.417  33.694  21.445  1.00  0.00     0.174 HD
ATOM     22  H11 UNL     1      -7.010  33.792  22.196  1.00  0.00     0.174 HD
ENDBRANCH  16  20
ENDBRANCH   1  15
TORSDOF 3
ENDMDL
MODEL 2
REMARK VINA RESULT: -7.934968628      1.271      1.285
REMARK  3 active torsions:
REMARK  status: ('A' for Active; 'I' for Inactive)
REMARK    1  A    between atoms: N1_1  and  N2_4 
REMARK    2  A    between atoms: N4_8  and  N5_9 
REMARK    3  A    between atoms: N6_11  and  C3_13 
ROOT
HETATM    1  N5  UNL     1      -8.296  33.477  19.025  1.00  0.00    -0.227 N 
ATOM      2  H5  UNL     1      -9.235  33.865  19.114  1.00  0.00     0.209 HD
HETATM    3  N6  UNL     1      -8.128  32.494  18.240  1.00  0.00    -0.279 N 
ATOM      4  H6  UNL     1      -7.209  32.070  18.116  1.00  0.00     0.189 HD
ENDROOT
BRANCH   3   5
HETATM    5  C3  UNL     1      -9.262  32.004  17.541  1.00  0.00     0.133 A 
HETATM    6  C4  UNL     1      -9.315  31.985  16.147  1.00  0.00     0.129 A 
HETATM    7  N7  UNL     1     -10.425  31.505  15.567  1.00  0.00    -0.316 N 
HETATM    8  C5  UNL     1     -11.451  31.058  16.287  1.00  0.00     0.327 A 
ATOM      9  H7  UNL     1     -10.484  31.482  14.549  1.00  0.00     0.170 HD
HETATM   10  O1  UNL     1     -12.508  30.602  15.767  1.00  0.00    -0.247 OA
HETATM   11  N8  UNL     1     -11.431  31.063  17.652  1.00  0.00    -0.274 N 
HETATM   12  C6  UNL     1     -10.345  31.532  18.274  1.00  0.00     0.279 A 
ATOM     13  H8  UNL     1     -12.227  30.715  18.186  1.00  0.00     0.173 HD
HETATM   14  O2  UNL     1     -10.275  31.558  19.530  1.00  0.00    -0.265 OA
ENDBRANCH   3   5
BRANCH   1  15
HETATM   15  N4  UNL     1      -7.275  34.056  19.771  1.00  0.00    -0.204 N 
HETATM   16  N2  UNL     1      -7.512  34.899  20.863  1.00  0.00    -0.034 NA
HETATM   17  N3  UNL     1      -6.383  35.704  20.889  1.00  0.00    -0.122 NA
HETATM   18  C1  UNL     1      -5.281  34.751  20.676  1.00  0.00     0.155 C 
HETATM   19  C2  UNL     1      -5.848  33.898  19.561  1.00  0.00     0.186 C 
BRANCH  16  20
HETATM   20  N1  UNL     1      -7.686  34.148  22.015  1.00  0.00    -0.329 NA
ATOM     21  H12 UNL     1      -8.449  33.482  21.887  1.00  0.00     0.174 HD
ATOM     22  H11 UNL     1      -6.891  33.549  22.236  1.00  0.00     0.174 HD
ENDBRANCH  16  20
ENDBRANCH   1  15
TORSDOF 3
ENDMDL
MODEL 3
REMARK VINA RESULT: -7.927867472      2.746      6.600
REMARK  3 active torsions:
REMARK  status: ('A' for Active; 'I' for Inactive)
REMARK    1  A    between atoms: N1_1  and  N2_4 
REMARK    2  A    between atoms: N4_8  and  N5_9 
REMARK    3  A    between atoms: N6_11  and  C3_13 
ROOT
HETATM    1  N5  UNL     1      -8.688  30.981  18.841  1.00  0.00    -0.227 N 
ATOM      2  H5  UNL     1      -7.678  30.839  18.826  1.00  0.00     0.209 HD
HETATM    3  N6  UNL     1      -9.166  31.777  19.706  1.00  0.00    -0.279 N 
ATOM      4  H6  UNL     1     -10.169  31.954  19.761  1.00  0.00     0.189 HD
ENDROOT
BRANCH   3   5
HETATM    5  C3  UNL     1      -8.259  32.415  20.592  1.00  0.00     0.133 A 
HETATM    6  C4  UNL     1      -7.867  31.825  21.793  1.00  0.00     0.129 A 
HETATM    7  N7  UNL     1      -7.006  32.497  22.571  1.00  0.00    -0.316 N 
HETATM    8  C5  UNL     1      -6.533  33.690  22.221  1.00  0.00     0.327 A 
ATOM      9  H7  UNL     1      -6.706  32.083  23.454  1.00  0.00     0.170 HD
HETATM   10  O1  UNL     1      -5.721  34.344  22.934  1.00  0.00    -0.247 OA
HETATM   11  N8  UNL     1      -6.896  34.295  21.051  1.00  0.00    -0.274 N 
HETATM   12  C6  UNL     1      -7.752  33.662  20.243  1.00  0.00     0.279 A 
ATOM     13  H8  UNL     1      -6.522  35.209  20.800  1.00  0.00     0.173 HD
HETATM   14  O2  UNL     1      -8.119  34.175  19.155  1.00  0.00    -0.265 OA
ENDBRANCH   3   5
BRANCH   1  15
HETATM   15  N4  UNL     1      -9.459  30.290  17.913  1.00  0.00    -0.204 N 
HETATM   16  N2  UNL     1      -9.130  29.011  17.449  1.00  0.00    -0.034 NA
HETATM   17  N3  UNL     1      -9.706  28.977  16.188  1.00  0.00    -0.122 NA
HETATM   18  C1  UNL     1     -11.036  29.570  16.405  1.00  0.00     0.155 C 
HETATM   19  C2  UNL     1     -10.685  30.749  17.288  1.00  0.00     0.186 C 
BRANCH  16  20
HETATM   20  N1  UNL     1      -9.628  28.049  18.313  1.00  0.00    -0.329 NA
ATOM     21  H12 UNL     1      -9.227  27.137  18.091  1.00  0.00     0.174 HD
ATOM     22  H11 UNL     1      -9.354  28.191  19.285  1.00  0.00     0.174 HD
ENDBRANCH  16  20
ENDBRANCH   1  15
TORSDOF 3
ENDMDL
MODEL 4
REMARK VINA RESULT: -7.896269628      2.074      2.320
REMARK  3 active torsions:
REMARK  status: ('A' for Active; 'I' for Inactive)
REMARK    1  A    between atoms: N1_1  and  N2_4 
REMARK    2  A    between atoms: N4_8  and  N5_9 
REMARK    3  A    between atoms: N6_11  and  C3_13 
ROOT
HETATM    1  N5  UNL     1      -8.886  32.226  19.711  1.00  0.00    -0.227 N 
ATOM      2  H5  UNL     1      -9.603  32.832  19.313  1.00  0.00     0.209 HD
HETATM    3  N6  UNL     1      -8.820  31.028  19.297  1.00  0.00    -0.279 N 
ATOM      4  H6  UNL     1      -8.121  30.382  19.662  1.00  0.00     0.189 HD
ENDROOT
BRANCH   3   5
HETATM    5  C3  UNL     1      -9.752  30.617  18.309  1.00  0.00     0.133 A 
HETATM    6  C4  UNL     1     -10.600  31.525  17.675  1.00  0.00     0.129 A 
HETATM    7  N7  UNL     1     -11.451  31.051  16.752  1.00  0.00    -0.316 N 
HETATM    8  C5  UNL     1     -11.496  29.758  16.443  1.00  0.00     0.327 A 
ATOM      9  H7  UNL     1     -12.079  31.698  16.276  1.00  0.00     0.170 HD
HETATM   10  O1  UNL     1     -12.287  29.285  15.579  1.00  0.00    -0.247 OA
HETATM   11  N8  UNL     1     -10.680  28.843  17.045  1.00  0.00    -0.274 N 
HETATM   12  C6  UNL     1      -9.815  29.270  17.970  1.00  0.00     0.279 A 
ATOM     13  H8  UNL     1     -10.728  27.856  16.793  1.00  0.00     0.173 HD
HETATM   14  O2  UNL     1      -9.040  28.469  18.555  1.00  0.00    -0.265 OA
ENDBRANCH   3   5
BRANCH   1  15
HETATM   15  N4  UNL     1      -8.037  32.760  20.674  1.00  0.00    -0.204 N 
HETATM   16  N2  UNL     1      -7.947  32.255  21.976  1.00  0.00    -0.034 NA
HETATM   17  N3  UNL     1      -7.552  33.360  22.715  1.00  0.00    -0.122 NA
HETATM   18  C1  UNL     1      -6.501  33.968  21.882  1.00  0.00     0.155 C 
HETATM   19  C2  UNL     1      -7.136  33.886  20.510  1.00  0.00     0.186 C 
BRANCH  16  20
HETATM   20  N1  UNL     1      -7.042  31.207  22.018  1.00  0.00    -0.329 NA
ATOM     21  H12 UNL     1      -7.263  30.584  22.795  1.00  0.00     0.174 HD
ATOM     22  H11 UNL     1      -7.093  30.590  21.206  1.00  0.00     0.174 HD
ENDBRANCH  16  20
ENDBRANCH   1  15
TORSDOF 3
ENDMDL
MODEL 5
REMARK VINA RESULT: -7.892221349      1.510      1.921
REMARK  3 active torsions:
REMARK  status: ('A' for Active; 'I' for Inactive)
REMARK    1  A    between atoms: N1_1  and  N2_4 
REMARK    2  A    between atoms: N4_8  and  N5_9 
REMARK    3  A    between atoms: N6_11  and  C3_13 
ROOT
HETATM    1  N5  UNL     1      -6.990  33.485  18.746  1.00  0.00    -0.227 N 
ATOM      2  H5  UNL     1      -6.354  33.034  18.089  1.00  0.00     0.209 HD
HETATM    3  N6  UNL     1      -8.238  33.378  18.540  1.00  0.00    -0.279 N 
ATOM      4  H6  UNL     1      -8.915  33.810  19.168  1.00  0.00     0.189 HD
ENDROOT
BRANCH   3   5
HETATM    5  C3  UNL     1      -8.660  32.636  17.406  1.00  0.00     0.133 A 
HETATM    6  C4  UNL     1      -9.470  31.507  17.526  1.00  0.00     0.129 A 
HETATM    7  N7  UNL     1      -9.822  30.864  16.402  1.00  0.00    -0.316 N 
HETATM    8  C5  UNL     1      -9.418  31.280  15.204  1.00  0.00     0.327 A 
ATOM      9  H7  UNL     1     -10.415  30.037  16.468  1.00  0.00     0.170 HD
HETATM   10  O1  UNL     1      -9.734  30.694  14.131  1.00  0.00    -0.247 OA
HETATM   11  N8  UNL     1      -8.624  32.381  15.053  1.00  0.00    -0.274 N 
HETATM   12  C6  UNL     1      -8.248  33.053  16.145  1.00  0.00     0.279 A 
ATOM     13  H8  UNL     1      -8.325  32.684  14.126  1.00  0.00     0.173 HD
HETATM   14  O2  UNL     1      -7.518  34.074  16.061  1.00  0.00    -0.265 OA
ENDBRANCH   3   5
BRANCH   1  15
HETATM   15  N4  UNL     1      -6.439  34.182  19.816  1.00  0.00    -0.204 N 
HETATM   16  N2  UNL     1      -7.186  35.036  20.636  1.00  0.00    -0.034 NA
HETATM   17  N3  UNL     1      -6.240  35.943  21.089  1.00  0.00    -0.122 NA
HETATM   18  C1  UNL     1      -5.092  35.092  21.440  1.00  0.00     0.155 C 
HETATM   19  C2  UNL     1      -5.056  34.152  20.253  1.00  0.00     0.186 C 
BRANCH  16  20
HETATM   20  N1  UNL     1      -7.791  34.311  21.651  1.00  0.00    -0.329 NA
ATOM     21  H12 UNL     1      -8.595  34.823  22.015  1.00  0.00     0.174 HD
ATOM     22  H11 UNL     1      -8.201  33.431  21.337  1.00  0.00     0.174 HD
ENDBRANCH  16  20
ENDBRANCH   1  15
TORSDOF 3
ENDMDL
