MODEL 1
REMARK VINA RESULT: -7.372447934      0.000      0.000
REMARK  4 active torsions:
REMARK  status: ('A' for Active; 'I' for Inactive)
REMARK    1  A    between atoms: C1_4  and  C2_5 
REMARK    2  A    between atoms: C4_7  and  N2_8 
REMARK    3  A    between atoms: N3_13  and  C6_14 
REMARK    4  A    between atoms: C7_19  and  N6_20 
ROOT
HETATM    1  C2  UNL     1      -9.757  31.814  15.640  1.00  0.00     0.126 C 
HETATM    2  C3  UNL     1      -8.431  32.387  15.159  1.00  0.00     0.065 C 
HETATM    3  C4  UNL     1      -8.076  33.284  16.330  1.00  0.00     0.203 C 
HETATM    4  C5  UNL     1      -8.674  32.582  17.526  1.00  0.00     0.158 C 
HETATM    5  N3  UNL     1      -9.421  31.446  16.986  1.00  0.00    -0.350 N 
ENDROOT
BRANCH   5   6
HETATM    6  C6  UNL     1      -9.700  30.266  17.728  1.00  0.00     0.189 A 
HETATM    7  N4  UNL     1      -8.713  29.434  18.121  1.00  0.00    -0.267 N 
HETATM    8  N5  UNL     1      -8.962  28.325  18.819  1.00  0.00    -0.131 N 
ATOM      9  H4  UNL     1      -7.748  29.660  17.878  1.00  0.00     0.189 HD
HETATM   10  C7  UNL     1     -10.222  27.995  19.157  1.00  0.00     0.693 A 
ATOM     11  H5  UNL     1      -8.189  27.721  19.099  1.00  0.00     0.205 HD
HETATM   12  N7  UNL     1     -11.222  28.790  18.787  1.00  0.00    -0.152 N 
HETATM   13  C8  UNL     1     -10.983  29.911  18.084  1.00  0.00     0.305 A 
ATOM     14  H7  UNL     1     -12.179  28.546  19.038  1.00  0.00     0.188 HD
HETATM   15  O1  UNL     1     -11.963  30.624  17.762  1.00  0.00    -0.263 OA
BRANCH  10  16
HETATM   16  N6  UNL     1     -10.429  26.913  19.832  1.00  0.00    -0.233 N 
ATOM     17  H62 UNL     1     -10.906  26.926  20.734  1.00  0.00     0.174 HD
ATOM     18  H61 UNL     1     -10.106  26.023  19.454  1.00  0.00     0.174 HD
ENDBRANCH  10  16
ENDBRANCH   5   6
BRANCH   1  19
HETATM   19  C1  UNL     1     -10.237  30.709  14.810  1.00  0.00     0.078 C 
HETATM   20  N1  UNL     1      -9.935  30.723  13.564  1.00  0.00    -0.409 N 
ATOM     21  H12 UNL     1      -9.378  31.487  13.180  1.00  0.00     0.155 HD
ATOM     22  H11 UNL     1     -10.270  29.953  12.986  1.00  0.00     0.155 HD
ENDBRANCH   1  19
BRANCH   3  23
HETATM   23  N2  UNL     1      -6.632  33.395  16.435  1.00  0.00    -0.073 N 
ATOM     24  H23 UNL     1      -6.158  33.072  15.592  1.00  0.00     0.274 HD
ATOM     25  H22 UNL     1      -6.318  34.366  16.415  1.00  0.00     0.274 HD
ATOM     26  H21 UNL     1      -6.312  32.904  17.270  1.00  0.00     0.274 HD
ENDBRANCH   3  23
TORSDOF 4
ENDMDL
MODEL 2
REMARK VINA RESULT: -6.921506726      5.589      7.140
REMARK  4 active torsions:
REMARK  status: ('A' for Active; 'I' for Inactive)
REMARK    1  A    between atoms: C1_4  and  C2_5 
REMARK    2  A    between atoms: C4_7  and  N2_8 
REMARK    3  A    between atoms: N3_13  and  C6_14 
REMARK    4  A    between atoms: C7_19  and  N6_20 
ROOT
HETATM    1  C2  UNL     1      -4.080  34.663  21.486  1.00  0.00     0.126 C 
HETATM    2  C3  UNL     1      -3.967  35.670  22.623  1.00  0.00     0.065 C 
HETATM    3  C4  UNL     1      -4.492  36.919  21.940  1.00  0.00     0.203 C 
HETATM    4  C5  UNL     1      -5.501  36.397  20.945  1.00  0.00     0.158 C 
HETATM    5  N3  UNL     1      -5.406  34.938  21.011  1.00  0.00    -0.350 N 
ENDROOT
BRANCH   5   6
HETATM    6  C6  UNL     1      -6.470  34.066  20.656  1.00  0.00     0.189 A 
HETATM    7  N4  UNL     1      -6.715  33.744  19.369  1.00  0.00    -0.267 N 
HETATM    8  N5  UNL     1      -7.710  32.927  19.022  1.00  0.00    -0.131 N 
ATOM      9  H4  UNL     1      -6.121  34.138  18.638  1.00  0.00     0.189 HD
HETATM   10  C7  UNL     1      -8.514  32.390  19.958  1.00  0.00     0.693 A 
ATOM     11  H5  UNL     1      -7.863  32.706  18.038  1.00  0.00     0.205 HD
HETATM   12  N7  UNL     1      -8.305  32.683  21.238  1.00  0.00    -0.152 N 
HETATM   13  C8  UNL     1      -7.304  33.505  21.599  1.00  0.00     0.305 A 
ATOM     14  H7  UNL     1      -8.910  32.281  21.953  1.00  0.00     0.188 HD
HETATM   15  O1  UNL     1      -7.152  33.747  22.820  1.00  0.00    -0.263 OA
BRANCH  10  16
HETATM   16  N6  UNL     1      -9.469  31.602  19.589  1.00  0.00    -0.233 N 
ATOM     17  H62 UNL     1      -9.386  31.008  18.765  1.00  0.00     0.174 HD
ATOM     18  H61 UNL     1     -10.329  31.574  20.137  1.00  0.00     0.174 HD
ENDBRANCH  10  16
ENDBRANCH   5   6
BRANCH   1  19
HETATM   19  C1  UNL     1      -3.866  33.283  21.922  1.00  0.00     0.078 C 
HETATM   20  N1  UNL     1      -3.411  32.448  21.060  1.00  0.00    -0.409 N 
ATOM     21  H12 UNL     1      -3.210  32.753  20.108  1.00  0.00     0.155 HD
ATOM     22  H11 UNL     1      -3.262  31.487  21.364  1.00  0.00     0.155 HD
ENDBRANCH   1  19
BRANCH   3  23
HETATM   23  N2  UNL     1      -5.107  37.789  22.927  1.00  0.00    -0.073 N 
ATOM     24  H23 UNL     1      -6.119  37.671  22.968  1.00  0.00     0.274 HD
ATOM     25  H22 UNL     1      -4.888  37.503  23.882  1.00  0.00     0.274 HD
ATOM     26  H21 UNL     1      -4.838  38.756  22.743  1.00  0.00     0.274 HD
ENDBRANCH   3  23
TORSDOF 4
ENDMDL
MODEL 3
REMARK VINA RESULT: -6.810678137      2.027      4.595
REMARK  4 active torsions:
REMARK  status: ('A' for Active; 'I' for Inactive)
REMARK    1  A    between atoms: C1_4  and  C2_5 
REMARK    2  A    between atoms: C4_7  and  N2_8 
REMARK    3  A    between atoms: N3_13  and  C6_14 
REMARK    4  A    between atoms: C7_19  and  N6_20 
ROOT
HETATM    1  C2  UNL     1     -10.198  29.791  17.637  1.00  0.00     0.126 C 
HETATM    2  C3  UNL     1     -10.221  29.233  16.220  1.00  0.00     0.065 C 
HETATM    3  C4  UNL     1     -10.917  30.366  15.488  1.00  0.00     0.203 C 
HETATM    4  C5  UNL     1     -10.498  31.604  16.244  1.00  0.00     0.158 C 
HETATM    5  N3  UNL     1      -9.731  31.126  17.395  1.00  0.00    -0.350 N 
ENDROOT
BRANCH   5   6
HETATM    6  C6  UNL     1      -8.749  31.906  18.062  1.00  0.00     0.189 A 
HETATM    7  N4  UNL     1      -7.673  32.390  17.407  1.00  0.00    -0.267 N 
HETATM    8  N5  UNL     1      -6.744  33.125  18.021  1.00  0.00    -0.131 N 
ATOM      9  H4  UNL     1      -7.567  32.189  16.412  1.00  0.00     0.189 HD
HETATM   10  C7  UNL     1      -6.851  33.409  19.332  1.00  0.00     0.693 A 
ATOM     11  H5  UNL     1      -5.945  33.474  17.492  1.00  0.00     0.205 HD
HETATM   12  N7  UNL     1      -7.898  32.949  20.012  1.00  0.00    -0.152 N 
HETATM   13  C8  UNL     1      -8.840  32.209  19.403  1.00  0.00     0.305 A 
ATOM     14  H7  UNL     1      -7.985  33.160  21.006  1.00  0.00     0.188 HD
HETATM   15  O1  UNL     1      -9.806  31.802  20.092  1.00  0.00    -0.263 OA
BRANCH  10  16
HETATM   16  N6  UNL     1      -5.934  34.122  19.897  1.00  0.00    -0.233 N 
ATOM     17  H62 UNL     1      -5.115  33.697  20.333  1.00  0.00     0.174 HD
ATOM     18  H61 UNL     1      -6.032  35.137  19.908  1.00  0.00     0.174 HD
ENDBRANCH  10  16
ENDBRANCH   5   6
BRANCH   1  19
HETATM   19  C1  UNL     1      -9.358  29.009  18.545  1.00  0.00     0.078 C 
HETATM   20  N1  UNL     1      -9.762  27.836  18.871  1.00  0.00    -0.409 N 
ATOM     21  H12 UNL     1     -10.641  27.475  18.501  1.00  0.00     0.155 HD
ATOM     22  H11 UNL     1      -9.176  27.292  19.504  1.00  0.00     0.155 HD
ENDBRANCH   1  19
BRANCH   3  23
HETATM   23  N2  UNL     1     -10.468  30.397  14.107  1.00  0.00    -0.073 N 
ATOM     24  H23 UNL     1     -10.420  31.347  13.739  1.00  0.00     0.274 HD
ATOM     25  H22 UNL     1      -9.481  30.156  14.017  1.00  0.00     0.274 HD
ATOM     26  H21 UNL     1     -11.065  29.793  13.541  1.00  0.00     0.274 HD
ENDBRANCH   3  23
TORSDOF 4
ENDMDL
MODEL 4
REMARK VINA RESULT: -6.800474592      2.405      4.640
REMARK  4 active torsions:
REMARK  status: ('A' for Active; 'I' for Inactive)
REMARK    1  A    between atoms: C1_4  and  C2_5 
REMARK    2  A    between atoms: C4_7  and  N2_8 
REMARK    3  A    between atoms: N3_13  and  C6_14 
REMARK    4  A    between atoms: C7_19  and  N6_20 
ROOT
HETATM    1  C2  UNL     1     -10.405  29.578  17.877  1.00  0.00     0.126 C 
HETATM    2  C3  UNL     1     -10.358  29.159  16.414  1.00  0.00     0.065 C 
HETATM    3  C4  UNL     1     -11.126  30.301  15.775  1.00  0.00     0.203 C 
HETATM    4  C5  UNL     1     -10.818  31.489  16.654  1.00  0.00     0.158 C 
HETATM    5  N3  UNL     1     -10.038  30.961  17.775  1.00  0.00    -0.350 N 
ENDROOT
BRANCH   5   6
HETATM    6  C6  UNL     1      -9.132  31.746  18.537  1.00  0.00     0.189 A 
HETATM    7  N4  UNL     1      -9.153  31.732  19.886  1.00  0.00    -0.267 N 
HETATM    8  N5  UNL     1      -8.307  32.464  20.613  1.00  0.00    -0.131 N 
ATOM      9  H4  UNL     1      -9.837  31.145  20.365  1.00  0.00     0.189 HD
HETATM   10  C7  UNL     1      -7.393  33.251  20.017  1.00  0.00     0.693 A 
ATOM     11  H5  UNL     1      -8.354  32.426  21.632  1.00  0.00     0.205 HD
HETATM   12  N7  UNL     1      -7.341  33.291  18.688  1.00  0.00    -0.152 N 
HETATM   13  C8  UNL     1      -8.188  32.557  17.946  1.00  0.00     0.305 A 
ATOM     14  H7  UNL     1      -6.651  33.885  18.229  1.00  0.00     0.188 HD
HETATM   15  O1  UNL     1      -8.093  32.634  16.697  1.00  0.00    -0.263 OA
BRANCH  10  16
HETATM   16  N6  UNL     1      -6.589  33.947  20.750  1.00  0.00    -0.233 N 
ATOM     17  H62 UNL     1      -6.239  33.598  21.642  1.00  0.00     0.174 HD
ATOM     18  H61 UNL     1      -6.297  34.869  20.427  1.00  0.00     0.174 HD
ENDBRANCH  10  16
ENDBRANCH   5   6
BRANCH   1  19
HETATM   19  C1  UNL     1      -9.524  28.779  18.729  1.00  0.00     0.078 C 
HETATM   20  N1  UNL     1      -9.890  27.582  19.011  1.00  0.00    -0.409 N 
ATOM     21  H12 UNL     1     -10.769  27.215  18.645  1.00  0.00     0.155 HD
ATOM     22  H11 UNL     1      -9.276  27.025  19.605  1.00  0.00     0.155 HD
ENDBRANCH   1  19
BRANCH   3  23
HETATM   23  N2  UNL     1     -10.656  30.498  14.415  1.00  0.00    -0.073 N 
ATOM     24  H23 UNL     1     -10.199  29.666  14.040  1.00  0.00     0.274 HD
ATOM     25  H22 UNL     1     -11.424  30.557  13.746  1.00  0.00     0.274 HD
ATOM     26  H21 UNL     1     -10.050  31.319  14.379  1.00  0.00     0.274 HD
ENDBRANCH   3  23
TORSDOF 4
ENDMDL
MODEL 5
REMARK VINA RESULT: -6.731951310      1.249      1.604
REMARK  4 active torsions:
REMARK  status: ('A' for Active; 'I' for Inactive)
REMARK    1  A    between atoms: C1_4  and  C2_5 
REMARK    2  A    between atoms: C4_7  and  N2_8 
REMARK    3  A    between atoms: N3_13  and  C6_14 
REMARK    4  A    between atoms: C7_19  and  N6_20 
ROOT
HETATM    1  C2  UNL     1      -9.858  31.813  15.512  1.00  0.00     0.126 C 
HETATM    2  C3  UNL     1      -8.434  32.215  15.154  1.00  0.00     0.065 C 
HETATM    3  C4  UNL     1      -8.121  33.169  16.291  1.00  0.00     0.203 C 
HETATM    4  C5  UNL     1      -8.919  32.630  17.454  1.00  0.00     0.158 C 
HETATM    5  N3  UNL     1      -9.715  31.529  16.911  1.00  0.00    -0.350 N 
ENDROOT
BRANCH   5   6
HETATM    6  C6  UNL     1     -10.197  30.448  17.698  1.00  0.00     0.189 A 
HETATM    7  N4  UNL     1     -11.367  30.531  18.364  1.00  0.00    -0.267 N 
HETATM    8  N5  UNL     1     -11.831  29.523  19.105  1.00  0.00    -0.131 N 
ATOM      9  H4  UNL     1     -11.915  31.389  18.298  1.00  0.00     0.189 HD
HETATM   10  C7  UNL     1     -11.135  28.376  19.215  1.00  0.00     0.693 A 
ATOM     11  H5  UNL     1     -12.721  29.623  19.593  1.00  0.00     0.205 HD
HETATM   12  N7  UNL     1      -9.976  28.257  18.574  1.00  0.00    -0.152 N 
HETATM   13  C8  UNL     1      -9.500  29.265  17.823  1.00  0.00     0.305 A 
ATOM     14  H7  UNL     1      -9.443  27.391  18.653  1.00  0.00     0.188 HD
HETATM   15  O1  UNL     1      -8.403  29.098  17.240  1.00  0.00    -0.263 OA
BRANCH  10  16
HETATM   16  N6  UNL     1     -11.612  27.420  19.941  1.00  0.00    -0.233 N 
ATOM     17  H62 UNL     1     -12.549  27.465  20.341  1.00  0.00     0.174 HD
ATOM     18  H61 UNL     1     -11.035  26.598  20.120  1.00  0.00     0.174 HD
ENDBRANCH  10  16
ENDBRANCH   5   6
BRANCH   1  19
HETATM   19  C1  UNL     1     -10.354  30.693  14.713  1.00  0.00     0.078 C 
HETATM   20  N1  UNL     1     -10.026  30.652  13.473  1.00  0.00    -0.409 N 
ATOM     21  H12 UNL     1      -9.438  31.384  13.074  1.00  0.00     0.155 HD
ATOM     22  H11 UNL     1     -10.372  29.871  12.916  1.00  0.00     0.155 HD
ENDBRANCH   1  19
BRANCH   3  23
HETATM   23  N2  UNL     1      -6.693  33.151  16.560  1.00  0.00    -0.073 N 
ATOM     24  H23 UNL     1      -6.446  33.719  17.371  1.00  0.00     0.274 HD
ATOM     25  H22 UNL     1      -6.380  32.247  16.915  1.00  0.00     0.274 HD
ATOM     26  H21 UNL     1      -6.185  33.433  15.721  1.00  0.00     0.274 HD
ENDBRANCH   3  23
TORSDOF 4
ENDMDL
