MODEL 1
REMARK VINA RESULT: -7.144347338      0.000      0.000
REMARK  4 active torsions:
REMARK  status: ('A' for Active; 'I' for Inactive)
REMARK    1  A    between atoms: C3_4  and  N2_5 
REMARK    2  A    between atoms: C4_7  and  C5_8 
REMARK    3  A    between atoms: C6_10  and  O2_11 
REMARK    4  A    between atoms: C8_14  and  N3_15 
REMARK       I    between atoms: N3_15  and  C9_17 
ROOT
HETATM    1  N1  UNL     1      35.063  -0.397  22.919  1.00  0.00    -0.191 NA
HETATM    2  C1  UNL     1      35.864   0.459  23.057  1.00  0.00     0.103 C 
HETATM    3  C2  UNL     1      36.868   1.532  23.207  1.00  0.00     0.085 A 
HETATM    4  C3  UNL     1      37.303   2.191  22.090  1.00  0.00     0.096 A 
HETATM    5  S1  UNL     1      38.425   3.315  22.718  1.00  0.00    -0.075 SA
HETATM    6  C10 UNL     1      38.317   2.924  24.370  1.00  0.00    -0.007 A 
HETATM    7  C11 UNL     1      37.401   1.919  24.396  1.00  0.00    -0.021 A 
HETATM    8  C12 UNL     1      37.246   1.516  25.861  1.00  0.00     0.042 C 
HETATM    9  C13 UNL     1      38.555   1.910  26.451  1.00  0.00     0.010 C 
HETATM   10  C14 UNL     1      38.822   3.238  25.768  1.00  0.00     0.047 C 
ENDROOT
BRANCH   4  11
HETATM   11  N2  UNL     1      36.899   1.976  20.721  1.00  0.00    -0.356 N 
HETATM   12  C4  UNL     1      36.239   2.840  20.067  1.00  0.00     0.128 C 
ATOM     13  H2  UNL     1      37.154   1.101  20.264  1.00  0.00     0.166 HD
BRANCH  12  14
HETATM   14  C5  UNL     1      35.813   4.126  20.595  1.00  0.00     0.120 A 
HETATM   15  O1  UNL     1      36.334   5.294  20.329  1.00  0.00    -0.284 OA
HETATM   16  C6  UNL     1      35.725   6.251  20.963  1.00  0.00     0.185 A 
HETATM   17  C7  UNL     1      34.696   5.701  21.733  1.00  0.00     0.096 A 
HETATM   18  C8  UNL     1      34.760   4.346  21.492  1.00  0.00     0.076 A 
BRANCH  16  19
HETATM   19  O2  UNL     1      35.960   7.626  20.961  1.00  0.00    -0.341 OA
ATOM     20  H2  UNL     1      35.612   8.307  20.397  1.00  0.00     0.220 HD
ENDBRANCH  16  19
BRANCH  18  21
HETATM   21  N3  UNL     1      33.939   3.313  22.024  1.00  0.00    -0.311 N 
HETATM   22  C9  UNL     1      33.638   3.166  23.394  1.00  0.00     0.319 C 
HETATM   23  O3  UNL     1      34.036   3.900  24.320  1.00  0.00    -0.254 OA
HETATM   24 CL1  UNL     1      32.596   1.819  23.893  1.00  0.00    -0.020 Cl
ATOM     25  H3  UNL     1      33.544   2.635  21.373  1.00  0.00     0.170 HD
ENDBRANCH  18  21
ENDBRANCH  12  14
ENDBRANCH   4  11
TORSDOF 4
ENDMDL
MODEL 2
REMARK VINA RESULT: -7.099488922      2.720      3.587
REMARK  4 active torsions:
REMARK  status: ('A' for Active; 'I' for Inactive)
REMARK    1  A    between atoms: C3_4  and  N2_5 
REMARK    2  A    between atoms: C4_7  and  C5_8 
REMARK    3  A    between atoms: C6_10  and  O2_11 
REMARK    4  A    between atoms: C8_14  and  N3_15 
REMARK       I    between atoms: N3_15  and  C9_17 
ROOT
HETATM    1  N1  UNL     1      39.400   3.231  25.552  1.00  0.00    -0.191 NA
HETATM    2  C1  UNL     1      38.376   2.715  25.273  1.00  0.00     0.103 C 
HETATM    3  C2  UNL     1      37.098   2.074  24.901  1.00  0.00     0.085 A 
HETATM    4  C3  UNL     1      36.791   1.933  23.575  1.00  0.00     0.096 A 
HETATM    5  S1  UNL     1      35.267   1.165  23.613  1.00  0.00    -0.075 SA
HETATM    6  C10 UNL     1      35.057   1.043  25.296  1.00  0.00    -0.007 A 
HETATM    7  C11 UNL     1      36.189   1.608  25.796  1.00  0.00    -0.021 A 
HETATM    8  C12 UNL     1      36.073   1.528  27.317  1.00  0.00     0.042 C 
HETATM    9  C13 UNL     1      34.600   1.491  27.534  1.00  0.00     0.010 C 
HETATM   10  C14 UNL     1      34.140   0.576  26.415  1.00  0.00     0.047 C 
ENDROOT
BRANCH   4  11
HETATM   11  N2  UNL     1      37.578   2.340  22.435  1.00  0.00    -0.356 N 
HETATM   12  C4  UNL     1      37.474   3.495  21.919  1.00  0.00     0.128 C 
ATOM     13  H2  UNL     1      38.240   1.677  22.031  1.00  0.00     0.166 HD
BRANCH  12  14
HETATM   14  C5  UNL     1      36.575   4.533  22.396  1.00  0.00     0.120 A 
HETATM   15  O1  UNL     1      36.779   5.349  23.395  1.00  0.00    -0.284 OA
HETATM   16  C6  UNL     1      35.780   6.162  23.567  1.00  0.00     0.185 A 
HETATM   17  C7  UNL     1      34.802   5.888  22.607  1.00  0.00     0.096 A 
HETATM   18  C8  UNL     1      35.317   4.847  21.865  1.00  0.00     0.076 A 
BRANCH  16  19
HETATM   19  O2  UNL     1      35.595   7.175  24.507  1.00  0.00    -0.341 OA
ATOM     20  H2  UNL     1      35.090   7.180  25.312  1.00  0.00     0.220 HD
ENDBRANCH  16  19
BRANCH  18  21
HETATM   21  N3  UNL     1      34.731   4.176  20.756  1.00  0.00    -0.311 N 
HETATM   22  C9  UNL     1      34.955   4.527  19.408  1.00  0.00     0.319 C 
HETATM   23  O3  UNL     1      35.680   5.454  18.998  1.00  0.00    -0.254 OA
HETATM   24 CL1  UNL     1      34.146   3.584  18.141  1.00  0.00    -0.020 Cl
ATOM     25  H3  UNL     1      34.109   3.390  20.948  1.00  0.00     0.170 HD
ENDBRANCH  18  21
ENDBRANCH  12  14
ENDBRANCH   4  11
TORSDOF 4
ENDMDL
MODEL 3
REMARK VINA RESULT: -7.043656353      4.091      5.218
REMARK  4 active torsions:
REMARK  status: ('A' for Active; 'I' for Inactive)
REMARK    1  A    between atoms: C3_4  and  N2_5 
REMARK    2  A    between atoms: C4_7  and  C5_8 
REMARK    3  A    between atoms: C6_10  and  O2_11 
REMARK    4  A    between atoms: C8_14  and  N3_15 
REMARK       I    between atoms: N3_15  and  C9_17 
ROOT
HETATM    1  N1  UNL     1      32.871   2.448  23.666  1.00  0.00    -0.191 NA
HETATM    2  C1  UNL     1      33.768   3.142  23.338  1.00  0.00     0.103 C 
HETATM    3  C2  UNL     1      34.875   4.025  22.919  1.00  0.00     0.085 A 
HETATM    4  C3  UNL     1      34.577   5.233  22.351  1.00  0.00     0.096 A 
HETATM    5  S1  UNL     1      36.117   5.899  22.031  1.00  0.00    -0.075 SA
HETATM    6  C10 UNL     1      37.094   4.637  22.621  1.00  0.00    -0.007 A 
HETATM    7  C11 UNL     1      36.191   3.718  23.058  1.00  0.00    -0.021 A 
HETATM    8  C12 UNL     1      37.003   2.548  23.611  1.00  0.00     0.042 C 
HETATM    9  C13 UNL     1      38.284   2.651  22.860  1.00  0.00     0.010 C 
HETATM   10  C14 UNL     1      38.517   4.150  22.839  1.00  0.00     0.047 C 
ENDROOT
BRANCH   4  11
HETATM   11  N2  UNL     1      33.272   5.794  22.093  1.00  0.00    -0.356 N 
HETATM   12  C4  UNL     1      32.691   6.562  22.919  1.00  0.00     0.128 C 
ATOM     13  H2  UNL     1      32.802   5.565  21.217  1.00  0.00     0.166 HD
BRANCH  12  14
HETATM   14  C5  UNL     1      33.247   6.969  24.199  1.00  0.00     0.120 A 
HETATM   15  O1  UNL     1      33.715   6.187  25.134  1.00  0.00    -0.284 OA
HETATM   16  C6  UNL     1      34.141   6.861  26.160  1.00  0.00     0.185 A 
HETATM   17  C7  UNL     1      33.952   8.224  25.917  1.00  0.00     0.096 A 
HETATM   18  C8  UNL     1      33.381   8.284  24.664  1.00  0.00     0.076 A 
BRANCH  16  19
HETATM   19  O2  UNL     1      34.707   6.420  27.356  1.00  0.00    -0.341 OA
ATOM     20  H2  UNL     1      34.441   6.577  28.255  1.00  0.00     0.220 HD
ENDBRANCH  16  19
BRANCH  18  21
HETATM   21  N3  UNL     1      32.981   9.433  23.927  1.00  0.00    -0.311 N 
HETATM   22  C9  UNL     1      31.908  10.274  24.290  1.00  0.00     0.319 C 
HETATM   23  O3  UNL     1      31.169  10.139  25.285  1.00  0.00    -0.254 OA
HETATM   24 CL1  UNL     1      31.539  11.670  23.259  1.00  0.00    -0.020 Cl
ATOM     25  H3  UNL     1      33.503   9.663  23.081  1.00  0.00     0.170 HD
ENDBRANCH  18  21
ENDBRANCH  12  14
ENDBRANCH   4  11
TORSDOF 4
ENDMDL
MODEL 4
REMARK VINA RESULT: -6.994270946      4.032      5.708
REMARK  4 active torsions:
REMARK  status: ('A' for Active; 'I' for Inactive)
REMARK    1  A    between atoms: C3_4  and  N2_5 
REMARK    2  A    between atoms: C4_7  and  C5_8 
REMARK    3  A    between atoms: C6_10  and  O2_11 
REMARK    4  A    between atoms: C8_14  and  N3_15 
REMARK       I    between atoms: N3_15  and  C9_17 
ROOT
HETATM    1  N1  UNL     1      36.099   7.734  21.054  1.00  0.00    -0.191 NA
HETATM    2  C1  UNL     1      35.872   6.701  21.577  1.00  0.00     0.103 C 
HETATM    3  C2  UNL     1      35.565   5.414  22.235  1.00  0.00     0.085 A 
HETATM    4  C3  UNL     1      34.260   5.104  22.503  1.00  0.00     0.096 A 
HETATM    5  S1  UNL     1      34.373   3.570  23.245  1.00  0.00    -0.075 SA
HETATM    6  C10 UNL     1      36.061   3.361  23.198  1.00  0.00    -0.007 A 
HETATM    7  C11 UNL     1      36.503   4.501  22.600  1.00  0.00    -0.021 A 
HETATM    8  C12 UNL     1      38.023   4.381  22.518  1.00  0.00     0.042 C 
HETATM    9  C13 UNL     1      38.343   3.463  23.645  1.00  0.00     0.010 C 
HETATM   10  C14 UNL     1      37.221   2.446  23.550  1.00  0.00     0.047 C 
ENDROOT
BRANCH   4  11
HETATM   11  N2  UNL     1      33.085   5.893  22.219  1.00  0.00    -0.356 N 
HETATM   12  C4  UNL     1      32.618   6.732  23.049  1.00  0.00     0.128 C 
ATOM     13  H2  UNL     1      32.615   5.773  21.322  1.00  0.00     0.166 HD
BRANCH  12  14
HETATM   14  C5  UNL     1      33.188   7.002  24.359  1.00  0.00     0.120 A 
HETATM   15  O1  UNL     1      33.765   6.142  25.155  1.00  0.00    -0.284 OA
HETATM   16  C6  UNL     1      34.170   6.699  26.256  1.00  0.00     0.185 A 
HETATM   17  C7  UNL     1      33.847   8.059  26.222  1.00  0.00     0.096 A 
HETATM   18  C8  UNL     1      33.221   8.243  25.008  1.00  0.00     0.076 A 
BRANCH  16  19
HETATM   19  O2  UNL     1      34.824   6.148  27.358  1.00  0.00    -0.341 OA
ATOM     20  H2  UNL     1      35.106   6.552  28.170  1.00  0.00     0.220 HD
ENDBRANCH  16  19
BRANCH  18  21
HETATM   21  N3  UNL     1      32.687   9.442  24.460  1.00  0.00    -0.311 N 
HETATM   22  C9  UNL     1      33.396  10.303  23.596  1.00  0.00     0.319 C 
HETATM   23  O3  UNL     1      34.566  10.146  23.195  1.00  0.00    -0.254 OA
HETATM   24 CL1  UNL     1      32.582  11.763  22.999  1.00  0.00    -0.020 Cl
ATOM     25  H3  UNL     1      31.731   9.696  24.708  1.00  0.00     0.170 HD
ENDBRANCH  18  21
ENDBRANCH  12  14
ENDBRANCH   4  11
TORSDOF 4
ENDMDL
MODEL 5
REMARK VINA RESULT: -6.926943583      2.599      3.882
REMARK  4 active torsions:
REMARK  status: ('A' for Active; 'I' for Inactive)
REMARK    1  A    between atoms: C3_4  and  N2_5 
REMARK    2  A    between atoms: C4_7  and  C5_8 
REMARK    3  A    between atoms: C6_10  and  O2_11 
REMARK    4  A    between atoms: C8_14  and  N3_15 
REMARK       I    between atoms: N3_15  and  C9_17 
ROOT
HETATM    1  N1  UNL     1      36.533   3.139  20.751  1.00  0.00    -0.191 NA
HETATM    2  C1  UNL     1      36.390   3.014  21.916  1.00  0.00     0.103 C 
HETATM    3  C2  UNL     1      36.189   2.862  23.371  1.00  0.00     0.085 A 
HETATM    4  C3  UNL     1      34.918   2.925  23.872  1.00  0.00     0.096 A 
HETATM    5  S1  UNL     1      35.153   2.706  25.549  1.00  0.00    -0.075 SA
HETATM    6  C10 UNL     1      36.846   2.542  25.574  1.00  0.00    -0.007 A 
HETATM    7  C11 UNL     1      37.193   2.662  24.264  1.00  0.00    -0.021 A 
HETATM    8  C12 UNL     1      38.712   2.518  24.208  1.00  0.00     0.042 C 
HETATM    9  C13 UNL     1      39.136   2.957  25.566  1.00  0.00     0.010 C 
HETATM   10  C14 UNL     1      38.072   2.328  26.446  1.00  0.00     0.047 C 
ENDROOT
BRANCH   4  11
HETATM   11  N2  UNL     1      33.687   3.127  23.144  1.00  0.00    -0.356 N 
HETATM   12  C4  UNL     1      33.214   4.284  22.923  1.00  0.00     0.128 C 
ATOM     13  H2  UNL     1      33.181   2.313  22.796  1.00  0.00     0.166 HD
BRANCH  12  14
HETATM   14  C5  UNL     1      33.833   5.525  23.361  1.00  0.00     0.120 A 
HETATM   15  O1  UNL     1      33.708   6.093  24.531  1.00  0.00    -0.284 OA
HETATM   16  C6  UNL     1      34.389   7.197  24.608  1.00  0.00     0.185 A 
HETATM   17  C7  UNL     1      35.041   7.413  23.390  1.00  0.00     0.096 A 
HETATM   18  C8  UNL     1      34.680   6.342  22.601  1.00  0.00     0.076 A 
BRANCH  16  19
HETATM   19  O2  UNL     1      34.528   8.098  25.662  1.00  0.00    -0.341 OA
ATOM     20  H2  UNL     1      33.944   8.290  26.386  1.00  0.00     0.220 HD
ENDBRANCH  16  19
BRANCH  18  21
HETATM   21  N3  UNL     1      35.062   6.062  21.260  1.00  0.00    -0.311 N 
HETATM   22  C9  UNL     1      35.820   6.936  20.452  1.00  0.00     0.319 C 
HETATM   23  O3  UNL     1      36.256   8.056  20.785  1.00  0.00    -0.254 OA
HETATM   24 CL1  UNL     1      36.213   6.433  18.796  1.00  0.00    -0.020 Cl
ATOM     25  H3  UNL     1      34.769   5.172  20.856  1.00  0.00     0.170 HD
ENDBRANCH  18  21
ENDBRANCH  12  14
ENDBRANCH   4  11
TORSDOF 4
ENDMDL
