MODEL 1
REMARK VINA RESULT: -7.920395921      0.000      0.000
REMARK  4 active torsions:
REMARK  status: ('A' for Active; 'I' for Inactive)
REMARK    1  A    between atoms: C4_7  and  C5_8 
REMARK    2  A    between atoms: C7_12  and  C8_13 
REMARK    3  A    between atoms: C8_13  and  O2_15 
REMARK    4  A    between atoms: O2_15  and  C9_16 
ROOT
HETATM    1  C5  UNL     1      35.457   6.350  21.958  1.00  0.00     0.064 A 
HETATM    2  C6  UNL     1      36.197   5.993  23.062  1.00  0.00     0.120 A 
HETATM    3  N2  UNL     1      35.649   6.627  24.139  1.00  0.00    -0.345 N 
ATOM      4  H2  UNL     1      35.982   6.556  25.101  1.00  0.00     0.167 HD
HETATM    5  C7  UNL     1      34.594   7.364  23.723  1.00  0.00     0.182 A 
HETATM    6  N3  UNL     1      34.504   7.178  22.410  1.00  0.00    -0.336 N 
ATOM      7  H3  UNL     1      33.795   7.612  21.817  1.00  0.00     0.168 HD
ENDROOT
BRANCH   5   8
HETATM    8  C8  UNL     1      33.714   8.203  24.534  1.00  0.00     0.328 C 
HETATM    9  O1  UNL     1      33.735   8.109  25.787  1.00  0.00    -0.256 OA
BRANCH   8  10
HETATM   10  O2  UNL     1      32.838   9.121  23.978  1.00  0.00    -0.310 OA
BRANCH  10  11
HETATM   11  C9  UNL     1      32.767  10.475  24.385  1.00  0.00     0.132 C 
HETATM   12  C10 UNL     1      31.608  11.165  23.756  1.00  0.00     0.032 C 
HETATM   13  C11 UNL     1      31.725  12.641  23.603  1.00  0.00     0.002 C 
HETATM   14  C12 UNL     1      33.100  13.176  23.477  1.00  0.00     0.000 C 
HETATM   15  C13 UNL     1      34.102  12.108  23.080  1.00  0.00     0.002 C 
HETATM   16  C14 UNL     1      34.086  11.112  24.220  1.00  0.00     0.032 C 
ENDBRANCH  10  11
ENDBRANCH   8  10
ENDBRANCH   5   8
BRANCH   1  17
HETATM   17  C4  UNL     1      35.664   5.915  20.540  1.00  0.00     0.045 A 
HETATM   18  C1  UNL     1      36.084   6.836  19.612  1.00  0.00     0.101 A 
HETATM   19  N1  UNL     1      36.366   8.231  19.828  1.00  0.00    -0.093 NA
HETATM   20  S1  UNL     1      36.181   5.919  18.177  1.00  0.00    -0.085 SA
HETATM   21  C2  UNL     1      35.693   4.406  18.778  1.00  0.00     0.076 A 
HETATM   22  C3  UNL     1      35.464   4.652  20.098  1.00  0.00     0.055 A 
HETATM   23 CL1  UNL     1      34.917   3.337  21.181  1.00  0.00    -0.083 Cl
ENDBRANCH   1  17
TORSDOF 4
ENDMDL
MODEL 2
REMARK VINA RESULT: -7.676302004      0.960      1.658
REMARK  4 active torsions:
REMARK  status: ('A' for Active; 'I' for Inactive)
REMARK    1  A    between atoms: C4_7  and  C5_8 
REMARK    2  A    between atoms: C7_12  and  C8_13 
REMARK    3  A    between atoms: C8_13  and  O2_15 
REMARK    4  A    between atoms: O2_15  and  C9_16 
ROOT
HETATM    1  C5  UNL     1      35.697   6.026  21.883  1.00  0.00     0.064 A 
HETATM    2  C6  UNL     1      36.589   5.569  22.826  1.00  0.00     0.120 A 
HETATM    3  N2  UNL     1      36.151   6.007  24.042  1.00  0.00    -0.345 N 
ATOM      4  H2  UNL     1      36.607   5.826  24.937  1.00  0.00     0.167 HD
HETATM    5  C7  UNL     1      35.015   6.720  23.868  1.00  0.00     0.182 A 
HETATM    6  N3  UNL     1      34.767   6.714  22.562  1.00  0.00    -0.336 N 
ATOM      7  H3  UNL     1      33.968   7.177  22.129  1.00  0.00     0.168 HD
ENDROOT
BRANCH   5   8
HETATM    8  C8  UNL     1      34.204   7.375  24.893  1.00  0.00     0.328 C 
HETATM    9  O1  UNL     1      33.768   6.712  25.868  1.00  0.00    -0.256 OA
BRANCH   8  10
HETATM   10  O2  UNL     1      33.885   8.722  24.843  1.00  0.00    -0.310 OA
BRANCH  10  11
HETATM   11  C9  UNL     1      32.881   9.252  23.997  1.00  0.00     0.132 C 
HETATM   12  C10 UNL     1      33.025  10.727  23.852  1.00  0.00     0.032 C 
HETATM   13  C11 UNL     1      31.786  11.480  23.516  1.00  0.00     0.002 C 
HETATM   14  C12 UNL     1      30.513  10.872  23.966  1.00  0.00     0.000 C 
HETATM   15  C13 UNL     1      30.719   9.842  25.060  1.00  0.00     0.002 C 
HETATM   16  C14 UNL     1      31.561   8.756  24.424  1.00  0.00     0.032 C 
ENDBRANCH  10  11
ENDBRANCH   8  10
ENDBRANCH   5   8
BRANCH   1  17
HETATM   17  C4  UNL     1      35.743   5.808  20.402  1.00  0.00     0.045 A 
HETATM   18  C1  UNL     1      36.081   6.857  19.582  1.00  0.00     0.101 A 
HETATM   19  N1  UNL     1      36.413   8.202  19.973  1.00  0.00    -0.093 NA
HETATM   20  S1  UNL     1      36.006   6.167  18.024  1.00  0.00    -0.085 SA
HETATM   21  C2  UNL     1      35.553   4.583  18.441  1.00  0.00     0.076 A 
HETATM   22  C3  UNL     1      35.470   4.628  19.800  1.00  0.00     0.055 A 
HETATM   23 CL1  UNL     1      35.014   3.167  20.726  1.00  0.00    -0.083 Cl
ENDBRANCH   1  17
TORSDOF 4
ENDMDL
MODEL 3
REMARK VINA RESULT: -7.605931380      2.665      3.463
REMARK  4 active torsions:
REMARK  status: ('A' for Active; 'I' for Inactive)
REMARK    1  A    between atoms: C4_7  and  C5_8 
REMARK    2  A    between atoms: C7_12  and  C8_13 
REMARK    3  A    between atoms: C8_13  and  O2_15 
REMARK    4  A    between atoms: O2_15  and  C9_16 
ROOT
HETATM    1  C5  UNL     1      33.918   6.232  23.788  1.00  0.00     0.064 A 
HETATM    2  C6  UNL     1      32.766   6.209  23.035  1.00  0.00     0.120 A 
HETATM    3  N2  UNL     1      31.892   7.089  23.605  1.00  0.00    -0.345 N 
ATOM      4  H2  UNL     1      30.950   7.291  23.270  1.00  0.00     0.167 HD
HETATM    5  C7  UNL     1      32.479   7.650  24.688  1.00  0.00     0.182 A 
HETATM    6  N3  UNL     1      33.694   7.116  24.772  1.00  0.00    -0.336 N 
ATOM      7  H3  UNL     1      34.373   7.350  25.497  1.00  0.00     0.168 HD
ENDROOT
BRANCH   5   8
HETATM    8  C8  UNL     1      31.913   8.644  25.597  1.00  0.00     0.328 C 
HETATM    9  O1  UNL     1      31.414   8.284  26.693  1.00  0.00    -0.256 OA
BRANCH   8  10
HETATM   10  O2  UNL     1      31.899   9.999  25.305  1.00  0.00    -0.310 OA
BRANCH  10  11
HETATM   11  C9  UNL     1      32.376  10.536  24.084  1.00  0.00     0.132 C 
HETATM   12  C10 UNL     1      33.804  10.942  24.199  1.00  0.00     0.032 C 
HETATM   13  C11 UNL     1      34.261  12.009  23.267  1.00  0.00     0.002 C 
HETATM   14  C12 UNL     1      33.224  12.963  22.810  1.00  0.00     0.000 C 
HETATM   15  C13 UNL     1      32.000  12.958  23.705  1.00  0.00     0.002 C 
HETATM   16  C14 UNL     1      31.435  11.558  23.592  1.00  0.00     0.032 C 
ENDBRANCH  10  11
ENDBRANCH   8  10
ENDBRANCH   5   8
BRANCH   1  17
HETATM   17  C4  UNL     1      35.169   5.440  23.567  1.00  0.00     0.045 A 
HETATM   18  C1  UNL     1      35.449   4.386  24.402  1.00  0.00     0.101 A 
HETATM   19  N1  UNL     1      34.665   3.917  25.514  1.00  0.00    -0.093 NA
HETATM   20  S1  UNL     1      36.928   3.795  23.792  1.00  0.00    -0.085 SA
HETATM   21  C2  UNL     1      37.156   4.883  22.507  1.00  0.00     0.076 A 
HETATM   22  C3  UNL     1      36.063   5.692  22.583  1.00  0.00     0.055 A 
HETATM   23 CL1  UNL     1      35.843   7.028  21.414  1.00  0.00    -0.083 Cl
ENDBRANCH   1  17
TORSDOF 4
ENDMDL
MODEL 4
REMARK VINA RESULT: -7.568253828      0.824      1.325
REMARK  4 active torsions:
REMARK  status: ('A' for Active; 'I' for Inactive)
REMARK    1  A    between atoms: C4_7  and  C5_8 
REMARK    2  A    between atoms: C7_12  and  C8_13 
REMARK    3  A    between atoms: C8_13  and  O2_15 
REMARK    4  A    between atoms: O2_15  and  C9_16 
ROOT
HETATM    1  C5  UNL     1      35.436   6.527  22.122  1.00  0.00     0.064 A 
HETATM    2  C6  UNL     1      36.099   6.150  23.268  1.00  0.00     0.120 A 
HETATM    3  N2  UNL     1      35.605   6.907  24.290  1.00  0.00    -0.345 N 
ATOM      4  H2  UNL     1      35.902   6.855  25.264  1.00  0.00     0.167 HD
HETATM    5  C7  UNL     1      34.657   7.739  23.799  1.00  0.00     0.182 A 
HETATM    6  N3  UNL     1      34.578   7.488  22.496  1.00  0.00    -0.336 N 
ATOM      7  H3  UNL     1      33.942   7.967  21.858  1.00  0.00     0.168 HD
ENDROOT
BRANCH   5   8
HETATM    8  C8  UNL     1      33.865   8.724  24.534  1.00  0.00     0.328 C 
HETATM    9  O1  UNL     1      33.522   8.496  25.721  1.00  0.00    -0.256 OA
BRANCH   8  10
HETATM   10  O2  UNL     1      33.465   9.926  23.973  1.00  0.00    -0.310 OA
BRANCH  10  11
HETATM   11  C9  UNL     1      32.290  10.613  24.365  1.00  0.00     0.132 C 
HETATM   12  C10 UNL     1      31.075   9.797  24.092  1.00  0.00     0.032 C 
HETATM   13  C11 UNL     1      29.807  10.550  23.891  1.00  0.00     0.002 C 
HETATM   14  C12 UNL     1      29.945  11.926  23.360  1.00  0.00     0.000 C 
HETATM   15  C13 UNL     1      31.292  12.159  22.703  1.00  0.00     0.002 C 
HETATM   16  C14 UNL     1      32.307  11.979  23.811  1.00  0.00     0.032 C 
ENDBRANCH  10  11
ENDBRANCH   8  10
ENDBRANCH   5   8
BRANCH   1  17
HETATM   17  C4  UNL     1      35.624   5.987  20.739  1.00  0.00     0.045 A 
HETATM   18  C1  UNL     1      36.068   6.827  19.747  1.00  0.00     0.101 A 
HETATM   19  N1  UNL     1      36.393   8.224  19.864  1.00  0.00    -0.093 NA
HETATM   20  S1  UNL     1      36.132   5.809  18.380  1.00  0.00    -0.085 SA
HETATM   21  C2  UNL     1      35.601   4.358  19.087  1.00  0.00     0.076 A 
HETATM   22  C3  UNL     1      35.384   4.703  20.386  1.00  0.00     0.055 A 
HETATM   23 CL1  UNL     1      34.801   3.484  21.560  1.00  0.00    -0.083 Cl
ENDBRANCH   1  17
TORSDOF 4
ENDMDL
MODEL 5
REMARK VINA RESULT: -7.532062795      4.201      7.647
REMARK  4 active torsions:
REMARK  status: ('A' for Active; 'I' for Inactive)
REMARK    1  A    between atoms: C4_7  and  C5_8 
REMARK    2  A    between atoms: C7_12  and  C8_13 
REMARK    3  A    between atoms: C8_13  and  O2_15 
REMARK    4  A    between atoms: O2_15  and  C9_16 
ROOT
HETATM    1  C5  UNL     1      33.352   7.850  25.235  1.00  0.00     0.064 A 
HETATM    2  C6  UNL     1      34.106   7.418  26.303  1.00  0.00     0.120 A 
HETATM    3  N2  UNL     1      34.838   6.348  25.875  1.00  0.00    -0.345 N 
ATOM      4  H2  UNL     1      35.494   5.813  26.444  1.00  0.00     0.167 HD
HETATM    5  C7  UNL     1      34.551   6.114  24.573  1.00  0.00     0.182 A 
HETATM    6  N3  UNL     1      33.657   7.030  24.218  1.00  0.00    -0.336 N 
ATOM      7  H3  UNL     1      33.251   7.102  23.284  1.00  0.00     0.168 HD
ENDROOT
BRANCH   5   8
HETATM    8  C8  UNL     1      35.100   5.070  23.711  1.00  0.00     0.328 C 
HETATM    9  O1  UNL     1      34.372   4.520  22.847  1.00  0.00    -0.256 OA
BRANCH   8  10
HETATM   10  O2  UNL     1      36.417   4.645  23.801  1.00  0.00    -0.310 OA
BRANCH  10  11
HETATM   11  C9  UNL     1      36.786   3.336  24.192  1.00  0.00     0.132 C 
HETATM   12  C10 UNL     1      36.160   2.968  25.492  1.00  0.00     0.032 C 
HETATM   13  C11 UNL     1      36.871   1.937  26.296  1.00  0.00     0.002 C 
HETATM   14  C12 UNL     1      38.336   1.851  26.096  1.00  0.00     0.000 C 
HETATM   15  C13 UNL     1      38.906   3.103  25.458  1.00  0.00     0.002 C 
HETATM   16  C14 UNL     1      38.249   3.184  24.096  1.00  0.00     0.032 C 
ENDBRANCH  10  11
ENDBRANCH   8  10
ENDBRANCH   5   8
BRANCH   1  17
HETATM   17  C4  UNL     1      32.387   8.994  25.202  1.00  0.00     0.045 A 
HETATM   18  C1  UNL     1      32.586  10.012  24.302  1.00  0.00     0.101 A 
HETATM   19  N1  UNL     1      33.649  10.133  23.339  1.00  0.00    -0.093 NA
HETATM   20  S1  UNL     1      31.281  11.064  24.616  1.00  0.00    -0.085 SA
HETATM   21  C2  UNL     1      30.520  10.201  25.867  1.00  0.00     0.076 A 
HETATM   22  C3  UNL     1      31.309   9.100  26.013  1.00  0.00     0.055 A 
HETATM   23 CL1  UNL     1      30.910   7.859  27.239  1.00  0.00    -0.083 Cl
ENDBRANCH   1  17
TORSDOF 4
ENDMDL
