MODEL 1
REMARK VINA RESULT: -6.708003534      0.000      0.000
REMARK  4 active torsions:
REMARK  status: ('A' for Active; 'I' for Inactive)
REMARK    1  A    between atoms: C2_2  and  S1_5 
REMARK    2  A    between atoms: S1_5  and  C4_6 
REMARK    3  A    between atoms: C6_9  and  C7_10 
REMARK    4  A    between atoms: C7_10  and  O1_13 
ROOT
HETATM    1  C1  UNL     1      31.681  12.664  23.284  1.00  0.00     0.037 C 
HETATM    2  C2  UNL     1      30.593  11.718  22.864  1.00  0.00     0.155 C 
HETATM    3  C3  UNL     1      29.556  12.457  22.185  1.00  0.00     0.074 C 
HETATM    4  N1  UNL     1      28.728  13.038  21.625  1.00  0.00    -0.196 NA
ENDROOT
BRANCH   2   5
HETATM    5  S1  UNL     1      29.901  10.799  24.255  1.00  0.00    -0.102 SA
BRANCH   5   6
HETATM    6  C4  UNL     1      31.100   9.595  24.879  1.00  0.00     0.066 A 
HETATM    7  S2  UNL     1      32.324   8.846  24.000  1.00  0.00    -0.080 SA
HETATM    8  C5  UNL     1      33.006   7.872  25.263  1.00  0.00     0.030 A 
HETATM    9  C6  UNL     1      34.082   7.002  25.151  1.00  0.00    -0.000 A 
HETATM   10  C12 UNL     1      32.245   8.170  26.338  1.00  0.00     0.039 A 
HETATM   11  C10 UNL     1      34.586   6.252  26.180  1.00  0.00     0.063 A 
HETATM   12  S3  UNL     1      33.790   6.448  27.664  1.00  0.00    -0.083 SA
HETATM   13  C11 UNL     1      32.480   7.567  27.610  1.00  0.00     0.081 A 
HETATM   14  N2  UNL     1      31.856   7.754  28.658  1.00  0.00    -0.393 N 
ATOM     15  H22 UNL     1      32.025   7.324  29.567  1.00  0.00     0.156 HD
ATOM     16  H21 UNL     1      31.081   8.416  28.626  1.00  0.00     0.156 HD
HETATM   17  C13 UNL     1      31.235   9.081  26.137  1.00  0.00     0.072 A 
HETATM   18 CL1  UNL     1      30.066   9.666  27.377  1.00  0.00    -0.081 Cl
BRANCH   9  19
HETATM   19  C7  UNL     1      34.757   6.854  23.838  1.00  0.00     0.079 C 
HETATM   20  C8  UNL     1      35.073   8.176  23.228  1.00  0.00     0.051 C 
HETATM   21  C9  UNL     1      34.049   5.968  22.880  1.00  0.00     0.051 C 
BRANCH  19  22
HETATM   22  O1  UNL     1      35.999   6.234  24.125  1.00  0.00    -0.386 OA
ATOM     23  H1  UNL     1      35.888   5.324  23.874  1.00  0.00     0.211 HD
ENDBRANCH  19  22
ENDBRANCH   9  19
ENDBRANCH   5   6
ENDBRANCH   2   5
TORSDOF 4
ENDMDL
MODEL 2
REMARK VINA RESULT: -6.564694481      6.813      9.321
REMARK  4 active torsions:
REMARK  status: ('A' for Active; 'I' for Inactive)
REMARK    1  A    between atoms: C2_2  and  S1_5 
REMARK    2  A    between atoms: S1_5  and  C4_6 
REMARK    3  A    between atoms: C6_9  and  C7_10 
REMARK    4  A    between atoms: C7_10  and  O1_13 
ROOT
HETATM    1  C1  UNL     1      36.914   2.261  28.427  1.00  0.00     0.037 C 
HETATM    2  C2  UNL     1      37.000   1.455  27.163  1.00  0.00     0.155 C 
HETATM    3  C3  UNL     1      37.997   2.034  26.296  1.00  0.00     0.074 C 
HETATM    4  N1  UNL     1      38.807   2.482  25.602  1.00  0.00    -0.196 NA
ENDROOT
BRANCH   2   5
HETATM    5  S1  UNL     1      35.414   1.341  26.307  1.00  0.00    -0.102 SA
BRANCH   5   6
HETATM    6  C4  UNL     1      35.553   1.994  24.625  1.00  0.00     0.066 A 
HETATM    7  S2  UNL     1      35.289   3.582  24.136  1.00  0.00    -0.080 SA
HETATM    8  C5  UNL     1      35.611   3.400  22.442  1.00  0.00     0.030 A 
HETATM    9  C6  UNL     1      35.555   4.395  21.475  1.00  0.00    -0.000 A 
HETATM   10  C12 UNL     1      35.917   2.090  22.317  1.00  0.00     0.039 A 
HETATM   11  C10 UNL     1      35.818   4.202  20.144  1.00  0.00     0.063 A 
HETATM   12  S3  UNL     1      36.234   2.613  19.721  1.00  0.00    -0.083 SA
HETATM   13  C11 UNL     1      36.251   1.519  21.053  1.00  0.00     0.081 A 
HETATM   14  N2  UNL     1      36.544   0.344  20.811  1.00  0.00    -0.393 N 
ATOM     15  H22 UNL     1      36.783  -0.064  19.908  1.00  0.00     0.156 HD
ATOM     16  H21 UNL     1      36.554  -0.303  21.599  1.00  0.00     0.156 HD
HETATM   17  C13 UNL     1      35.887   1.344  23.470  1.00  0.00     0.072 A 
HETATM   18 CL1  UNL     1      36.245  -0.416  23.610  1.00  0.00    -0.081 Cl
BRANCH   9  19
HETATM   19  C7  UNL     1      35.188   5.774  21.879  1.00  0.00     0.079 C 
HETATM   20  C8  UNL     1      36.101   6.302  22.931  1.00  0.00     0.051 C 
HETATM   21  C9  UNL     1      33.763   5.945  22.259  1.00  0.00     0.051 C 
BRANCH  19  22
HETATM   22  O1  UNL     1      35.400   6.569  20.724  1.00  0.00    -0.386 OA
ATOM     23  H1  UNL     1      36.061   7.204  20.976  1.00  0.00     0.211 HD
ENDBRANCH  19  22
ENDBRANCH   9  19
ENDBRANCH   5   6
ENDBRANCH   2   5
TORSDOF 4
ENDMDL
MODEL 3
REMARK VINA RESULT: -6.483172784      6.642      9.399
REMARK  4 active torsions:
REMARK  status: ('A' for Active; 'I' for Inactive)
REMARK    1  A    between atoms: C2_2  and  S1_5 
REMARK    2  A    between atoms: S1_5  and  C4_6 
REMARK    3  A    between atoms: C6_9  and  C7_10 
REMARK    4  A    between atoms: C7_10  and  O1_13 
ROOT
HETATM    1  C1  UNL     1      38.024   1.830  26.975  1.00  0.00     0.037 C 
HETATM    2  C2  UNL     1      36.763   2.035  27.765  1.00  0.00     0.155 C 
HETATM    3  C3  UNL     1      36.856   1.307  29.007  1.00  0.00     0.074 C 
HETATM    4  N1  UNL     1      36.928   0.741  30.013  1.00  0.00    -0.196 NA
ENDROOT
BRANCH   2   5
HETATM    5  S1  UNL     1      35.288   1.535  26.853  1.00  0.00    -0.102 SA
BRANCH   5   6
HETATM    6  C4  UNL     1      35.389   2.086  25.132  1.00  0.00     0.066 A 
HETATM    7  S2  UNL     1      35.088   3.637  24.552  1.00  0.00    -0.080 SA
HETATM    8  C5  UNL     1      35.389   3.358  22.867  1.00  0.00     0.030 A 
HETATM    9  C6  UNL     1      35.299   4.291  21.843  1.00  0.00    -0.000 A 
HETATM   10  C12 UNL     1      35.718   2.049  22.817  1.00  0.00     0.039 A 
HETATM   11  C10 UNL     1      35.546   4.023  20.522  1.00  0.00     0.063 A 
HETATM   12  S3  UNL     1      35.986   2.419  20.189  1.00  0.00    -0.083 SA
HETATM   13  C11 UNL     1      36.044   1.408  21.585  1.00  0.00     0.081 A 
HETATM   14  N2  UNL     1      36.356   0.226  21.410  1.00  0.00    -0.393 N 
ATOM     15  H22 UNL     1      36.590  -0.232  20.529  1.00  0.00     0.156 HD
ATOM     16  H21 UNL     1      36.390  -0.372  22.235  1.00  0.00     0.156 HD
HETATM   17  C13 UNL     1      35.719   1.374  24.013  1.00  0.00     0.072 A 
HETATM   18 CL1  UNL     1      36.112  -0.368  24.254  1.00  0.00    -0.081 Cl
BRANCH   9  19
HETATM   19  C7  UNL     1      34.912   5.685  22.168  1.00  0.00     0.079 C 
HETATM   20  C8  UNL     1      35.782   6.266  23.229  1.00  0.00     0.051 C 
HETATM   21  C9  UNL     1      33.473   5.866  22.485  1.00  0.00     0.051 C 
BRANCH  19  22
HETATM   22  O1  UNL     1      35.165   6.428  20.987  1.00  0.00    -0.386 OA
ATOM     23  H1  UNL     1      35.793   7.094  21.240  1.00  0.00     0.211 HD
ENDBRANCH  19  22
ENDBRANCH   9  19
ENDBRANCH   5   6
ENDBRANCH   2   5
TORSDOF 4
ENDMDL
MODEL 4
REMARK VINA RESULT: -6.440486022      2.834      4.015
REMARK  4 active torsions:
REMARK  status: ('A' for Active; 'I' for Inactive)
REMARK    1  A    between atoms: C2_2  and  S1_5 
REMARK    2  A    between atoms: S1_5  and  C4_6 
REMARK    3  A    between atoms: C6_9  and  C7_10 
REMARK    4  A    between atoms: C7_10  and  O1_13 
ROOT
HETATM    1  C1  UNL     1      30.479  10.389  23.917  1.00  0.00     0.037 C 
HETATM    2  C2  UNL     1      31.137   9.479  24.914  1.00  0.00     0.155 C 
HETATM    3  C3  UNL     1      30.642   9.783  26.234  1.00  0.00     0.074 C 
HETATM    4  N1  UNL     1      30.238  10.008  27.295  1.00  0.00    -0.196 NA
ENDROOT
BRANCH   2   5
HETATM    5  S1  UNL     1      32.938   9.599  24.876  1.00  0.00    -0.102 SA
BRANCH   5   6
HETATM    6  C4  UNL     1      33.674   7.984  24.523  1.00  0.00     0.066 A 
HETATM    7  S2  UNL     1      33.984   7.330  23.003  1.00  0.00    -0.080 SA
HETATM    8  C5  UNL     1      34.668   5.814  23.497  1.00  0.00     0.030 A 
HETATM    9  C6  UNL     1      35.132   4.803  22.666  1.00  0.00    -0.000 A 
HETATM   10  C12 UNL     1      34.629   5.874  24.846  1.00  0.00     0.039 A 
HETATM   11  C10 UNL     1      35.664   3.619  23.104  1.00  0.00     0.063 A 
HETATM   12  S3  UNL     1      35.728   3.445  24.790  1.00  0.00    -0.083 SA
HETATM   13  C11 UNL     1      35.107   4.801  25.655  1.00  0.00     0.081 A 
HETATM   14  N2  UNL     1      35.123   4.735  26.888  1.00  0.00    -0.393 N 
ATOM     15  H22 UNL     1      35.466   3.969  27.466  1.00  0.00     0.156 HD
ATOM     16  H21 UNL     1      34.756   5.537  27.400  1.00  0.00     0.156 HD
HETATM   17  C13 UNL     1      34.104   7.021  25.391  1.00  0.00     0.072 A 
HETATM   18 CL1  UNL     1      33.923   7.380  27.147  1.00  0.00    -0.081 Cl
BRANCH   9  19
HETATM   19  C7  UNL     1      35.061   4.988  21.197  1.00  0.00     0.079 C 
HETATM   20  C8  UNL     1      35.330   3.717  20.467  1.00  0.00     0.051 C 
HETATM   21  C9  UNL     1      35.895   6.101  20.676  1.00  0.00     0.051 C 
BRANCH  19  22
HETATM   22  O1  UNL     1      33.712   5.330  20.928  1.00  0.00    -0.386 OA
ATOM     23  H1  UNL     1      33.443   4.752  20.223  1.00  0.00     0.211 HD
ENDBRANCH  19  22
ENDBRANCH   9  19
ENDBRANCH   5   6
ENDBRANCH   2   5
TORSDOF 4
ENDMDL
MODEL 5
REMARK VINA RESULT: -6.378752336      6.129      8.469
REMARK  4 active torsions:
REMARK  status: ('A' for Active; 'I' for Inactive)
REMARK    1  A    between atoms: C2_2  and  S1_5 
REMARK    2  A    between atoms: S1_5  and  C4_6 
REMARK    3  A    between atoms: C6_9  and  C7_10 
REMARK    4  A    between atoms: C7_10  and  O1_13 
ROOT
HETATM    1  C1  UNL     1      34.724   7.855  23.211  1.00  0.00     0.037 C 
HETATM    2  C2  UNL     1      34.655   6.481  23.811  1.00  0.00     0.155 C 
HETATM    3  C3  UNL     1      34.470   6.593  25.237  1.00  0.00     0.074 C 
HETATM    4  N1  UNL     1      34.304   6.673  26.379  1.00  0.00    -0.196 NA
ENDROOT
BRANCH   2   5
HETATM    5  S1  UNL     1      36.121   5.493  23.445  1.00  0.00    -0.102 SA
BRANCH   5   6
HETATM    6  C4  UNL     1      35.871   4.522  21.938  1.00  0.00     0.066 A 
HETATM    7  S2  UNL     1      35.222   5.069  20.484  1.00  0.00    -0.080 SA
HETATM    8  C5  UNL     1      35.316   3.595  19.575  1.00  0.00     0.030 A 
HETATM    9  C6  UNL     1      34.915   3.404  18.260  1.00  0.00    -0.000 A 
HETATM   10  C12 UNL     1      35.858   2.719  20.449  1.00  0.00     0.039 A 
HETATM   11  C10 UNL     1      35.009   2.217  17.583  1.00  0.00     0.063 A 
HETATM   12  S3  UNL     1      35.669   0.935  18.475  1.00  0.00    -0.083 SA
HETATM   13  C11 UNL     1      36.106   1.361  20.088  1.00  0.00     0.081 A 
HETATM   14  N2  UNL     1      36.591   0.471  20.792  1.00  0.00    -0.393 N 
ATOM     15  H22 UNL     1      36.769  -0.499  20.534  1.00  0.00     0.156 HD
ATOM     16  H21 UNL     1      36.850   0.722  21.746  1.00  0.00     0.156 HD
HETATM   17  C13 UNL     1      36.152   3.207  21.700  1.00  0.00     0.072 A 
HETATM   18 CL1  UNL     1      36.875   2.277  23.063  1.00  0.00    -0.081 Cl
BRANCH   9  19
HETATM   19  C7  UNL     1      34.342   4.546  17.507  1.00  0.00     0.079 C 
HETATM   20  C8  UNL     1      33.955   4.157  16.123  1.00  0.00     0.051 C 
HETATM   21  C9  UNL     1      35.183   5.770  17.513  1.00  0.00     0.051 C 
BRANCH  19  22
HETATM   22  O1  UNL     1      33.141   4.875  18.185  1.00  0.00    -0.386 OA
ATOM     23  H1  UNL     1      32.474   4.907  17.509  1.00  0.00     0.211 HD
ENDBRANCH  19  22
ENDBRANCH   9  19
ENDBRANCH   5   6
ENDBRANCH   2   5
TORSDOF 4
ENDMDL
