MODEL 1
REMARK VINA RESULT: -7.366133419      0.000      0.000
REMARK  6 active torsions:
REMARK  status: ('A' for Active; 'I' for Inactive)
REMARK    1  A    between atoms: N2_3  and  C2_5 
REMARK    2  A    between atoms: C2_5  and  S2_7 
REMARK    3  A    between atoms: S2_7  and  C3_8 
REMARK    4  A    between atoms: N3_12  and  C5_13 
REMARK    5  A    between atoms: C5_13  and  C6_14 
REMARK    6  A    between atoms: C12_20  and  O2_21 
ROOT
HETATM    1  N1  UNL     1      36.597   8.613  19.908  1.00  0.00    -0.172 NA
HETATM    2  C1  UNL     1      36.189   7.690  20.506  1.00  0.00     0.183 C 
HETATM    3  N2  UNL     1      35.735   6.566  21.162  1.00  0.00    -0.278 N 
ATOM      4  H2  UNL     1      35.950   5.676  20.713  1.00  0.00     0.179 HD
ENDROOT
BRANCH   3   5
HETATM    5  C2  UNL     1      35.028   6.483  22.345  1.00  0.00     0.154 C 
HETATM    6  S1  UNL     1      33.742   5.328  22.216  1.00  0.00    -0.051 SA
BRANCH   5   7
HETATM    7  S2  UNL     1      35.060   7.193  23.897  1.00  0.00    -0.030 SA
BRANCH   7   8
HETATM    8  C3  UNL     1      33.890   8.380  24.377  1.00  0.00     0.173 A 
HETATM    9  O1  UNL     1      32.841   8.294  25.126  1.00  0.00    -0.272 OA
HETATM   10  C4  UNL     1      32.201   9.417  25.258  1.00  0.00     0.225 A 
HETATM   11  S3  UNL     1      30.844   9.612  26.140  1.00  0.00    -0.032 SA
HETATM   12  N3  UNL     1      32.836  10.369  24.556  1.00  0.00    -0.291 N 
HETATM   13  C12 UNL     1      33.889   9.747  23.999  1.00  0.00     0.187 A 
BRANCH  12  14
HETATM   14  C5  UNL     1      32.461  11.764  24.430  1.00  0.00     0.172 C 
BRANCH  14  15
HETATM   15  C6  UNL     1      31.751  12.092  23.198  1.00  0.00    -0.040 A 
HETATM   16  C7  UNL     1      30.364  11.885  23.188  1.00  0.00     0.009 A 
HETATM   17  C8  UNL     1      29.602  12.162  22.093  1.00  0.00     0.001 A 
HETATM   18  C9  UNL     1      30.196  12.660  20.956  1.00  0.00     0.000 A 
HETATM   19  C10 UNL     1      31.551  12.858  20.980  1.00  0.00     0.001 A 
HETATM   20  C11 UNL     1      32.365  12.594  22.061  1.00  0.00     0.009 A 
ENDBRANCH  14  15
ENDBRANCH  12  14
BRANCH  13  21
HETATM   21  O2  UNL     1      34.854  10.282  23.183  1.00  0.00    -0.343 OA
ATOM     22  H2  UNL     1      35.714  10.523  23.505  1.00  0.00     0.219 HD
ENDBRANCH  13  21
ENDBRANCH   7   8
ENDBRANCH   5   7
ENDBRANCH   3   5
TORSDOF 6
ENDMDL
MODEL 2
REMARK VINA RESULT: -7.360370498      1.218      1.754
REMARK  6 active torsions:
REMARK  status: ('A' for Active; 'I' for Inactive)
REMARK    1  A    between atoms: N2_3  and  C2_5 
REMARK    2  A    between atoms: C2_5  and  S2_7 
REMARK    3  A    between atoms: S2_7  and  C3_8 
REMARK    4  A    between atoms: N3_12  and  C5_13 
REMARK    5  A    between atoms: C5_13  and  C6_14 
REMARK    6  A    between atoms: C12_20  and  O2_21 
ROOT
HETATM    1  N1  UNL     1      36.581   8.568  19.988  1.00  0.00    -0.172 NA
HETATM    2  C1  UNL     1      36.224   7.514  20.361  1.00  0.00     0.183 C 
HETATM    3  N2  UNL     1      35.805   6.256  20.735  1.00  0.00    -0.278 N 
ATOM      4  H2  UNL     1      35.668   5.591  19.973  1.00  0.00     0.179 HD
ENDROOT
BRANCH   3   5
HETATM    5  C2  UNL     1      35.547   5.773  22.002  1.00  0.00     0.154 C 
HETATM    6  S1  UNL     1      36.999   5.190  22.749  1.00  0.00    -0.051 SA
BRANCH   5   7
HETATM    7  S2  UNL     1      34.206   5.587  23.042  1.00  0.00    -0.030 SA
BRANCH   7   8
HETATM    8  C3  UNL     1      33.536   6.931  23.909  1.00  0.00     0.173 A 
HETATM    9  O1  UNL     1      32.673   6.987  24.869  1.00  0.00    -0.272 OA
HETATM   10  C4  UNL     1      32.413   8.197  25.268  1.00  0.00     0.225 A 
HETATM   11  S3  UNL     1      31.366   8.575  26.458  1.00  0.00    -0.032 SA
HETATM   12  N3  UNL     1      33.140   9.062  24.544  1.00  0.00    -0.291 N 
HETATM   13  C12 UNL     1      33.846   8.299  23.691  1.00  0.00     0.187 A 
BRANCH  12  14
HETATM   14  C5  UNL     1      33.157  10.507  24.661  1.00  0.00     0.172 C 
BRANCH  14  15
HETATM   15  C6  UNL     1      32.295  11.202  23.709  1.00  0.00    -0.040 A 
HETATM   16  C7  UNL     1      32.927  12.018  22.758  1.00  0.00     0.009 A 
HETATM   17  C8  UNL     1      32.221  12.709  21.819  1.00  0.00     0.001 A 
HETATM   18  C9  UNL     1      30.849  12.614  21.790  1.00  0.00     0.000 A 
HETATM   19  C10 UNL     1      30.246  11.814  22.724  1.00  0.00     0.001 A 
HETATM   20  C11 UNL     1      30.914  11.096  23.693  1.00  0.00     0.009 A 
ENDBRANCH  14  15
ENDBRANCH  12  14
BRANCH  13  21
HETATM   21  O2  UNL     1      34.742   8.703  22.735  1.00  0.00    -0.343 OA
ATOM     22  H2  UNL     1      34.935   9.620  22.577  1.00  0.00     0.219 HD
ENDBRANCH  13  21
ENDBRANCH   7   8
ENDBRANCH   5   7
ENDBRANCH   3   5
TORSDOF 6
ENDMDL
MODEL 3
REMARK VINA RESULT: -7.321083356      1.076      1.510
REMARK  6 active torsions:
REMARK  status: ('A' for Active; 'I' for Inactive)
REMARK    1  A    between atoms: N2_3  and  C2_5 
REMARK    2  A    between atoms: C2_5  and  S2_7 
REMARK    3  A    between atoms: S2_7  and  C3_8 
REMARK    4  A    between atoms: N3_12  and  C5_13 
REMARK    5  A    between atoms: C5_13  and  C6_14 
REMARK    6  A    between atoms: C12_20  and  O2_21 
ROOT
HETATM    1  N1  UNL     1      36.245   6.348  18.026  1.00  0.00    -0.172 NA
HETATM    2  C1  UNL     1      36.136   6.681  19.147  1.00  0.00     0.183 C 
HETATM    3  N2  UNL     1      36.035   7.130  20.446  1.00  0.00    -0.278 N 
ATOM      4  H2  UNL     1      36.372   8.079  20.612  1.00  0.00     0.179 HD
ENDROOT
BRANCH   3   5
HETATM    5  C2  UNL     1      35.538   6.470  21.551  1.00  0.00     0.154 C 
HETATM    6  S1  UNL     1      34.828   4.954  21.098  1.00  0.00    -0.051 SA
BRANCH   5   7
HETATM    7  S2  UNL     1      35.425   6.720  23.236  1.00  0.00    -0.030 SA
BRANCH   7   8
HETATM    8  C3  UNL     1      34.295   7.847  23.913  1.00  0.00     0.173 A 
HETATM    9  O1  UNL     1      33.286   7.680  24.702  1.00  0.00    -0.272 OA
HETATM   10  C4  UNL     1      32.666   8.783  24.998  1.00  0.00     0.225 A 
HETATM   11  S3  UNL     1      31.359   8.880  25.968  1.00  0.00    -0.032 SA
HETATM   12  N3  UNL     1      33.273   9.807  24.378  1.00  0.00    -0.291 N 
HETATM   13  C12 UNL     1      34.289   9.250  23.696  1.00  0.00     0.187 A 
BRANCH  12  14
HETATM   14  C5  UNL     1      32.908  11.209  24.435  1.00  0.00     0.172 C 
BRANCH  14  15
HETATM   15  C6  UNL     1      31.945  11.627  23.421  1.00  0.00    -0.040 A 
HETATM   16  C7  UNL     1      32.449  12.327  22.314  1.00  0.00     0.009 A 
HETATM   17  C8  UNL     1      31.640  12.759  21.307  1.00  0.00     0.001 A 
HETATM   18  C9  UNL     1      30.289  12.510  21.361  1.00  0.00     0.000 A 
HETATM   19  C10 UNL     1      29.810  11.825  22.446  1.00  0.00     0.001 A 
HETATM   20  C11 UNL     1      30.586  11.367  23.491  1.00  0.00     0.009 A 
ENDBRANCH  14  15
ENDBRANCH  12  14
BRANCH  13  21
HETATM   21  O2  UNL     1      35.215   9.871  22.898  1.00  0.00    -0.343 OA
ATOM     22  H2  UNL     1      35.099   9.956  21.959  1.00  0.00     0.219 HD
ENDBRANCH  13  21
ENDBRANCH   7   8
ENDBRANCH   5   7
ENDBRANCH   3   5
TORSDOF 6
ENDMDL
MODEL 4
REMARK VINA RESULT: -6.920780413      1.780      2.082
REMARK  6 active torsions:
REMARK  status: ('A' for Active; 'I' for Inactive)
REMARK    1  A    between atoms: N2_3  and  C2_5 
REMARK    2  A    between atoms: C2_5  and  S2_7 
REMARK    3  A    between atoms: S2_7  and  C3_8 
REMARK    4  A    between atoms: N3_12  and  C5_13 
REMARK    5  A    between atoms: C5_13  and  C6_14 
REMARK    6  A    between atoms: C12_20  and  O2_21 
ROOT
HETATM    1  N1  UNL     1      38.704   4.091  22.944  1.00  0.00    -0.172 NA
HETATM    2  C1  UNL     1      37.736   4.680  23.251  1.00  0.00     0.183 C 
HETATM    3  N2  UNL     1      36.627   5.383  23.670  1.00  0.00    -0.278 N 
ATOM      4  H2  UNL     1      36.672   5.752  24.619  1.00  0.00     0.179 HD
ENDROOT
BRANCH   3   5
HETATM    5  C2  UNL     1      35.464   5.654  22.977  1.00  0.00     0.154 C 
HETATM    6  S1  UNL     1      35.797   5.941  21.300  1.00  0.00    -0.051 SA
BRANCH   5   7
HETATM    7  S2  UNL     1      33.794   5.786  23.301  1.00  0.00    -0.030 SA
BRANCH   7   8
HETATM    8  C3  UNL     1      33.131   7.172  24.106  1.00  0.00     0.173 A 
HETATM    9  O1  UNL     1      32.291   7.275  25.082  1.00  0.00    -0.272 OA
HETATM   10  C4  UNL     1      32.030   8.504  25.418  1.00  0.00     0.225 A 
HETATM   11  S3  UNL     1      31.008   8.941  26.610  1.00  0.00    -0.032 SA
HETATM   12  N3  UNL     1      32.731   9.332  24.629  1.00  0.00    -0.291 N 
HETATM   13  C12 UNL     1      33.424   8.527  23.804  1.00  0.00     0.187 A 
BRANCH  12  14
HETATM   14  C5  UNL     1      32.738  10.782  24.664  1.00  0.00     0.172 C 
BRANCH  14  15
HETATM   15  C6  UNL     1      32.009  11.417  23.570  1.00  0.00    -0.040 A 
HETATM   16  C7  UNL     1      30.615  11.251  23.553  1.00  0.00     0.009 A 
HETATM   17  C8  UNL     1      29.837  11.805  22.582  1.00  0.00     0.001 A 
HETATM   18  C9  UNL     1      30.417  12.551  21.583  1.00  0.00     0.000 A 
HETATM   19  C10 UNL     1      31.778  12.706  21.613  1.00  0.00     0.001 A 
HETATM   20  C11 UNL     1      32.609  12.166  22.571  1.00  0.00     0.009 A 
ENDBRANCH  14  15
ENDBRANCH  12  14
BRANCH  13  21
HETATM   21  O2  UNL     1      34.293   8.884  22.806  1.00  0.00    -0.343 OA
ATOM     22  H2  UNL     1      34.560   8.277  22.125  1.00  0.00     0.219 HD
ENDBRANCH  13  21
ENDBRANCH   7   8
ENDBRANCH   5   7
ENDBRANCH   3   5
TORSDOF 6
ENDMDL
MODEL 5
REMARK VINA RESULT: -6.887745001      2.021      2.564
REMARK  6 active torsions:
REMARK  status: ('A' for Active; 'I' for Inactive)
REMARK    1  A    between atoms: N2_3  and  C2_5 
REMARK    2  A    between atoms: C2_5  and  S2_7 
REMARK    3  A    between atoms: S2_7  and  C3_8 
REMARK    4  A    between atoms: N3_12  and  C5_13 
REMARK    5  A    between atoms: C5_13  and  C6_14 
REMARK    6  A    between atoms: C12_20  and  O2_21 
ROOT
HETATM    1  N1  UNL     1      38.719   3.088  22.503  1.00  0.00    -0.172 NA
HETATM    2  C1  UNL     1      38.043   3.886  23.036  1.00  0.00     0.183 C 
HETATM    3  N2  UNL     1      37.303   4.844  23.693  1.00  0.00    -0.278 N 
ATOM      4  H2  UNL     1      37.826   5.444  24.331  1.00  0.00     0.179 HD
ENDROOT
BRANCH   3   5
HETATM    5  C2  UNL     1      35.950   5.102  23.604  1.00  0.00     0.154 C 
HETATM    6  S1  UNL     1      35.042   3.972  24.556  1.00  0.00    -0.051 SA
BRANCH   5   7
HETATM    7  S2  UNL     1      34.917   6.215  22.825  1.00  0.00    -0.030 SA
BRANCH   7   8
HETATM    8  C3  UNL     1      33.930   7.321  23.724  1.00  0.00     0.173 A 
HETATM    9  O1  UNL     1      33.015   7.123  24.614  1.00  0.00    -0.272 OA
HETATM   10  C4  UNL     1      32.486   8.220  25.072  1.00  0.00     0.225 A 
HETATM   11  S3  UNL     1      31.310   8.281  26.199  1.00  0.00    -0.032 SA
HETATM   12  N3  UNL     1      33.063   9.270  24.467  1.00  0.00    -0.291 N 
HETATM   13  C12 UNL     1      33.963   8.736  23.623  1.00  0.00     0.187 A 
BRANCH  12  14
HETATM   14  C5  UNL     1      32.773  10.674  24.681  1.00  0.00     0.172 C 
BRANCH  14  15
HETATM   15  C6  UNL     1      31.884  11.268  23.687  1.00  0.00    -0.040 A 
HETATM   16  C7  UNL     1      32.471  12.109  22.730  1.00  0.00     0.009 A 
HETATM   17  C8  UNL     1      31.736  12.712  21.754  1.00  0.00     0.001 A 
HETATM   18  C9  UNL     1      30.378  12.501  21.692  1.00  0.00     0.000 A 
HETATM   19  C10 UNL     1      29.818  11.677  22.632  1.00  0.00     0.001 A 
HETATM   20  C11 UNL     1      30.517  11.044  23.639  1.00  0.00     0.009 A 
ENDBRANCH  14  15
ENDBRANCH  12  14
BRANCH  13  21
HETATM   21  O2  UNL     1      34.815   9.390  22.770  1.00  0.00    -0.343 OA
ATOM     22  H2  UNL     1      35.145  10.261  22.952  1.00  0.00     0.219 HD
ENDBRANCH  13  21
ENDBRANCH   7   8
ENDBRANCH   5   7
ENDBRANCH   3   5
TORSDOF 6
ENDMDL
