MODEL 1
REMARK VINA RESULT: -6.671388358      0.000      0.000
REMARK  6 active torsions:
REMARK  status: ('A' for Active; 'I' for Inactive)
REMARK    1  A    between atoms: S1_2  and  C2_3 
REMARK    2  A    between atoms: C2_3  and  S2_7 
REMARK    3  A    between atoms: S2_7  and  S3_8 
REMARK    4  A    between atoms: S3_8  and  S4_9 
REMARK    5  A    between atoms: S4_9  and  C3_10 
REMARK    6  A    between atoms: N3_12  and  C4_14 
ROOT
HETATM    1  C4  UNL     1      31.950  10.047  24.412  1.00  0.00     0.054 A 
HETATM    2  C5  UNL     1      30.606   9.872  24.666  1.00  0.00     0.034 A 
HETATM    3  C6  UNL     1      29.692  10.731  24.095  1.00  0.00     0.044 A 
HETATM    4  C7  UNL     1      30.099  11.772  23.265  1.00  0.00     0.117 A 
HETATM    5  F1  UNL     1      29.243  12.630  22.689  1.00  0.00    -0.206 F 
HETATM    6  C8  UNL     1      31.450  11.932  23.022  1.00  0.00     0.067 A 
HETATM    7  C9  UNL     1      32.369  11.085  23.584  1.00  0.00     0.074 A 
HETATM    8  C10 UNL     1      33.795  11.232  23.342  1.00  0.00     0.102 C 
HETATM    9  N4  UNL     1      34.927  11.355  23.132  1.00  0.00    -0.191 NA
ENDROOT
BRANCH   1  10
HETATM   10  N3  UNL     1      32.862   9.156  25.009  1.00  0.00    -0.337 N 
HETATM   11  C3  UNL     1      33.115   7.969  24.619  1.00  0.00     0.166 C 
HETATM   12  N2  UNL     1      32.476   7.382  23.484  1.00  0.00    -0.074 NA
ATOM     13  H3  UNL     1      33.368   9.491  25.828  1.00  0.00     0.167 HD
BRANCH  11  14
HETATM   14  S4  UNL     1      34.314   7.020  25.534  1.00  0.00    -0.013 SA
BRANCH  14  15
HETATM   15  S3  UNL     1      35.022   5.354  24.444  1.00  0.00    -0.010 SA
BRANCH  15  16
HETATM   16  S2  UNL     1      35.871   5.827  22.611  1.00  0.00    -0.021 SA
BRANCH  16  17
HETATM   17  C2  UNL     1      35.001   5.327  21.170  1.00  0.00     0.112 C 
HETATM   18  N1  UNL     1      33.719   5.492  21.215  1.00  0.00    -0.388 N 
ATOM     19  H12 UNL     1      33.214   5.201  20.378  1.00  0.00     0.157 HD
ATOM     20  H11 UNL     1      33.299   5.889  22.055  1.00  0.00     0.157 HD
BRANCH  17  21
HETATM   21  S1  UNL     1      35.721   4.646  19.729  1.00  0.00    -0.109 SA
HETATM   22  C1  UNL     1      35.976   5.837  18.424  1.00  0.00     0.097 C 
ENDBRANCH  17  21
ENDBRANCH  16  17
ENDBRANCH  15  16
ENDBRANCH  14  15
ENDBRANCH  11  14
ENDBRANCH   1  10
TORSDOF 6
ENDMDL
MODEL 2
REMARK VINA RESULT: -6.618774088      1.950      2.458
REMARK  6 active torsions:
REMARK  status: ('A' for Active; 'I' for Inactive)
REMARK    1  A    between atoms: S1_2  and  C2_3 
REMARK    2  A    between atoms: C2_3  and  S2_7 
REMARK    3  A    between atoms: S2_7  and  S3_8 
REMARK    4  A    between atoms: S3_8  and  S4_9 
REMARK    5  A    between atoms: S4_9  and  C3_10 
REMARK    6  A    between atoms: N3_12  and  C4_14 
ROOT
HETATM    1  C4  UNL     1      31.130  11.162  23.762  1.00  0.00     0.054 A 
HETATM    2  C5  UNL     1      29.823  11.219  23.324  1.00  0.00     0.034 A 
HETATM    3  C6  UNL     1      29.518  11.952  22.198  1.00  0.00     0.044 A 
HETATM    4  C7  UNL     1      30.503  12.638  21.493  1.00  0.00     0.117 A 
HETATM    5  F1  UNL     1      30.250  13.363  20.393  1.00  0.00    -0.206 F 
HETATM    6  C8  UNL     1      31.807  12.569  21.947  1.00  0.00     0.067 A 
HETATM    7  C9  UNL     1      32.124  11.844  23.064  1.00  0.00     0.074 A 
HETATM    8  C10 UNL     1      33.488  11.756  23.560  1.00  0.00     0.102 C 
HETATM    9  N4  UNL     1      34.580  11.686  23.937  1.00  0.00    -0.191 NA
ENDROOT
BRANCH   1  10
HETATM   10  N3  UNL     1      31.414  10.405  24.915  1.00  0.00    -0.337 N 
HETATM   11  C3  UNL     1      31.705   9.165  24.945  1.00  0.00     0.166 C 
HETATM   12  N2  UNL     1      31.781   8.366  23.763  1.00  0.00    -0.074 NA
ATOM     13  H3  UNL     1      31.384  10.895  25.808  1.00  0.00     0.167 HD
BRANCH  11  14
HETATM   14  S4  UNL     1      32.029   8.414  26.528  1.00  0.00    -0.013 SA
BRANCH  14  15
HETATM   15  S3  UNL     1      33.991   7.641  26.666  1.00  0.00    -0.010 SA
BRANCH  15  16
HETATM   16  S2  UNL     1      34.550   6.437  25.072  1.00  0.00    -0.021 SA
BRANCH  16  17
HETATM   17  C2  UNL     1      35.030   7.242  23.586  1.00  0.00     0.112 C 
HETATM   18  N1  UNL     1      34.971   8.533  23.615  1.00  0.00    -0.388 N 
ATOM     19  H12 UNL     1      35.249   9.000  22.753  1.00  0.00     0.157 HD
ATOM     20  H11 UNL     1      34.659   8.996  24.469  1.00  0.00     0.157 HD
BRANCH  17  21
HETATM   21  S1  UNL     1      35.563   6.447  22.123  1.00  0.00    -0.109 SA
HETATM   22  C1  UNL     1      36.723   5.121  22.410  1.00  0.00     0.097 C 
ENDBRANCH  17  21
ENDBRANCH  16  17
ENDBRANCH  15  16
ENDBRANCH  14  15
ENDBRANCH  11  14
ENDBRANCH   1  10
TORSDOF 6
ENDMDL
MODEL 3
REMARK VINA RESULT: -6.592076565      2.035      2.873
REMARK  6 active torsions:
REMARK  status: ('A' for Active; 'I' for Inactive)
REMARK    1  A    between atoms: S1_2  and  C2_3 
REMARK    2  A    between atoms: C2_3  and  S2_7 
REMARK    3  A    between atoms: S2_7  and  S3_8 
REMARK    4  A    between atoms: S3_8  and  S4_9 
REMARK    5  A    between atoms: S4_9  and  C3_10 
REMARK    6  A    between atoms: N3_12  and  C4_14 
ROOT
HETATM    1  C4  UNL     1      33.008  10.598  23.856  1.00  0.00     0.054 A 
HETATM    2  C5  UNL     1      34.238  11.207  23.715  1.00  0.00     0.034 A 
HETATM    3  C6  UNL     1      34.304  12.578  23.592  1.00  0.00     0.044 A 
HETATM    4  C7  UNL     1      33.154  13.362  23.607  1.00  0.00     0.117 A 
HETATM    5  F1  UNL     1      33.174  14.698  23.490  1.00  0.00    -0.206 F 
HETATM    6  C8  UNL     1      31.931  12.735  23.750  1.00  0.00     0.067 A 
HETATM    7  C9  UNL     1      31.850  11.373  23.873  1.00  0.00     0.074 A 
HETATM    8  C10 UNL     1      30.575  10.691  24.025  1.00  0.00     0.102 C 
HETATM    9  N4  UNL     1      29.554  10.163  24.157  1.00  0.00    -0.191 NA
ENDROOT
BRANCH   1  10
HETATM   10  N3  UNL     1      32.968   9.197  23.981  1.00  0.00    -0.337 N 
HETATM   11  C3  UNL     1      33.833   8.379  23.527  1.00  0.00     0.166 C 
HETATM   12  N2  UNL     1      34.993   8.809  22.811  1.00  0.00    -0.074 NA
ATOM     13  H3  UNL     1      32.173   8.799  24.480  1.00  0.00     0.167 HD
BRANCH  11  14
HETATM   14  S4  UNL     1      33.575   6.638  23.806  1.00  0.00    -0.013 SA
BRANCH  14  15
HETATM   15  S3  UNL     1      35.271   5.482  23.305  1.00  0.00    -0.010 SA
BRANCH  15  16
HETATM   16  S2  UNL     1      35.297   4.808  21.343  1.00  0.00    -0.021 SA
BRANCH  16  17
HETATM   17  C2  UNL     1      35.814   5.947  20.109  1.00  0.00     0.112 C 
HETATM   18  N1  UNL     1      36.152   7.116  20.545  1.00  0.00    -0.388 N 
ATOM     19  H12 UNL     1      36.452   7.777  19.829  1.00  0.00     0.157 HD
ATOM     20  H11 UNL     1      36.101   7.306  21.546  1.00  0.00     0.157 HD
BRANCH  17  21
HETATM   21  S1  UNL     1      35.901   5.621  18.393  1.00  0.00    -0.109 SA
HETATM   22  C1  UNL     1      34.444   4.821  17.742  1.00  0.00     0.097 C 
ENDBRANCH  17  21
ENDBRANCH  16  17
ENDBRANCH  15  16
ENDBRANCH  14  15
ENDBRANCH  11  14
ENDBRANCH   1  10
TORSDOF 6
ENDMDL
MODEL 4
REMARK VINA RESULT: -6.422009029      2.284      2.733
REMARK  6 active torsions:
REMARK  status: ('A' for Active; 'I' for Inactive)
REMARK    1  A    between atoms: S1_2  and  C2_3 
REMARK    2  A    between atoms: C2_3  and  S2_7 
REMARK    3  A    between atoms: S2_7  and  S3_8 
REMARK    4  A    between atoms: S3_8  and  S4_9 
REMARK    5  A    between atoms: S4_9  and  C3_10 
REMARK    6  A    between atoms: N3_12  and  C4_14 
ROOT
HETATM    1  C4  UNL     1      31.968  10.013  24.416  1.00  0.00     0.054 A 
HETATM    2  C5  UNL     1      30.627   9.829  24.683  1.00  0.00     0.034 A 
HETATM    3  C6  UNL     1      29.702  10.683  24.123  1.00  0.00     0.044 A 
HETATM    4  C7  UNL     1      30.094  11.730  23.293  1.00  0.00     0.117 A 
HETATM    5  F1  UNL     1      29.227  12.584  22.728  1.00  0.00    -0.206 F 
HETATM    6  C8  UNL     1      31.442  11.899  23.037  1.00  0.00     0.067 A 
HETATM    7  C9  UNL     1      32.371  11.057  23.587  1.00  0.00     0.074 A 
HETATM    8  C10 UNL     1      33.794  11.214  23.332  1.00  0.00     0.102 C 
HETATM    9  N4  UNL     1      34.923  11.345  23.111  1.00  0.00    -0.191 NA
ENDROOT
BRANCH   1  10
HETATM   10  N3  UNL     1      32.892   9.126  25.001  1.00  0.00    -0.337 N 
HETATM   11  C3  UNL     1      33.173   7.955  24.585  1.00  0.00     0.166 C 
HETATM   12  N2  UNL     1      32.559   7.384  23.428  1.00  0.00    -0.074 NA
ATOM     13  H3  UNL     1      33.380   9.451  25.835  1.00  0.00     0.167 HD
BRANCH  11  14
HETATM   14  S4  UNL     1      34.382   7.008  25.489  1.00  0.00    -0.013 SA
BRANCH  14  15
HETATM   15  S3  UNL     1      34.882   5.202  24.514  1.00  0.00    -0.010 SA
BRANCH  15  16
HETATM   16  S2  UNL     1      36.471   5.356  23.189  1.00  0.00    -0.021 SA
BRANCH  16  17
HETATM   17  C2  UNL     1      37.737   4.144  23.308  1.00  0.00     0.112 C 
HETATM   18  N1  UNL     1      38.785   4.370  22.585  1.00  0.00    -0.388 N 
ATOM     19  H12 UNL     1      39.520   3.666  22.654  1.00  0.00     0.157 HD
ATOM     20  H11 UNL     1      38.817   5.209  22.006  1.00  0.00     0.157 HD
BRANCH  17  21
HETATM   21  S1  UNL     1      37.682   2.706  24.300  1.00  0.00    -0.109 SA
HETATM   22  C1  UNL     1      38.861   2.714  25.640  1.00  0.00     0.097 C 
ENDBRANCH  17  21
ENDBRANCH  16  17
ENDBRANCH  15  16
ENDBRANCH  14  15
ENDBRANCH  11  14
ENDBRANCH   1  10
TORSDOF 6
ENDMDL
MODEL 5
REMARK VINA RESULT: -6.366359051      2.123      2.962
REMARK  6 active torsions:
REMARK  status: ('A' for Active; 'I' for Inactive)
REMARK    1  A    between atoms: S1_2  and  C2_3 
REMARK    2  A    between atoms: C2_3  and  S2_7 
REMARK    3  A    between atoms: S2_7  and  S3_8 
REMARK    4  A    between atoms: S3_8  and  S4_9 
REMARK    5  A    between atoms: S4_9  and  C3_10 
REMARK    6  A    between atoms: N3_12  and  C4_14 
ROOT
HETATM    1  C4  UNL     1      32.786  10.631  23.645  1.00  0.00     0.054 A 
HETATM    2  C5  UNL     1      34.091  11.078  23.654  1.00  0.00     0.034 A 
HETATM    3  C6  UNL     1      34.341  12.433  23.678  1.00  0.00     0.044 A 
HETATM    4  C7  UNL     1      33.303  13.360  23.693  1.00  0.00     0.117 A 
HETATM    5  F1  UNL     1      33.502  14.687  23.716  1.00  0.00    -0.206 F 
HETATM    6  C8  UNL     1      32.002  12.893  23.684  1.00  0.00     0.067 A 
HETATM    7  C9  UNL     1      31.739  11.549  23.661  1.00  0.00     0.074 A 
HETATM    8  C10 UNL     1      30.380  11.034  23.652  1.00  0.00     0.102 C 
HETATM    9  N4  UNL     1      29.292  10.639  23.656  1.00  0.00    -0.191 NA
ENDROOT
BRANCH   1  10
HETATM   10  N3  UNL     1      32.558   9.242  23.621  1.00  0.00    -0.337 N 
HETATM   11  C3  UNL     1      32.366   8.496  24.635  1.00  0.00     0.166 C 
HETATM   12  N2  UNL     1      32.358   9.004  25.971  1.00  0.00    -0.074 NA
ATOM     13  H3  UNL     1      32.546   8.791  22.706  1.00  0.00     0.167 HD
BRANCH  11  14
HETATM   14  S4  UNL     1      32.096   6.755  24.362  1.00  0.00    -0.013 SA
BRANCH  14  15
HETATM   15  S3  UNL     1      33.159   6.028  22.688  1.00  0.00    -0.010 SA
BRANCH  15  16
HETATM   16  S2  UNL     1      35.066   6.817  22.476  1.00  0.00    -0.021 SA
BRANCH  16  17
HETATM   17  C2  UNL     1      35.820   6.684  20.895  1.00  0.00     0.112 C 
HETATM   18  N1  UNL     1      36.391   7.761  20.465  1.00  0.00    -0.388 N 
ATOM     19  H12 UNL     1      36.828   7.685  19.547  1.00  0.00     0.157 HD
ATOM     20  H11 UNL     1      36.373   8.599  21.047  1.00  0.00     0.157 HD
BRANCH  17  21
HETATM   21  S1  UNL     1      35.850   5.249  19.897  1.00  0.00    -0.109 SA
HETATM   22  C1  UNL     1      35.911   5.594  18.147  1.00  0.00     0.097 C 
ENDBRANCH  17  21
ENDBRANCH  16  17
ENDBRANCH  15  16
ENDBRANCH  14  15
ENDBRANCH  11  14
ENDBRANCH   1  10
TORSDOF 6
ENDMDL
