MODEL 1
REMARK VINA RESULT: -7.062417228      0.000      0.000
REMARK  4 active torsions:
REMARK  status: ('A' for Active; 'I' for Inactive)
REMARK    1  A    between atoms: C3_6  and  C4_7 
REMARK    2  A    between atoms: C4_7  and  N2_8 
REMARK    3  A    between atoms: C4_7  and  C10_19 
REMARK       I    between atoms: N2_8  and  C5_10 
REMARK    4  A    between atoms: C5_10  and  C6_12 
ROOT
HETATM    1  C4  UNL     1      32.975   8.072  24.649  1.00  0.00     0.140 C 
ENDROOT
BRANCH   1   2
HETATM    2  C3  UNL     1      32.103   9.176  24.249  1.00  0.00     0.064 A 
HETATM    3  N1  UNL     1      30.757   9.213  24.195  1.00  0.00    -0.263 N 
HETATM    4  O1  UNL     1      30.338  10.373  23.791  1.00  0.00    -0.242 OA
ATOM      5  H1  UNL     1      30.148   8.433  24.439  1.00  0.00     0.194 HD
HETATM    6  C2  UNL     1      31.351  11.164  23.556  1.00  0.00     0.080 A 
HETATM    7  C1  UNL     1      31.320  12.586  23.077  1.00  0.00     0.079 C 
HETATM    8  C13 UNL     1      32.501  10.443  23.836  1.00  0.00    -0.004 A 
HETATM    9  C14 UNL     1      33.852  10.977  23.699  1.00  0.00     0.053 C 
ENDBRANCH   1   2
BRANCH   1  10
HETATM   10  N2  UNL     1      32.304   7.092  25.528  1.00  0.00    -0.346 N 
HETATM   11  C5  UNL     1      32.859   6.814  26.777  1.00  0.00     0.260 C 
HETATM   12  O2  UNL     1      33.945   7.413  27.148  1.00  0.00    -0.267 OA
ATOM     13  H2  UNL     1      31.448   6.625  25.226  1.00  0.00     0.163 HD
BRANCH  11  14
HETATM   14  C6  UNL     1      32.301   5.869  27.751  1.00  0.00     0.091 A 
HETATM   15  S1  UNL     1      32.301   6.118  29.484  1.00  0.00    -0.071 SA
HETATM   16  C7  UNL     1      31.534   4.693  29.965  1.00  0.00     0.076 A 
HETATM   17 CL1  UNL     1      31.115   4.111  31.581  1.00  0.00    -0.076 Cl
HETATM   18  C8  UNL     1      31.291   4.052  28.796  1.00  0.00     0.052 A 
HETATM   19  C9  UNL     1      31.689   4.660  27.644  1.00  0.00     0.036 A 
HETATM   20  S2  UNL     1      31.401   3.866  26.009  1.00  0.00    -0.051 SA
ENDBRANCH  11  14
ENDBRANCH   1  10
BRANCH   1  21
HETATM   21  C10 UNL     1      33.607   7.356  23.479  1.00  0.00     0.006 C 
HETATM   22  C11 UNL     1      34.947   6.786  23.768  1.00  0.00     0.012 C 
HETATM   23  C12 UNL     1      32.705   6.265  22.954  1.00  0.00     0.012 C 
ENDBRANCH   1  21
TORSDOF 4
ENDMDL
MODEL 2
REMARK VINA RESULT: -6.983703988      4.010      5.371
REMARK  4 active torsions:
REMARK  status: ('A' for Active; 'I' for Inactive)
REMARK    1  A    between atoms: C3_6  and  C4_7 
REMARK    2  A    between atoms: C4_7  and  N2_8 
REMARK    3  A    between atoms: C4_7  and  C10_19 
REMARK       I    between atoms: N2_8  and  C5_10 
REMARK    4  A    between atoms: C5_10  and  C6_12 
ROOT
HETATM    1  C4  UNL     1      33.218   8.634  24.106  1.00  0.00     0.140 C 
ENDROOT
BRANCH   1   2
HETATM    2  C3  UNL     1      33.528  10.042  23.860  1.00  0.00     0.064 A 
HETATM    3  N1  UNL     1      34.702  10.600  23.502  1.00  0.00    -0.263 N 
HETATM    4  O1  UNL     1      34.588  11.886  23.375  1.00  0.00    -0.242 OA
ATOM      5  H1  UNL     1      35.566  10.079  23.352  1.00  0.00     0.194 HD
HETATM    6  C2  UNL     1      33.363  12.260  23.633  1.00  0.00     0.080 A 
HETATM    7  C1  UNL     1      32.797  13.649  23.604  1.00  0.00     0.079 C 
HETATM    8  C13 UNL     1      32.647  11.115  23.947  1.00  0.00    -0.004 A 
HETATM    9  C14 UNL     1      31.231  11.109  24.297  1.00  0.00     0.053 C 
ENDBRANCH   1   2
BRANCH   1  10
HETATM   10  N2  UNL     1      34.389   7.746  23.947  1.00  0.00    -0.346 N 
HETATM   11  C5  UNL     1      34.265   6.599  23.163  1.00  0.00     0.260 C 
HETATM   12  O2  UNL     1      33.136   6.329  22.590  1.00  0.00    -0.267 OA
ATOM     13  H2  UNL     1      35.274   7.968  24.403  1.00  0.00     0.163 HD
BRANCH  11  14
HETATM   14  C6  UNL     1      35.340   5.632  22.916  1.00  0.00     0.091 A 
HETATM   15  S1  UNL     1      36.000   4.555  24.128  1.00  0.00    -0.071 SA
HETATM   16  C7  UNL     1      37.153   3.758  23.188  1.00  0.00     0.076 A 
HETATM   17 CL1  UNL     1      38.296   2.481  23.622  1.00  0.00    -0.076 Cl
HETATM   18  C8  UNL     1      37.015   4.327  21.966  1.00  0.00     0.052 A 
HETATM   19  C9  UNL     1      36.074   5.301  21.821  1.00  0.00     0.036 A 
HETATM   20  S2  UNL     1      35.815   6.130  20.199  1.00  0.00    -0.051 SA
ENDBRANCH  11  14
ENDBRANCH   1  10
BRANCH   1  21
HETATM   21  C10 UNL     1      32.576   8.390  25.451  1.00  0.00     0.006 C 
HETATM   22  C11 UNL     1      31.409   7.473  25.408  1.00  0.00     0.012 C 
HETATM   23  C12 UNL     1      33.580   7.871  26.452  1.00  0.00     0.012 C 
ENDBRANCH   1  21
TORSDOF 4
ENDMDL
MODEL 3
REMARK VINA RESULT: -6.825391459      3.941      5.168
REMARK  4 active torsions:
REMARK  status: ('A' for Active; 'I' for Inactive)
REMARK    1  A    between atoms: C3_6  and  C4_7 
REMARK    2  A    between atoms: C4_7  and  N2_8 
REMARK    3  A    between atoms: C4_7  and  C10_19 
REMARK       I    between atoms: N2_8  and  C5_10 
REMARK    4  A    between atoms: C5_10  and  C6_12 
ROOT
HETATM    1  C4  UNL     1      33.000   8.566  24.160  1.00  0.00     0.140 C 
ENDROOT
BRANCH   1   2
HETATM    2  C3  UNL     1      33.423   9.938  23.874  1.00  0.00     0.064 A 
HETATM    3  N1  UNL     1      34.645  10.391  23.531  1.00  0.00    -0.263 N 
HETATM    4  O1  UNL     1      34.633  11.677  23.357  1.00  0.00    -0.242 OA
ATOM      5  H1  UNL     1      35.470   9.801  23.423  1.00  0.00     0.194 HD
HETATM    6  C2  UNL     1      33.434  12.151  23.566  1.00  0.00     0.080 A 
HETATM    7  C1  UNL     1      32.977  13.578  23.474  1.00  0.00     0.079 C 
HETATM    8  C13 UNL     1      32.625  11.076  23.899  1.00  0.00    -0.004 A 
HETATM    9  C14 UNL     1      31.204  11.190  24.208  1.00  0.00     0.053 C 
ENDBRANCH   1   2
BRANCH   1  10
HETATM   10  N2  UNL     1      34.124   7.608  24.194  1.00  0.00    -0.346 N 
HETATM   11  C5  UNL     1      34.046   6.448  23.423  1.00  0.00     0.260 C 
HETATM   12  O2  UNL     1      33.000   6.227  22.695  1.00  0.00    -0.267 OA
ATOM     13  H2  UNL     1      34.945   7.791  24.772  1.00  0.00     0.163 HD
BRANCH  11  14
HETATM   14  C6  UNL     1      35.084   5.413  23.358  1.00  0.00     0.091 A 
HETATM   15  S1  UNL     1      36.252   5.262  22.062  1.00  0.00    -0.071 SA
HETATM   16  C7  UNL     1      37.101   3.913  22.615  1.00  0.00     0.076 A 
HETATM   17 CL1  UNL     1      38.477   3.059  21.905  1.00  0.00    -0.076 Cl
HETATM   18  C8  UNL     1      36.481   3.600  23.779  1.00  0.00     0.052 A 
HETATM   19  C9  UNL     1      35.432   4.378  24.167  1.00  0.00     0.036 A 
HETATM   20  S2  UNL     1      34.528   4.030  25.732  1.00  0.00    -0.051 SA
ENDBRANCH  11  14
ENDBRANCH   1  10
BRANCH   1  21
HETATM   21  C10 UNL     1      32.188   8.443  25.428  1.00  0.00     0.006 C 
HETATM   22  C11 UNL     1      31.055   7.489  25.332  1.00  0.00     0.012 C 
HETATM   23  C12 UNL     1      33.060   8.064  26.600  1.00  0.00     0.012 C 
ENDBRANCH   1  21
TORSDOF 4
ENDMDL
MODEL 4
REMARK VINA RESULT: -6.818244048      2.382      3.526
REMARK  4 active torsions:
REMARK  status: ('A' for Active; 'I' for Inactive)
REMARK    1  A    between atoms: C3_6  and  C4_7 
REMARK    2  A    between atoms: C4_7  and  N2_8 
REMARK    3  A    between atoms: C4_7  and  C10_19 
REMARK       I    between atoms: N2_8  and  C5_10 
REMARK    4  A    between atoms: C5_10  and  C6_12 
ROOT
HETATM    1  C4  UNL     1      31.975  11.179  24.051  1.00  0.00     0.140 C 
ENDROOT
BRANCH   1   2
HETATM    2  C3  UNL     1      30.818  11.539  23.231  1.00  0.00     0.064 A 
HETATM    3  N1  UNL     1      29.532  11.158  23.369  1.00  0.00    -0.263 N 
HETATM    4  O1  UNL     1      28.788  11.684  22.446  1.00  0.00    -0.242 OA
ATOM      5  H1  UNL     1      29.190  10.538  24.103  1.00  0.00     0.194 HD
HETATM    6  C2  UNL     1      29.510  12.430  21.653  1.00  0.00     0.080 A 
HETATM    7  C1  UNL     1      29.054  13.220  20.460  1.00  0.00     0.079 C 
HETATM    8  C13 UNL     1      30.815  12.369  22.115  1.00  0.00    -0.004 A 
HETATM    9  C14 UNL     1      31.933  13.072  21.496  1.00  0.00     0.053 C 
ENDBRANCH   1   2
BRANCH   1  10
HETATM   10  N2  UNL     1      32.072   9.727  24.312  1.00  0.00    -0.346 N 
HETATM   11  C5  UNL     1      31.437   9.200  25.436  1.00  0.00     0.260 C 
HETATM   12  O2  UNL     1      30.778   9.981  26.230  1.00  0.00    -0.267 OA
ATOM     13  H2  UNL     1      32.594   9.120  23.680  1.00  0.00     0.163 HD
BRANCH  11  14
HETATM   14  C6  UNL     1      31.447   7.783  25.817  1.00  0.00     0.091 A 
HETATM   15  S1  UNL     1      30.996   7.180  27.398  1.00  0.00    -0.071 SA
HETATM   16  C7  UNL     1      31.234   5.530  27.139  1.00  0.00     0.076 A 
HETATM   17 CL1  UNL     1      31.010   4.159  28.232  1.00  0.00    -0.076 Cl
HETATM   18  C8  UNL     1      31.653   5.466  25.852  1.00  0.00     0.052 A 
HETATM   19  C9  UNL     1      31.765   6.636  25.163  1.00  0.00     0.036 A 
HETATM   20  S2  UNL     1      32.326   6.648  23.410  1.00  0.00    -0.051 SA
ENDBRANCH  11  14
ENDBRANCH   1  10
BRANCH   1  21
HETATM   21  C10 UNL     1      33.284  11.683  23.490  1.00  0.00     0.006 C 
HETATM   22  C11 UNL     1      33.805  12.897  24.166  1.00  0.00     0.012 C 
HETATM   23  C12 UNL     1      34.341  10.605  23.517  1.00  0.00     0.012 C 
ENDBRANCH   1  21
TORSDOF 4
ENDMDL
MODEL 5
REMARK VINA RESULT: -6.694576101      3.935      6.928
REMARK  4 active torsions:
REMARK  status: ('A' for Active; 'I' for Inactive)
REMARK    1  A    between atoms: C3_6  and  C4_7 
REMARK    2  A    between atoms: C4_7  and  N2_8 
REMARK    3  A    between atoms: C4_7  and  C10_19 
REMARK       I    between atoms: N2_8  and  C5_10 
REMARK    4  A    between atoms: C5_10  and  C6_12 
ROOT
HETATM    1  C4  UNL     1      32.904   5.121  27.096  1.00  0.00     0.140 C 
ENDROOT
BRANCH   1   2
HETATM    2  C3  UNL     1      33.894   4.352  26.341  1.00  0.00     0.064 A 
HETATM    3  N1  UNL     1      34.021   4.217  25.007  1.00  0.00    -0.263 N 
HETATM    4  O1  UNL     1      35.025   3.452  24.709  1.00  0.00    -0.242 OA
ATOM      5  H1  UNL     1      33.408   4.658  24.321  1.00  0.00     0.194 HD
HETATM    6  C2  UNL     1      35.618   3.038  25.797  1.00  0.00     0.080 A 
HETATM    7  C1  UNL     1      36.815   2.140  25.912  1.00  0.00     0.079 C 
HETATM    8  C13 UNL     1      34.930   3.588  26.867  1.00  0.00    -0.004 A 
HETATM    9  C14 UNL     1      35.283   3.365  28.265  1.00  0.00     0.053 C 
ENDBRANCH   1   2
BRANCH   1  10
HETATM   10  N2  UNL     1      32.297   6.216  26.310  1.00  0.00    -0.346 N 
HETATM   11  C5  UNL     1      32.747   7.520  26.511  1.00  0.00     0.260 C 
HETATM   12  O2  UNL     1      33.681   7.755  27.376  1.00  0.00    -0.267 OA
ATOM     13  H2  UNL     1      31.562   6.020  25.631  1.00  0.00     0.163 HD
BRANCH  11  14
HETATM   14  C6  UNL     1      32.240   8.700  25.802  1.00  0.00     0.091 A 
HETATM   15  S1  UNL     1      32.968   9.379  24.361  1.00  0.00    -0.071 SA
HETATM   16  C7  UNL     1      31.910  10.667  24.101  1.00  0.00     0.076 A 
HETATM   17 CL1  UNL     1      31.900  11.899  22.832  1.00  0.00    -0.076 Cl
HETATM   18  C8  UNL     1      31.019  10.558  25.116  1.00  0.00     0.052 A 
HETATM   19  C9  UNL     1      31.188   9.538  26.002  1.00  0.00     0.036 A 
HETATM   20  S2  UNL     1      30.029   9.310  27.413  1.00  0.00    -0.051 SA
ENDBRANCH  11  14
ENDBRANCH   1  10
BRANCH   1  21
HETATM   21  C10 UNL     1      31.815   4.264  27.698  1.00  0.00     0.006 C 
HETATM   22  C11 UNL     1      31.596   4.493  29.148  1.00  0.00     0.012 C 
HETATM   23  C12 UNL     1      30.508   4.444  26.963  1.00  0.00     0.012 C 
ENDBRANCH   1  21
TORSDOF 4
ENDMDL
