MODEL 1
REMARK VINA RESULT: -7.231790287      0.000      0.000
REMARK  4 active torsions:
REMARK  status: ('A' for Active; 'I' for Inactive)
REMARK    1  A    between atoms: C2_2  and  N1_3 
REMARK    2  A    between atoms: N1_3  and  C4_5 
REMARK    3  A    between atoms: C5_6  and  N2_7 
REMARK    4  A    between atoms: N2_7  and  O1_9 
ROOT
HETATM    1  C4  UNL     1      36.139   2.608  25.192  1.00  0.00     0.089 A 
HETATM    2  C5  UNL     1      35.696   1.419  25.766  1.00  0.00     0.104 A 
HETATM    3  C6  UNL     1      34.453   1.346  26.310  1.00  0.00     0.067 A 
HETATM    4 CL1  UNL     1      33.953  -0.191  27.022  1.00  0.00    -0.082 Cl
HETATM    5  C7  UNL     1      33.567   2.403  26.337  1.00  0.00     0.058 A 
HETATM    6  C8  UNL     1      33.998   3.568  25.776  1.00  0.00     0.061 A 
HETATM    7  C9  UNL     1      35.277   3.678  25.205  1.00  0.00     0.084 A 
HETATM    8  N3  UNL     1      35.978   4.746  24.586  1.00  0.00    -0.384 N 
ATOM      9  H3  UNL     1      36.982   4.734  24.764  1.00  0.00     0.159 HD
HETATM   10  C10 UNL     1      35.552   5.846  23.754  1.00  0.00     0.146 C 
HETATM   11  C11 UNL     1      34.621   6.801  24.455  1.00  0.00     0.190 C 
HETATM   12  O2  UNL     1      34.147   6.452  25.653  1.00  0.00    -0.359 OA
HETATM   13  C12 UNL     1      32.898   6.003  25.854  1.00  0.00     0.134 C 
HETATM   14  C13 UNL     1      32.497   6.408  27.283  1.00  0.00     0.061 C 
HETATM   15  C14 UNL     1      31.111   7.055  27.276  1.00  0.00     0.005 C 
HETATM   16  C15 UNL     1      31.268   8.276  26.370  1.00  0.00     0.000 C 
HETATM   17  C16 UNL     1      31.306   7.739  24.959  1.00  0.00     0.005 C 
HETATM   18  C17 UNL     1      31.835   6.348  24.873  1.00  0.00     0.061 C 
HETATM   19  N4  UNL     1      32.955   4.527  25.904  1.00  0.00    -0.356 N 
ATOM     20  H4  UNL     1      32.043   4.100  26.067  1.00  0.00     0.162 HD
ENDROOT
BRANCH   1  21
HETATM   21  N1  UNL     1      37.447   2.629  24.617  1.00  0.00    -0.382 N 
HETATM   22  C3  UNL     1      38.577   2.842  25.492  1.00  0.00     0.150 C 
BRANCH  21  23
HETATM   23  C2  UNL     1      37.700   2.348  23.226  1.00  0.00     0.118 C 
HETATM   24  C1  UNL     1      38.464   3.441  22.561  1.00  0.00     0.026 C 
ENDBRANCH  21  23
ENDBRANCH   1  21
BRANCH   2  25
HETATM   25  N2  UNL     1      36.613   0.325  25.740  1.00  0.00    -0.265 N 
ATOM     26  H2  UNL     1      37.401   0.267  26.386  1.00  0.00     0.194 HD
BRANCH  25  27
HETATM   27  O1  UNL     1      36.398  -0.559  24.880  1.00  0.00    -0.289 OA
ATOM     28  H1  UNL     1      36.781  -1.412  25.048  1.00  0.00     0.244 HD
ENDBRANCH  25  27
ENDBRANCH   2  25
TORSDOF 4
ENDMDL
MODEL 2
REMARK VINA RESULT: -7.114317651      1.394      1.721
REMARK  4 active torsions:
REMARK  status: ('A' for Active; 'I' for Inactive)
REMARK    1  A    between atoms: C2_2  and  N1_3 
REMARK    2  A    between atoms: N1_3  and  C4_5 
REMARK    3  A    between atoms: C5_6  and  N2_7 
REMARK    4  A    between atoms: N2_7  and  O1_9 
ROOT
HETATM    1  C4  UNL     1      36.174   2.571  23.826  1.00  0.00     0.089 A 
HETATM    2  C5  UNL     1      35.698   1.262  23.819  1.00  0.00     0.104 A 
HETATM    3  C6  UNL     1      34.409   1.003  24.161  1.00  0.00     0.067 A 
HETATM    4 CL1  UNL     1      33.870  -0.679  24.129  1.00  0.00    -0.082 Cl
HETATM    5  C7  UNL     1      33.506   1.977  24.530  1.00  0.00     0.058 A 
HETATM    6  C8  UNL     1      33.968   3.259  24.540  1.00  0.00     0.061 A 
HETATM    7  C9  UNL     1      35.295   3.562  24.191  1.00  0.00     0.084 A 
HETATM    8  N3  UNL     1      36.033   4.774  24.134  1.00  0.00    -0.384 N 
ATOM      9  H3  UNL     1      37.015   4.666  24.389  1.00  0.00     0.159 HD
HETATM   10  C10 UNL     1      35.671   6.127  23.788  1.00  0.00     0.146 C 
HETATM   11  C11 UNL     1      34.658   6.734  24.723  1.00  0.00     0.190 C 
HETATM   12  O2  UNL     1      34.074   5.938  25.621  1.00  0.00    -0.359 OA
HETATM   13  C12 UNL     1      32.820   5.475  25.498  1.00  0.00     0.134 C 
HETATM   14  C13 UNL     1      32.272   5.270  26.921  1.00  0.00     0.061 C 
HETATM   15  C14 UNL     1      30.881   5.895  27.043  1.00  0.00     0.005 C 
HETATM   16  C15 UNL     1      31.105   7.377  26.736  1.00  0.00     0.000 C 
HETATM   17  C16 UNL     1      31.293   7.462  25.240  1.00  0.00     0.005 C 
HETATM   18  C17 UNL     1      31.854   6.215  24.644  1.00  0.00     0.061 C 
HETATM   19  N4  UNL     1      32.899   4.106  24.946  1.00  0.00    -0.356 N 
ATOM     20  H4  UNL     1      31.984   3.672  24.830  1.00  0.00     0.162 HD
ENDROOT
BRANCH   1  21
HETATM   21  N1  UNL     1      37.532   2.795  23.441  1.00  0.00    -0.382 N 
HETATM   22  C3  UNL     1      37.832   2.926  22.034  1.00  0.00     0.150 C 
BRANCH  21  23
HETATM   23  C2  UNL     1      38.597   2.994  24.392  1.00  0.00     0.118 C 
HETATM   24  C1  UNL     1      38.320   2.327  25.695  1.00  0.00     0.026 C 
ENDBRANCH  21  23
ENDBRANCH   1  21
BRANCH   2  25
HETATM   25  N2  UNL     1      36.634   0.253  23.438  1.00  0.00    -0.265 N 
ATOM     26  H2  UNL     1      37.394  -0.037  24.054  1.00  0.00     0.194 HD
BRANCH  25  27
HETATM   27  O1  UNL     1      36.471  -0.255  22.305  1.00  0.00    -0.289 OA
ATOM     28  H1  UNL     1      37.130  -0.049  21.652  1.00  0.00     0.244 HD
ENDBRANCH  25  27
ENDBRANCH   2  25
TORSDOF 4
ENDMDL
MODEL 3
REMARK VINA RESULT: -6.979503641      0.892      1.219
REMARK  4 active torsions:
REMARK  status: ('A' for Active; 'I' for Inactive)
REMARK    1  A    between atoms: C2_2  and  N1_3 
REMARK    2  A    between atoms: N1_3  and  C4_5 
REMARK    3  A    between atoms: C5_6  and  N2_7 
REMARK    4  A    between atoms: N2_7  and  O1_9 
ROOT
HETATM    1  C4  UNL     1      35.455   2.034  25.581  1.00  0.00     0.089 A 
HETATM    2  C5  UNL     1      34.824   0.933  26.155  1.00  0.00     0.104 A 
HETATM    3  C6  UNL     1      33.555   1.043  26.627  1.00  0.00     0.067 A 
HETATM    4 CL1  UNL     1      32.813  -0.392  27.342  1.00  0.00    -0.082 Cl
HETATM    5  C7  UNL     1      32.820   2.209  26.578  1.00  0.00     0.058 A 
HETATM    6  C8  UNL     1      33.435   3.289  26.018  1.00  0.00     0.061 A 
HETATM    7  C9  UNL     1      34.746   3.210  25.520  1.00  0.00     0.084 A 
HETATM    8  N3  UNL     1      35.617   4.156  24.919  1.00  0.00    -0.384 N 
ATOM      9  H3  UNL     1      36.599   4.015  25.156  1.00  0.00     0.159 HD
HETATM   10  C10 UNL     1      35.390   5.277  24.040  1.00  0.00     0.146 C 
HETATM   11  C11 UNL     1      34.560   6.369  24.664  1.00  0.00     0.190 C 
HETATM   12  O2  UNL     1      33.978   6.123  25.840  1.00  0.00    -0.359 OA
HETATM   13  C12 UNL     1      32.670   5.850  25.977  1.00  0.00     0.134 C 
HETATM   14  C13 UNL     1      32.250   6.347  27.371  1.00  0.00     0.061 C 
HETATM   15  C14 UNL     1      30.966   7.173  27.269  1.00  0.00     0.005 C 
HETATM   16  C15 UNL     1      31.337   8.335  26.347  1.00  0.00     0.000 C 
HETATM   17  C16 UNL     1      31.380   7.756  24.953  1.00  0.00     0.005 C 
HETATM   18  C17 UNL     1      31.720   6.305  24.928  1.00  0.00     0.061 C 
HETATM   19  N4  UNL     1      32.525   4.382  26.064  1.00  0.00    -0.356 N 
ATOM     20  H4  UNL     1      31.556   4.086  26.182  1.00  0.00     0.162 HD
ENDROOT
BRANCH   1  21
HETATM   21  N1  UNL     1      36.783   1.863  25.083  1.00  0.00    -0.382 N 
HETATM   22  C3  UNL     1      36.963   1.675  23.662  1.00  0.00     0.150 C 
BRANCH  21  23
HETATM   23  C2  UNL     1      37.955   1.969  25.915  1.00  0.00     0.118 C 
HETATM   24  C1  UNL     1      38.932   2.963  25.387  1.00  0.00     0.026 C 
ENDBRANCH  21  23
ENDBRANCH   1  21
BRANCH   2  25
HETATM   25  N2  UNL     1      35.586  -0.274  26.207  1.00  0.00    -0.265 N 
ATOM     26  H2  UNL     1      36.260  -0.454  26.951  1.00  0.00     0.194 HD
BRANCH  25  27
HETATM   27  O1  UNL     1      35.380  -1.099  25.287  1.00  0.00    -0.289 OA
ATOM     28  H1  UNL     1      35.005  -1.933  25.546  1.00  0.00     0.244 HD
ENDBRANCH  25  27
ENDBRANCH   2  25
TORSDOF 4
ENDMDL
MODEL 4
REMARK VINA RESULT: -6.958379365      0.691      1.181
REMARK  4 active torsions:
REMARK  status: ('A' for Active; 'I' for Inactive)
REMARK    1  A    between atoms: C2_2  and  N1_3 
REMARK    2  A    between atoms: N1_3  and  C4_5 
REMARK    3  A    between atoms: C5_6  and  N2_7 
REMARK    4  A    between atoms: N2_7  and  O1_9 
ROOT
HETATM    1  C4  UNL     1      35.964   2.629  24.499  1.00  0.00     0.089 A 
HETATM    2  C5  UNL     1      35.479   1.378  24.874  1.00  0.00     0.104 A 
HETATM    3  C6  UNL     1      34.251   1.266  25.444  1.00  0.00     0.067 A 
HETATM    4 CL1  UNL     1      33.696  -0.349  25.895  1.00  0.00    -0.082 Cl
HETATM    5  C7  UNL     1      33.421   2.340  25.690  1.00  0.00     0.058 A 
HETATM    6  C8  UNL     1      33.894   3.565  25.325  1.00  0.00     0.061 A 
HETATM    7  C9  UNL     1      35.158   3.717  24.732  1.00  0.00     0.084 A 
HETATM    8  N3  UNL     1      35.893   4.846  24.283  1.00  0.00    -0.384 N 
ATOM      9  H3  UNL     1      36.900   4.758  24.417  1.00  0.00     0.159 HD
HETATM   10  C10 UNL     1      35.498   6.093  23.674  1.00  0.00     0.146 C 
HETATM   11  C11 UNL     1      34.639   6.950  24.566  1.00  0.00     0.190 C 
HETATM   12  O2  UNL     1      34.184   6.417  25.702  1.00  0.00    -0.359 OA
HETATM   13  C12 UNL     1      32.920   5.995  25.870  1.00  0.00     0.134 C 
HETATM   14  C13 UNL     1      32.584   6.158  27.362  1.00  0.00     0.061 C 
HETATM   15  C14 UNL     1      31.233   6.857  27.522  1.00  0.00     0.005 C 
HETATM   16  C15 UNL     1      31.424   8.212  26.839  1.00  0.00     0.000 C 
HETATM   17  C16 UNL     1      31.393   7.931  25.355  1.00  0.00     0.005 C 
HETATM   18  C17 UNL     1      31.848   6.554  25.006  1.00  0.00     0.061 C 
HETATM   19  N4  UNL     1      32.904   4.532  25.659  1.00  0.00    -0.356 N 
ATOM     20  H4  UNL     1      31.977   4.124  25.780  1.00  0.00     0.162 HD
ENDROOT
BRANCH   1  21
HETATM   21  N1  UNL     1      37.254   2.693  23.886  1.00  0.00    -0.382 N 
HETATM   22  C3  UNL     1      37.374   2.301  22.501  1.00  0.00     0.150 C 
BRANCH  21  23
HETATM   23  C2  UNL     1      38.416   3.223  24.553  1.00  0.00     0.118 C 
HETATM   24  C1  UNL     1      38.682   2.540  25.849  1.00  0.00     0.026 C 
ENDBRANCH  21  23
ENDBRANCH   1  21
BRANCH   2  25
HETATM   25  N2  UNL     1      36.339   0.267  24.621  1.00  0.00    -0.265 N 
ATOM     26  H2  UNL     1      36.559  -0.040  23.673  1.00  0.00     0.194 HD
BRANCH  25  27
HETATM   27  O1  UNL     1      36.808  -0.312  25.628  1.00  0.00    -0.289 OA
ATOM     28  H1  UNL     1      37.753  -0.399  25.662  1.00  0.00     0.244 HD
ENDBRANCH  25  27
ENDBRANCH   2  25
TORSDOF 4
ENDMDL
MODEL 5
REMARK VINA RESULT: -6.903452769      2.394      3.348
REMARK  4 active torsions:
REMARK  status: ('A' for Active; 'I' for Inactive)
REMARK    1  A    between atoms: C2_2  and  N1_3 
REMARK    2  A    between atoms: N1_3  and  C4_5 
REMARK    3  A    between atoms: C5_6  and  N2_7 
REMARK    4  A    between atoms: N2_7  and  O1_9 
ROOT
HETATM    1  C4  UNL     1      36.216   2.697  24.514  1.00  0.00     0.089 A 
HETATM    2  C5  UNL     1      36.537   2.984  23.190  1.00  0.00     0.104 A 
HETATM    3  C6  UNL     1      36.032   4.094  22.591  1.00  0.00     0.067 A 
HETATM    4 CL1  UNL     1      36.480   4.400  20.910  1.00  0.00    -0.082 Cl
HETATM    5  C7  UNL     1      35.193   4.988  23.222  1.00  0.00     0.058 A 
HETATM    6  C8  UNL     1      34.876   4.709  24.517  1.00  0.00     0.061 A 
HETATM    7  C9  UNL     1      35.380   3.571  25.167  1.00  0.00     0.084 A 
HETATM    8  N3  UNL     1      35.204   3.037  26.471  1.00  0.00    -0.384 N 
ATOM      9  H3  UNL     1      35.208   2.017  26.499  1.00  0.00     0.159 HD
HETATM   10  C10 UNL     1      35.021   3.649  27.765  1.00  0.00     0.146 C 
HETATM   11  C11 UNL     1      33.752   4.452  27.873  1.00  0.00     0.190 C 
HETATM   12  O2  UNL     1      33.050   4.673  26.759  1.00  0.00    -0.359 OA
HETATM   13  C12 UNL     1      33.048   5.846  26.104  1.00  0.00     0.134 C 
HETATM   14  C13 UNL     1      31.682   5.971  25.408  1.00  0.00     0.061 C 
HETATM   15  C14 UNL     1      31.079   7.351  25.681  1.00  0.00     0.005 C 
HETATM   16  C15 UNL     1      30.942   7.409  27.203  1.00  0.00     0.000 C 
HETATM   17  C16 UNL     1      32.338   7.631  27.733  1.00  0.00     0.005 C 
HETATM   18  C17 UNL     1      33.401   7.088  26.839  1.00  0.00     0.061 C 
HETATM   19  N4  UNL     1      34.008   5.736  24.986  1.00  0.00    -0.356 N 
ATOM     20  H4  UNL     1      34.061   6.586  24.424  1.00  0.00     0.162 HD
ENDROOT
BRANCH   1  21
HETATM   21  N1  UNL     1      36.786   1.527  25.105  1.00  0.00    -0.382 N 
HETATM   22  C3  UNL     1      36.275   0.237  24.703  1.00  0.00     0.150 C 
BRANCH  21  23
HETATM   23  C2  UNL     1      37.910   1.569  26.006  1.00  0.00     0.118 C 
HETATM   24  C1  UNL     1      38.781   2.754  25.764  1.00  0.00     0.026 C 
ENDBRANCH  21  23
ENDBRANCH   1  21
BRANCH   2  25
HETATM   25  N2  UNL     1      37.405   2.057  22.536  1.00  0.00    -0.265 N 
ATOM     26  H2  UNL     1      37.082   1.137  22.237  1.00  0.00     0.194 HD
BRANCH  25  27
HETATM   27  O1  UNL     1      38.584   2.437  22.351  1.00  0.00    -0.289 OA
ATOM     28  H1  UNL     1      39.220   1.757  22.165  1.00  0.00     0.244 HD
ENDBRANCH  25  27
ENDBRANCH   2  25
TORSDOF 4
ENDMDL
