MODEL 1
REMARK VINA RESULT: -6.746994597      0.000      0.000
REMARK  5 active torsions:
REMARK  status: ('A' for Active; 'I' for Inactive)
REMARK    1  A    between atoms: N1_3  and  C2_4 
REMARK    2  A    between atoms: C2_4  and  C3_5 
REMARK    3  A    between atoms: C3_5  and  C4_6 
REMARK    4  A    between atoms: N3_14  and  S3_15 
REMARK    5  A    between atoms: S3_15  and  C7_16 
ROOT
HETATM    1  O1  UNL     1      30.369   9.253  24.494  1.00  0.00    -0.245 OA
HETATM    2  C1  UNL     1      31.613   9.216  24.242  1.00  0.00     0.343 A 
HETATM    3  N1  UNL     1      32.245  10.396  24.007  1.00  0.00    -0.275 N 
HETATM    4  C5  UNL     1      33.554  10.365  23.739  1.00  0.00     0.184 A 
HETATM    5  S1  UNL     1      34.435  11.715  23.407  1.00  0.00    -0.040 SA
HETATM    6  N2  UNL     1      34.186   9.153  23.717  1.00  0.00    -0.309 N 
ATOM      7  H2  UNL     1      35.185   9.128  23.514  1.00  0.00     0.170 HD
HETATM    8  C6  UNL     1      33.550   7.995  23.952  1.00  0.00     0.195 A 
HETATM    9  S2  UNL     1      34.379   6.566  23.909  1.00  0.00    -0.039 SA
HETATM   10  N3  UNL     1      32.232   8.024  24.220  1.00  0.00    -0.206 N 
ENDROOT
BRANCH  10  11
HETATM   11  S3  UNL     1      31.422   6.503  24.522  1.00  0.00    -0.001 SA
BRANCH  11  12
HETATM   12  C7  UNL     1      31.528   5.997  26.226  1.00  0.00     0.022 A 
HETATM   13  C8  UNL     1      30.993   4.777  26.574  1.00  0.00     0.020 A 
HETATM   14  C9  UNL     1      31.023   4.292  27.866  1.00  0.00     0.001 A 
HETATM   15  C10 UNL     1      31.608   5.045  28.859  1.00  0.00     0.000 A 
HETATM   16  C11 UNL     1      32.144   6.255  28.538  1.00  0.00     0.001 A 
HETATM   17  C12 UNL     1      32.111   6.744  27.226  1.00  0.00     0.020 A 
ENDBRANCH  11  12
ENDBRANCH  10  11
BRANCH   3  18
HETATM   18  C2  UNL     1      31.496  11.627  24.027  1.00  0.00     0.137 C 
BRANCH  18  19
HETATM   19  C3  UNL     1      31.053  12.118  22.697  1.00  0.00     0.035 C 
BRANCH  19  20
HETATM   20  C4  UNL     1      29.604  12.035  22.385  1.00  0.00     0.116 C 
HETATM   21 CL1  UNL     1      29.345  13.009  20.882  1.00  0.00    -0.130 Cl
ENDBRANCH  19  20
ENDBRANCH  18  19
ENDBRANCH   3  18
TORSDOF 5
ENDMDL
MODEL 2
REMARK VINA RESULT: -6.635824905      3.113      6.820
REMARK  5 active torsions:
REMARK  status: ('A' for Active; 'I' for Inactive)
REMARK    1  A    between atoms: N1_3  and  C2_4 
REMARK    2  A    between atoms: C2_4  and  C3_5 
REMARK    3  A    between atoms: C3_5  and  C4_6 
REMARK    4  A    between atoms: N3_14  and  S3_15 
REMARK    5  A    between atoms: S3_15  and  C7_16 
ROOT
HETATM    1  O1  UNL     1      33.877   8.671  23.232  1.00  0.00    -0.245 OA
HETATM    2  C1  UNL     1      33.018   8.244  24.065  1.00  0.00     0.343 A 
HETATM    3  N1  UNL     1      32.874   6.899  24.189  1.00  0.00    -0.275 N 
HETATM    4  C5  UNL     1      31.971   6.442  25.063  1.00  0.00     0.184 A 
HETATM    5  S1  UNL     1      31.673   4.840  25.293  1.00  0.00    -0.040 SA
HETATM    6  N2  UNL     1      31.245   7.349  25.782  1.00  0.00    -0.309 N 
ATOM      7  H2  UNL     1      30.556   7.003  26.450  1.00  0.00     0.170 HD
HETATM    8  C6  UNL     1      31.398   8.676  25.650  1.00  0.00     0.195 A 
HETATM    9  S2  UNL     1      30.484   9.714  26.555  1.00  0.00    -0.039 SA
HETATM   10  N3  UNL     1      32.305   9.137  24.771  1.00  0.00    -0.206 N 
ENDROOT
BRANCH  10  11
HETATM   11  S3  UNL     1      32.488  10.869  24.612  1.00  0.00    -0.001 SA
BRANCH  11  12
HETATM   12  C7  UNL     1      31.537  11.539  23.263  1.00  0.00     0.022 A 
HETATM   13  C8  UNL     1      32.212  12.195  22.257  1.00  0.00     0.020 A 
HETATM   14  C9  UNL     1      31.569  12.749  21.169  1.00  0.00     0.001 A 
HETATM   15  C10 UNL     1      30.200  12.652  21.069  1.00  0.00     0.000 A 
HETATM   16  C11 UNL     1      29.512  12.008  22.052  1.00  0.00     0.001 A 
HETATM   17  C12 UNL     1      30.167  11.447  23.155  1.00  0.00     0.020 A 
ENDBRANCH  11  12
ENDBRANCH  10  11
BRANCH   3  18
HETATM   18  C2  UNL     1      33.666   6.014  23.374  1.00  0.00     0.137 C 
BRANCH  18  19
HETATM   19  C3  UNL     1      35.010   5.689  23.919  1.00  0.00     0.035 C 
BRANCH  19  20
HETATM   20  C4  UNL     1      36.080   5.355  22.945  1.00  0.00     0.116 C 
HETATM   21 CL1  UNL     1      35.738   6.321  21.454  1.00  0.00    -0.130 Cl
ENDBRANCH  19  20
ENDBRANCH  18  19
ENDBRANCH   3  18
TORSDOF 5
ENDMDL
MODEL 3
REMARK VINA RESULT: -6.520557477      3.163      6.560
REMARK  5 active torsions:
REMARK  status: ('A' for Active; 'I' for Inactive)
REMARK    1  A    between atoms: N1_3  and  C2_4 
REMARK    2  A    between atoms: C2_4  and  C3_5 
REMARK    3  A    between atoms: C3_5  and  C4_6 
REMARK    4  A    between atoms: N3_14  and  S3_15 
REMARK    5  A    between atoms: S3_15  and  C7_16 
ROOT
HETATM    1  O1  UNL     1      31.923   7.020  23.647  1.00  0.00    -0.245 OA
HETATM    2  C1  UNL     1      31.698   7.095  24.894  1.00  0.00     0.343 A 
HETATM    3  N1  UNL     1      32.067   6.040  25.667  1.00  0.00    -0.275 N 
HETATM    4  C5  UNL     1      31.832   6.111  26.981  1.00  0.00     0.184 A 
HETATM    5  S1  UNL     1      32.200   4.895  28.027  1.00  0.00    -0.040 SA
HETATM    6  N2  UNL     1      31.235   7.237  27.475  1.00  0.00    -0.309 N 
ATOM      7  H2  UNL     1      31.055   7.293  28.478  1.00  0.00     0.170 HD
HETATM    8  C6  UNL     1      30.876   8.273  26.701  1.00  0.00     0.195 A 
HETATM    9  S2  UNL     1      30.159   9.603  27.369  1.00  0.00    -0.039 SA
HETATM   10  N3  UNL     1      31.111   8.202  25.379  1.00  0.00    -0.206 N 
ENDROOT
BRANCH  10  11
HETATM   11  S3  UNL     1      30.634   9.561  24.386  1.00  0.00    -0.001 SA
BRANCH  11  12
HETATM   12  C7  UNL     1      31.997  10.645  24.008  1.00  0.00     0.022 A 
HETATM   13  C8  UNL     1      31.747  11.996  23.926  1.00  0.00     0.020 A 
HETATM   14  C9  UNL     1      32.732  12.919  23.639  1.00  0.00     0.001 A 
HETATM   15  C10 UNL     1      34.021  12.489  23.422  1.00  0.00     0.000 A 
HETATM   16  C11 UNL     1      34.292  11.157  23.498  1.00  0.00     0.001 A 
HETATM   17  C12 UNL     1      33.290  10.223  23.790  1.00  0.00     0.020 A 
ENDBRANCH  11  12
ENDBRANCH  10  11
BRANCH   3  18
HETATM   18  C2  UNL     1      32.671   4.882  25.059  1.00  0.00     0.137 C 
BRANCH  18  19
HETATM   19  C3  UNL     1      34.151   4.814  25.163  1.00  0.00     0.035 C 
BRANCH  19  20
HETATM   20  C4  UNL     1      34.941   5.240  23.980  1.00  0.00     0.116 C 
HETATM   21 CL1  UNL     1      35.292   7.001  24.203  1.00  0.00    -0.130 Cl
ENDBRANCH  19  20
ENDBRANCH  18  19
ENDBRANCH   3  18
TORSDOF 5
ENDMDL
MODEL 4
REMARK VINA RESULT: -6.517181656      3.881      7.004
REMARK  5 active torsions:
REMARK  status: ('A' for Active; 'I' for Inactive)
REMARK    1  A    between atoms: N1_3  and  C2_4 
REMARK    2  A    between atoms: C2_4  and  C3_5 
REMARK    3  A    between atoms: C3_5  and  C4_6 
REMARK    4  A    between atoms: N3_14  and  S3_15 
REMARK    5  A    between atoms: S3_15  and  C7_16 
ROOT
HETATM    1  O1  UNL     1      34.670   8.726  22.780  1.00  0.00    -0.245 OA
HETATM    2  C1  UNL     1      33.939   7.995  23.518  1.00  0.00     0.343 A 
HETATM    3  N1  UNL     1      34.008   6.649  23.341  1.00  0.00    -0.275 N 
HETATM    4  C5  UNL     1      33.240   5.874  24.113  1.00  0.00     0.184 A 
HETATM    5  S1  UNL     1      33.204   4.233  23.984  1.00  0.00    -0.040 SA
HETATM    6  N2  UNL     1      32.430   6.473  25.036  1.00  0.00    -0.309 N 
ATOM      7  H2  UNL     1      31.844   5.882  25.626  1.00  0.00     0.170 HD
HETATM    8  C6  UNL     1      32.371   7.804  25.201  1.00  0.00     0.195 A 
HETATM    9  S2  UNL     1      31.367   8.458  26.339  1.00  0.00    -0.039 SA
HETATM   10  N3  UNL     1      33.142   8.585  24.424  1.00  0.00    -0.206 N 
ENDROOT
BRANCH  10  11
HETATM   11  S3  UNL     1      33.051  10.317  24.655  1.00  0.00    -0.001 SA
BRANCH  11  12
HETATM   12  C7  UNL     1      31.874  11.092  23.565  1.00  0.00     0.022 A 
HETATM   13  C8  UNL     1      32.353  11.945  22.596  1.00  0.00     0.020 A 
HETATM   14  C9  UNL     1      31.526  12.596  21.703  1.00  0.00     0.001 A 
HETATM   15  C10 UNL     1      30.166  12.395  21.768  1.00  0.00     0.000 A 
HETATM   16  C11 UNL     1      29.669  11.555  22.719  1.00  0.00     0.001 A 
HETATM   17  C12 UNL     1      30.512  10.897  23.624  1.00  0.00     0.020 A 
ENDBRANCH  11  12
ENDBRANCH  10  11
BRANCH   3  18
HETATM   18  C2  UNL     1      34.875   6.103  22.328  1.00  0.00     0.137 C 
BRANCH  18  19
HETATM   19  C3  UNL     1      36.155   5.541  22.829  1.00  0.00     0.035 C 
BRANCH  19  20
HETATM   20  C4  UNL     1      36.735   4.393  22.088  1.00  0.00     0.116 C 
HETATM   21 CL1  UNL     1      38.400   4.140  22.751  1.00  0.00    -0.130 Cl
ENDBRANCH  19  20
ENDBRANCH  18  19
ENDBRANCH   3  18
TORSDOF 5
ENDMDL
MODEL 5
REMARK VINA RESULT: -6.497369859      1.738      2.099
REMARK  5 active torsions:
REMARK  status: ('A' for Active; 'I' for Inactive)
REMARK    1  A    between atoms: N1_3  and  C2_4 
REMARK    2  A    between atoms: C2_4  and  C3_5 
REMARK    3  A    between atoms: C3_5  and  C4_6 
REMARK    4  A    between atoms: N3_14  and  S3_15 
REMARK    5  A    between atoms: S3_15  and  C7_16 
ROOT
HETATM    1  O1  UNL     1      30.052   9.642  26.525  1.00  0.00    -0.245 OA
HETATM    2  C1  UNL     1      31.231   9.428  26.106  1.00  0.00     0.343 A 
HETATM    3  N1  UNL     1      31.712  10.244  25.130  1.00  0.00    -0.275 N 
HETATM    4  C5  UNL     1      32.952  10.024  24.683  1.00  0.00     0.184 A 
HETATM    5  S1  UNL     1      33.646  10.916  23.486  1.00  0.00    -0.040 SA
HETATM    6  N2  UNL     1      33.668   8.995  25.228  1.00  0.00    -0.309 N 
ATOM      7  H2  UNL     1      34.615   8.827  24.887  1.00  0.00     0.170 HD
HETATM    8  C6  UNL     1      33.182   8.198  26.191  1.00  0.00     0.195 A 
HETATM    9  S2  UNL     1      34.106   6.973  26.804  1.00  0.00    -0.039 SA
HETATM   10  N3  UNL     1      31.934   8.417  26.642  1.00  0.00    -0.206 N 
ENDROOT
BRANCH  10  11
HETATM   11  S3  UNL     1      31.318   7.366  27.897  1.00  0.00    -0.001 SA
BRANCH  11  12
HETATM   12  C7  UNL     1      31.256   5.659  27.393  1.00  0.00     0.022 A 
HETATM   13  C8  UNL     1      31.511   4.693  28.341  1.00  0.00     0.020 A 
HETATM   14  C9  UNL     1      31.489   3.343  28.053  1.00  0.00     0.001 A 
HETATM   15  C10 UNL     1      31.202   2.928  26.772  1.00  0.00     0.000 A 
HETATM   16  C11 UNL     1      30.947   3.866  25.818  1.00  0.00     0.001 A 
HETATM   17  C12 UNL     1      30.971   5.235  26.113  1.00  0.00     0.020 A 
ENDBRANCH  11  12
ENDBRANCH  10  11
BRANCH   3  18
HETATM   18  C2  UNL     1      30.879  11.291  24.596  1.00  0.00     0.137 C 
BRANCH  18  19
HETATM   19  C3  UNL     1      30.085  10.916  23.397  1.00  0.00     0.035 C 
BRANCH  19  20
HETATM   20  C4  UNL     1      29.585  12.016  22.536  1.00  0.00     0.116 C 
HETATM   21 CL1  UNL     1      30.916  12.403  21.372  1.00  0.00    -0.130 Cl
ENDBRANCH  19  20
ENDBRANCH  18  19
ENDBRANCH   3  18
TORSDOF 5
ENDMDL
