MODEL 1
REMARK VINA RESULT: -7.211477707      0.000      0.000
REMARK  7 active torsions:
REMARK  status: ('A' for Active; 'I' for Inactive)
REMARK    1  A    between atoms: C4_4  and  C5_5 
REMARK    2  A    between atoms: C5_5  and  O1_6 
REMARK    3  A    between atoms: C5_5  and  S1_8 
REMARK    4  A    between atoms: C5_5  and  C8_11 
REMARK    5  A    between atoms: S1_8  and  C6_9 
REMARK    6  A    between atoms: C8_11  and  C11_14 
REMARK    7  A    between atoms: C17_23  and  C18_24 
ROOT
HETATM    1  C1  UNL     1       4.835  11.694  29.189  1.00  0.00     0.020 C 
HETATM    2  C2  UNL     1       3.850  11.729  30.078  1.00  0.00    -0.027 C 
HETATM    3  C3  UNL     1       2.849  10.629  30.125  1.00  0.00     0.047 C 
HETATM    4  C4  UNL     1       1.622  10.863  30.891  1.00  0.00     0.036 C 
HETATM    5  C12 UNL     1       1.555  12.192  31.579  1.00  0.00     0.014 C 
HETATM    6  C13 UNL     1       2.295  13.306  30.912  1.00  0.00     0.074 C 
HETATM    7  C14 UNL     1       3.777  12.885  31.009  1.00  0.00     0.188 C 
HETATM    8  O4  UNL     1       3.960  12.507  32.332  1.00  0.00    -0.351 OA
HETATM    9  C15 UNL     1       5.251  12.196  32.664  1.00  0.00     0.174 C 
HETATM   10  C16 UNL     1       6.254  13.177  32.134  1.00  0.00     0.058 C 
HETATM   11  C17 UNL     1       5.553  14.319  31.449  1.00  0.00     0.127 C 
HETATM   12  O5  UNL     1       4.529  13.956  30.625  1.00  0.00    -0.346 OA
ENDROOT
BRANCH   4  13
HETATM   13  C5  UNL     1       0.309  10.521  30.204  1.00  0.00     0.126 C 
BRANCH  13  14
HETATM   14  O1  UNL     1      -0.444  11.756  30.392  1.00  0.00    -0.378 OA
ATOM     15  H1  UNL     1      -0.942  11.554  31.175  1.00  0.00     0.211 HD
ENDBRANCH  13  14
BRANCH  13  16
HETATM   16  S1  UNL     1       0.395  10.371  28.443  1.00  0.00    -0.130 SA
BRANCH  16  17
HETATM   17  C6  UNL     1      -0.678  11.341  27.444  1.00  0.00     0.072 C 
HETATM   18  C7  UNL     1      -2.078  10.696  27.512  1.00  0.00     0.016 C 
ENDBRANCH  16  17
ENDBRANCH  13  16
BRANCH  13  19
HETATM   19  C8  UNL     1      -0.541   9.521  30.911  1.00  0.00     0.082 C 
HETATM   20  C9  UNL     1       0.156   8.936  32.134  1.00  0.00     0.030 C 
HETATM   21  C10 UNL     1      -1.005   8.340  30.105  1.00  0.00     0.030 C 
BRANCH  19  22
HETATM   22  C11 UNL     1      -1.713  10.262  31.489  1.00  0.00     0.185 C 
HETATM   23  O2  UNL     1      -1.653  10.794  32.605  1.00  0.00    -0.647 OA
HETATM   24  O3  UNL     1      -2.851  10.299  30.680  1.00  0.00    -0.647 OA
ENDBRANCH  19  22
ENDBRANCH  13  19
ENDBRANCH   4  13
BRANCH  11  25
HETATM   25  C18 UNL     1       5.064  15.326  32.450  1.00  0.00     0.027 C 
HETATM   26  C19 UNL     1       5.898  15.358  33.709  1.00  0.00     0.007 C 
ENDBRANCH  11  25
TORSDOF 7
ENDMDL
MODEL 2
REMARK VINA RESULT: -7.195069177      2.040      7.071
REMARK  7 active torsions:
REMARK  status: ('A' for Active; 'I' for Inactive)
REMARK    1  A    between atoms: C4_4  and  C5_5 
REMARK    2  A    between atoms: C5_5  and  O1_6 
REMARK    3  A    between atoms: C5_5  and  S1_8 
REMARK    4  A    between atoms: C5_5  and  C8_11 
REMARK    5  A    between atoms: S1_8  and  C6_9 
REMARK    6  A    between atoms: C8_11  and  C11_14 
REMARK    7  A    between atoms: C17_23  and  C18_24 
ROOT
HETATM    1  C1  UNL     1       1.381   9.136  32.929  1.00  0.00     0.020 C 
HETATM    2  C2  UNL     1       1.504  10.003  31.931  1.00  0.00    -0.027 C 
HETATM    3  C3  UNL     1       2.854  10.358  31.415  1.00  0.00     0.047 C 
HETATM    4  C4  UNL     1       2.959  11.534  30.547  1.00  0.00     0.036 C 
HETATM    5  C12 UNL     1       1.658  12.214  30.251  1.00  0.00     0.014 C 
HETATM    6  C13 UNL     1       0.612  12.106  31.313  1.00  0.00     0.074 C 
HETATM    7  C14 UNL     1       0.271  10.601  31.355  1.00  0.00     0.188 C 
HETATM    8  O4  UNL     1       0.079  10.236  30.030  1.00  0.00    -0.351 OA
HETATM    9  C15 UNL     1      -0.344   8.947  29.848  1.00  0.00     0.174 C 
HETATM   10  C16 UNL     1      -1.440   8.542  30.788  1.00  0.00     0.058 C 
HETATM   11  C17 UNL     1      -1.860   9.716  31.633  1.00  0.00     0.127 C 
HETATM   12  O5  UNL     1      -0.835  10.458  32.140  1.00  0.00    -0.346 OA
ENDROOT
BRANCH   4  13
HETATM   13  C5  UNL     1       4.052  12.538  30.882  1.00  0.00     0.126 C 
BRANCH  13  14
HETATM   14  O1  UNL     1       3.332  13.800  30.750  1.00  0.00    -0.378 OA
ATOM     15  H1  UNL     1       2.512  13.593  31.181  1.00  0.00     0.211 HD
ENDBRANCH  13  14
BRANCH  13  16
HETATM   16  S1  UNL     1       4.571  12.552  32.573  1.00  0.00    -0.130 SA
BRANCH  16  17
HETATM   17  C6  UNL     1       4.264  13.976  33.556  1.00  0.00     0.072 C 
HETATM   18  C7  UNL     1       5.634  14.559  33.962  1.00  0.00     0.016 C 
ENDBRANCH  16  17
ENDBRANCH  13  16
BRANCH  13  19
HETATM   19  C8  UNL     1       5.128  12.676  29.860  1.00  0.00     0.082 C 
HETATM   20  C9  UNL     1       4.801  13.745  28.822  1.00  0.00     0.030 C 
HETATM   21  C10 UNL     1       5.476  11.442  29.075  1.00  0.00     0.030 C 
BRANCH  19  22
HETATM   22  C11 UNL     1       6.341  13.219  30.561  1.00  0.00     0.185 C 
HETATM   23  O2  UNL     1       6.431  14.417  30.859  1.00  0.00    -0.647 OA
HETATM   24  O3  UNL     1       7.335  12.279  30.840  1.00  0.00    -0.647 OA
ENDBRANCH  19  22
ENDBRANCH  13  19
ENDBRANCH   4  13
BRANCH  11  25
HETATM   25  C18 UNL     1      -2.805  10.606  30.880  1.00  0.00     0.027 C 
HETATM   26  C19 UNL     1      -3.761   9.840  29.996  1.00  0.00     0.007 C 
ENDBRANCH  11  25
TORSDOF 7
ENDMDL
MODEL 3
REMARK VINA RESULT: -7.080294765      1.762      3.054
REMARK  7 active torsions:
REMARK  status: ('A' for Active; 'I' for Inactive)
REMARK    1  A    between atoms: C4_4  and  C5_5 
REMARK    2  A    between atoms: C5_5  and  O1_6 
REMARK    3  A    between atoms: C5_5  and  S1_8 
REMARK    4  A    between atoms: C5_5  and  C8_11 
REMARK    5  A    between atoms: S1_8  and  C6_9 
REMARK    6  A    between atoms: C8_11  and  C11_14 
REMARK    7  A    between atoms: C17_23  and  C18_24 
ROOT
HETATM    1  C1  UNL     1       2.677  14.602  31.480  1.00  0.00     0.020 C 
HETATM    2  C2  UNL     1       2.779  13.362  31.018  1.00  0.00    -0.027 C 
HETATM    3  C3  UNL     1       1.797  12.854  30.023  1.00  0.00     0.047 C 
HETATM    4  C4  UNL     1       1.757  11.408  29.787  1.00  0.00     0.036 C 
HETATM    5  C12 UNL     1       2.764  10.617  30.565  1.00  0.00     0.014 C 
HETATM    6  C13 UNL     1       3.161  11.193  31.886  1.00  0.00     0.074 C 
HETATM    7  C14 UNL     1       3.885  12.507  31.523  1.00  0.00     0.188 C 
HETATM    8  O4  UNL     1       4.781  12.161  30.521  1.00  0.00    -0.351 OA
HETATM    9  C15 UNL     1       5.613  13.173  30.124  1.00  0.00     0.174 C 
HETATM   10  C16 UNL     1       6.200  13.944  31.268  1.00  0.00     0.058 C 
HETATM   11  C17 UNL     1       5.789  13.325  32.577  1.00  0.00     0.127 C 
HETATM   12  O5  UNL     1       4.474  12.973  32.661  1.00  0.00    -0.346 OA
ENDROOT
BRANCH   4  13
HETATM   13  C5  UNL     1       0.388  10.747  29.809  1.00  0.00     0.126 C 
BRANCH  13  14
HETATM   14  O1  UNL     1       0.720   9.414  30.299  1.00  0.00    -0.378 OA
ATOM     15  H1  UNL     1       0.210   9.377  31.099  1.00  0.00     0.211 HD
ENDBRANCH  13  14
BRANCH  13  16
HETATM   16  S1  UNL     1      -0.726  11.358  31.040  1.00  0.00    -0.130 SA
BRANCH  16  17
HETATM   17  C6  UNL     1      -1.594  10.218  32.056  1.00  0.00     0.072 C 
HETATM   18  C7  UNL     1      -2.842  10.944  32.601  1.00  0.00     0.016 C 
ENDBRANCH  16  17
ENDBRANCH  13  16
BRANCH  13  19
HETATM   19  C8  UNL     1      -0.202  10.455  28.471  1.00  0.00     0.082 C 
HETATM   20  C9  UNL     1       0.568   9.371  27.726  1.00  0.00     0.030 C 
HETATM   21  C10 UNL     1      -0.306  11.610  27.513  1.00  0.00     0.030 C 
BRANCH  19  22
HETATM   22  C11 UNL     1      -1.552   9.837  28.705  1.00  0.00     0.185 C 
HETATM   23  O2  UNL     1      -1.666   8.699  29.179  1.00  0.00    -0.647 OA
HETATM   24  O3  UNL     1      -2.641  10.636  28.350  1.00  0.00    -0.647 OA
ENDBRANCH  19  22
ENDBRANCH  13  19
ENDBRANCH   4  13
BRANCH  11  25
HETATM   25  C18 UNL     1       6.651  12.140  32.904  1.00  0.00     0.027 C 
HETATM   26  C19 UNL     1       7.909  12.079  32.071  1.00  0.00     0.007 C 
ENDBRANCH  11  25
TORSDOF 7
ENDMDL
MODEL 4
REMARK VINA RESULT: -7.054382721      1.614      2.199
REMARK  7 active torsions:
REMARK  status: ('A' for Active; 'I' for Inactive)
REMARK    1  A    between atoms: C4_4  and  C5_5 
REMARK    2  A    between atoms: C5_5  and  O1_6 
REMARK    3  A    between atoms: C5_5  and  S1_8 
REMARK    4  A    between atoms: C5_5  and  C8_11 
REMARK    5  A    between atoms: S1_8  and  C6_9 
REMARK    6  A    between atoms: C8_11  and  C11_14 
REMARK    7  A    between atoms: C17_23  and  C18_24 
ROOT
HETATM    1  C1  UNL     1       3.662  14.267  29.423  1.00  0.00     0.020 C 
HETATM    2  C2  UNL     1       3.493  13.008  29.806  1.00  0.00    -0.027 C 
HETATM    3  C3  UNL     1       2.299  12.245  29.354  1.00  0.00     0.047 C 
HETATM    4  C4  UNL     1       1.996  10.989  30.046  1.00  0.00     0.036 C 
HETATM    5  C12 UNL     1       2.976  10.608  31.113  1.00  0.00     0.014 C 
HETATM    6  C13 UNL     1       3.663  11.744  31.799  1.00  0.00     0.074 C 
HETATM    7  C14 UNL     1       4.518  12.394  30.691  1.00  0.00     0.188 C 
HETATM    8  O4  UNL     1       5.177  11.339  30.077  1.00  0.00    -0.351 OA
HETATM    9  C15 UNL     1       6.084  11.710  29.121  1.00  0.00     0.174 C 
HETATM   10  C16 UNL     1       6.959  12.853  29.544  1.00  0.00     0.058 C 
HETATM   11  C17 UNL     1       6.668  13.230  30.972  1.00  0.00     0.127 C 
HETATM   12  O5  UNL     1       5.345  13.295  31.293  1.00  0.00    -0.346 OA
ENDROOT
BRANCH   4  13
HETATM   13  C5  UNL     1       0.560  10.789  30.508  1.00  0.00     0.126 C 
BRANCH  13  14
HETATM   14  O1  UNL     1       0.401  11.901  31.438  1.00  0.00    -0.378 OA
ATOM     15  H1  UNL     1      -0.432  12.261  31.157  1.00  0.00     0.211 HD
ENDBRANCH  13  14
BRANCH  13  16
HETATM   16  S1  UNL     1      -0.677  11.111  29.286  1.00  0.00    -0.130 SA
BRANCH  16  17
HETATM   17  C6  UNL     1      -0.839  10.019  27.918  1.00  0.00     0.072 C 
HETATM   18  C7  UNL     1      -2.268   9.439  27.959  1.00  0.00     0.016 C 
ENDBRANCH  16  17
ENDBRANCH  13  16
BRANCH  13  19
HETATM   19  C8  UNL     1       0.330   9.606  31.385  1.00  0.00     0.082 C 
HETATM   20  C9  UNL     1       0.907   9.805  32.783  1.00  0.00     0.030 C 
HETATM   21  C10 UNL     1       0.878   8.292  30.904  1.00  0.00     0.030 C 
BRANCH  19  22
HETATM   22  C11 UNL     1      -1.150   9.509  31.622  1.00  0.00     0.185 C 
HETATM   23  O2  UNL     1      -1.791  10.455  32.097  1.00  0.00    -0.647 OA
HETATM   24  O3  UNL     1      -1.729   8.287  31.270  1.00  0.00    -0.647 OA
ENDBRANCH  19  22
ENDBRANCH  13  19
ENDBRANCH   4  13
BRANCH  11  25
HETATM   25  C18 UNL     1       7.375  12.308  31.924  1.00  0.00     0.027 C 
HETATM   26  C19 UNL     1       8.667  11.760  31.364  1.00  0.00     0.007 C 
ENDBRANCH  11  25
TORSDOF 7
ENDMDL
MODEL 5
REMARK VINA RESULT: -6.889171143      1.921      6.884
REMARK  7 active torsions:
REMARK  status: ('A' for Active; 'I' for Inactive)
REMARK    1  A    between atoms: C4_4  and  C5_5 
REMARK    2  A    between atoms: C5_5  and  O1_6 
REMARK    3  A    between atoms: C5_5  and  S1_8 
REMARK    4  A    between atoms: C5_5  and  C8_11 
REMARK    5  A    between atoms: S1_8  and  C6_9 
REMARK    6  A    between atoms: C8_11  and  C11_14 
REMARK    7  A    between atoms: C17_23  and  C18_24 
ROOT
HETATM    1  C1  UNL     1       0.766  11.734  28.186  1.00  0.00     0.020 C 
HETATM    2  C2  UNL     1       1.264  11.739  29.417  1.00  0.00    -0.027 C 
HETATM    3  C3  UNL     1       2.176  12.832  29.848  1.00  0.00     0.047 C 
HETATM    4  C4  UNL     1       2.940  12.630  31.083  1.00  0.00     0.036 C 
HETATM    5  C12 UNL     1       2.661  11.338  31.788  1.00  0.00     0.014 C 
HETATM    6  C13 UNL     1       2.253  10.197  30.915  1.00  0.00     0.074 C 
HETATM    7  C14 UNL     1       0.890  10.632  30.336  1.00  0.00     0.188 C 
HETATM    8  O4  UNL     1       0.160  11.081  31.428  1.00  0.00    -0.351 OA
HETATM    9  C15 UNL     1      -1.137  11.418  31.149  1.00  0.00     0.174 C 
HETATM   10  C16 UNL     1      -1.838  10.418  30.278  1.00  0.00     0.058 C 
HETATM   11  C17 UNL     1      -0.942   9.236  30.019  1.00  0.00     0.127 C 
HETATM   12  O5  UNL     1       0.349   9.548  29.710  1.00  0.00    -0.346 OA
ENDROOT
BRANCH   4  13
HETATM   13  C5  UNL     1       4.430  12.926  31.024  1.00  0.00     0.126 C 
BRANCH  13  14
HETATM   14  O1  UNL     1       4.984  11.734  31.656  1.00  0.00    -0.378 OA
ATOM     15  H1  UNL     1       5.085  12.029  32.554  1.00  0.00     0.211 HD
ENDBRANCH  13  14
BRANCH  13  16
HETATM   16  S1  UNL     1       5.144  12.886  29.406  1.00  0.00    -0.130 SA
BRANCH  16  17
HETATM   17  C6  UNL     1       5.937  11.419  28.851  1.00  0.00     0.072 C 
HETATM   18  C7  UNL     1       7.390  11.458  29.368  1.00  0.00     0.016 C 
ENDBRANCH  16  17
ENDBRANCH  13  16
BRANCH  13  19
HETATM   19  C8  UNL     1       4.902  14.014  31.927  1.00  0.00     0.082 C 
HETATM   20  C9  UNL     1       4.349  13.868  33.341  1.00  0.00     0.030 C 
HETATM   21  C10 UNL     1       4.584  15.423  31.510  1.00  0.00     0.030 C 
BRANCH  19  22
HETATM   22  C11 UNL     1       6.383  13.835  32.104  1.00  0.00     0.185 C 
HETATM   23  O2  UNL     1       7.193  14.348  31.321  1.00  0.00    -0.647 OA
HETATM   24  O3  UNL     1       6.761  13.057  33.200  1.00  0.00    -0.647 OA
ENDBRANCH  19  22
ENDBRANCH  13  19
ENDBRANCH   4  13
BRANCH  11  25
HETATM   25  C18 UNL     1      -0.968   8.280  31.176  1.00  0.00     0.027 C 
HETATM   26  C19 UNL     1      -2.087   8.564  32.150  1.00  0.00     0.007 C 
ENDBRANCH  11  25
TORSDOF 7
ENDMDL
