MODEL 1
REMARK VINA RESULT: -9.301406328      0.000      0.000
REMARK  7 active torsions:
REMARK  status: ('A' for Active; 'I' for Inactive)
REMARK    1  A    between atoms: C2_2  and  C3_3 
REMARK    2  A    between atoms: C3_3  and  O1_4 
REMARK    3  A    between atoms: O1_4  and  C4_5 
REMARK    4  A    between atoms: C8_9  and  C9_10 
REMARK    5  A    between atoms: C13_14  and  O2_15 
REMARK    6  A    between atoms: C14_17  and  C15_18 
REMARK    7  A    between atoms: N1_19  and  N2_21 
ROOT
HETATM    1  C4  UNL     1       5.578  14.972  34.087  1.00  0.00     0.070 A 
HETATM    2  C5  UNL     1       6.749  14.643  33.462  1.00  0.00     0.037 A 
HETATM    3  C6  UNL     1       6.732  13.879  32.292  1.00  0.00     0.015 A 
HETATM    4  C7  UNL     1       5.588  13.425  31.712  1.00  0.00    -0.016 A 
HETATM    5  C8  UNL     1       5.603  12.673  30.555  1.00  0.00    -0.005 A 
HETATM    6  C13 UNL     1       4.374  12.278  30.073  1.00  0.00     0.085 A 
HETATM    7  C14 UNL     1       3.179  12.615  30.710  1.00  0.00     0.015 A 
HETATM    8  C20 UNL     1       3.211  13.371  31.869  1.00  0.00     0.028 A 
HETATM    9  C21 UNL     1       4.408  13.768  32.357  1.00  0.00    -0.022 A 
HETATM   10  C22 UNL     1       4.417  14.533  33.530  1.00  0.00     0.049 A 
ENDROOT
BRANCH   7  11
HETATM   11  C15 UNL     1       1.899  12.193  30.193  1.00  0.00     0.121 C 
HETATM   12  N1  UNL     1       1.044  11.577  30.911  1.00  0.00    -0.313 N 
ATOM     13  H1  UNL     1       1.280  11.378  31.884  1.00  0.00     0.185 HD
BRANCH  12  14
HETATM   14  N2  UNL     1      -0.183  11.168  30.436  1.00  0.00    -0.325 N 
HETATM   15  C16 UNL     1      -1.297  11.000  31.342  1.00  0.00     0.170 C 
HETATM   16  C17 UNL     1      -1.868   9.618  31.163  1.00  0.00     0.253 C 
HETATM   17  N3  UNL     1      -1.919   9.184  29.798  1.00  0.00    -0.072 N 
HETATM   18  C18 UNL     1      -1.788  10.309  28.895  1.00  0.00     0.253 C 
ATOM     19  H32 UNL     1      -1.224   8.463  29.606  1.00  0.00     0.277 HD
ATOM     20  H31 UNL     1      -2.762   8.642  29.606  1.00  0.00     0.277 HD
HETATM   21  C19 UNL     1      -0.394  10.899  29.039  1.00  0.00     0.170 C 
ENDBRANCH  12  14
ENDBRANCH   7  11
BRANCH   6  22
HETATM   22  O2  UNL     1       4.294  11.539  28.947  1.00  0.00    -0.359 OA
ATOM     23  H2  UNL     1       3.810  11.863  28.197  1.00  0.00     0.217 HD
ENDBRANCH   6  22
BRANCH   5  24
HETATM   24  C9  UNL     1       6.835  12.310  29.877  1.00  0.00    -0.021 C 
HETATM   25  C10 UNL     1       7.879  11.615  30.738  1.00  0.00     0.019 C 
HETATM   26  C11 UNL     1       7.632  13.514  29.374  1.00  0.00     0.019 C 
HETATM   27  C12 UNL     1       6.631  11.261  28.766  1.00  0.00     0.019 C 
ENDBRANCH   5  24
BRANCH   1  28
HETATM   28  O1  UNL     1       5.589  15.732  35.251  1.00  0.00    -0.347 OA
BRANCH  28  29
HETATM   29  C3  UNL     1       6.623  15.680  36.195  1.00  0.00     0.202 C 
BRANCH  29  30
HETATM   30  C2  UNL     1       7.304  16.998  36.255  1.00  0.00    -0.011 C 
HETATM   31  C1  UNL     1       8.612  17.074  36.220  1.00  0.00     0.009 C 
ENDBRANCH  29  30
ENDBRANCH  28  29
ENDBRANCH   1  28
TORSDOF 7
ENDMDL
MODEL 2
REMARK VINA RESULT: -9.189745499      0.696      1.128
REMARK  7 active torsions:
REMARK  status: ('A' for Active; 'I' for Inactive)
REMARK    1  A    between atoms: C2_2  and  C3_3 
REMARK    2  A    between atoms: C3_3  and  O1_4 
REMARK    3  A    between atoms: O1_4  and  C4_5 
REMARK    4  A    between atoms: C8_9  and  C9_10 
REMARK    5  A    between atoms: C13_14  and  O2_15 
REMARK    6  A    between atoms: C14_17  and  C15_18 
REMARK    7  A    between atoms: N1_19  and  N2_21 
ROOT
HETATM    1  C4  UNL     1       5.559  14.949  34.060  1.00  0.00     0.070 A 
HETATM    2  C5  UNL     1       6.741  14.691  33.422  1.00  0.00     0.037 A 
HETATM    3  C6  UNL     1       6.762  13.898  32.271  1.00  0.00     0.015 A 
HETATM    4  C7  UNL     1       5.646  13.347  31.723  1.00  0.00    -0.016 A 
HETATM    5  C8  UNL     1       5.698  12.569  30.585  1.00  0.00    -0.005 A 
HETATM    6  C13 UNL     1       4.493  12.073  30.134  1.00  0.00     0.085 A 
HETATM    7  C14 UNL     1       3.287  12.337  30.784  1.00  0.00     0.015 A 
HETATM    8  C20 UNL     1       3.281  13.122  31.924  1.00  0.00     0.028 A 
HETATM    9  C21 UNL     1       4.454  13.618  32.381  1.00  0.00    -0.022 A 
HETATM   10  C22 UNL     1       4.425  14.411  33.534  1.00  0.00     0.049 A 
ENDROOT
BRANCH   7  11
HETATM   11  C15 UNL     1       2.033  11.810  30.300  1.00  0.00     0.121 C 
HETATM   12  N1  UNL     1       1.736  10.573  30.388  1.00  0.00    -0.313 N 
ATOM     13  H1  UNL     1       2.412   9.939  30.815  1.00  0.00     0.185 HD
BRANCH  12  14
HETATM   14  N2  UNL     1       0.544  10.051  29.932  1.00  0.00    -0.325 N 
HETATM   15  C16 UNL     1       0.191  10.153  28.534  1.00  0.00     0.170 C 
HETATM   16  C17 UNL     1      -1.173  10.781  28.419  1.00  0.00     0.253 C 
HETATM   17  N3  UNL     1      -2.103  10.332  29.413  1.00  0.00    -0.072 N 
HETATM   18  C18 UNL     1      -1.643   9.106  30.032  1.00  0.00     0.253 C 
ATOM     19  H32 UNL     1      -2.294  11.056  30.106  1.00  0.00     0.277 HD
ATOM     20  H31 UNL     1      -3.044  10.232  29.032  1.00  0.00     0.277 HD
HETATM   21  C19 UNL     1      -0.376   9.395  30.821  1.00  0.00     0.170 C 
ENDBRANCH  12  14
ENDBRANCH   7  11
BRANCH   6  22
HETATM   22  O2  UNL     1       4.450  11.301  29.028  1.00  0.00    -0.359 OA
ATOM     23  H2  UNL     1       3.921  10.512  29.017  1.00  0.00     0.217 HD
ENDBRANCH   6  22
BRANCH   5  24
HETATM   24  C9  UNL     1       6.941  12.280  29.894  1.00  0.00    -0.021 C 
HETATM   25  C10 UNL     1       8.006  11.579  30.722  1.00  0.00     0.019 C 
HETATM   26  C11 UNL     1       7.700  13.534  29.452  1.00  0.00     0.019 C 
HETATM   27  C12 UNL     1       6.774  11.282  28.732  1.00  0.00     0.019 C 
ENDBRANCH   5  24
BRANCH   1  28
HETATM   28  O1  UNL     1       5.533  15.736  35.205  1.00  0.00    -0.347 OA
BRANCH  28  29
HETATM   29  C3  UNL     1       6.537  15.710  36.182  1.00  0.00     0.202 C 
BRANCH  29  30
HETATM   30  C2  UNL     1       7.236  17.020  36.207  1.00  0.00    -0.011 C 
HETATM   31  C1  UNL     1       8.546  17.076  36.209  1.00  0.00     0.009 C 
ENDBRANCH  29  30
ENDBRANCH  28  29
ENDBRANCH   1  28
TORSDOF 7
ENDMDL
MODEL 3
REMARK VINA RESULT: -8.390760825      4.093      7.112
REMARK  7 active torsions:
REMARK  status: ('A' for Active; 'I' for Inactive)
REMARK    1  A    between atoms: C2_2  and  C3_3 
REMARK    2  A    between atoms: C3_3  and  O1_4 
REMARK    3  A    between atoms: O1_4  and  C4_5 
REMARK    4  A    between atoms: C8_9  and  C9_10 
REMARK    5  A    between atoms: C13_14  and  O2_15 
REMARK    6  A    between atoms: C14_17  and  C15_18 
REMARK    7  A    between atoms: N1_19  and  N2_21 
ROOT
HETATM    1  C4  UNL     1       1.979  10.728  31.574  1.00  0.00     0.070 A 
HETATM    2  C5  UNL     1       3.268  10.538  31.991  1.00  0.00     0.037 A 
HETATM    3  C6  UNL     1       4.137  11.626  32.106  1.00  0.00     0.015 A 
HETATM    4  C7  UNL     1       3.775  12.906  31.823  1.00  0.00    -0.016 A 
HETATM    5  C8  UNL     1       4.657  13.960  31.947  1.00  0.00    -0.005 A 
HETATM    6  C13 UNL     1       4.161  15.207  31.628  1.00  0.00     0.085 A 
HETATM    7  C14 UNL     1       2.846  15.400  31.203  1.00  0.00     0.015 A 
HETATM    8  C20 UNL     1       1.996  14.314  31.092  1.00  0.00     0.028 A 
HETATM    9  C21 UNL     1       2.465  13.082  31.401  1.00  0.00    -0.022 A 
HETATM   10  C22 UNL     1       1.587  11.998  31.284  1.00  0.00     0.049 A 
ENDROOT
BRANCH   7  11
HETATM   11  C15 UNL     1       2.341  16.711  30.873  1.00  0.00     0.121 C 
HETATM   12  N1  UNL     1       1.219  17.136  31.303  1.00  0.00    -0.313 N 
ATOM     13  H1  UNL     1       0.664  16.524  31.901  1.00  0.00     0.185 HD
BRANCH  12  14
HETATM   14  N2  UNL     1       0.720  18.385  30.999  1.00  0.00    -0.325 N 
HETATM   15  C16 UNL     1       1.300  19.159  29.924  1.00  0.00     0.170 C 
HETATM   16  C17 UNL     1       1.676  20.519  30.449  1.00  0.00     0.253 C 
HETATM   17  N3  UNL     1       0.719  21.073  31.362  1.00  0.00    -0.072 N 
HETATM   18  C18 UNL     1      -0.552  20.386  31.255  1.00  0.00     0.253 C 
ATOM     19  H32 UNL     1       1.069  21.073  32.320  1.00  0.00     0.277 HD
ATOM     20  H31 UNL     1       0.616  22.080  31.235  1.00  0.00     0.277 HD
HETATM   21  C19 UNL     1      -0.380  18.951  31.730  1.00  0.00     0.170 C 
ENDBRANCH  12  14
ENDBRANCH   7  11
BRANCH   6  22
HETATM   22  O2  UNL     1       4.954  16.294  31.720  1.00  0.00    -0.359 OA
ATOM     23  H2  UNL     1       4.569  17.157  31.821  1.00  0.00     0.217 HD
ENDBRANCH   6  22
BRANCH   5  24
HETATM   24  C9  UNL     1       6.029  13.781  32.385  1.00  0.00    -0.021 C 
HETATM   25  C10 UNL     1       6.364  12.412  32.957  1.00  0.00     0.019 C 
HETATM   26  C11 UNL     1       6.420  14.685  33.555  1.00  0.00     0.019 C 
HETATM   27  C12 UNL     1       7.051  13.872  31.235  1.00  0.00     0.019 C 
ENDBRANCH   5  24
BRANCH   1  28
HETATM   28  O1  UNL     1       1.109   9.650  31.457  1.00  0.00    -0.347 OA
BRANCH  28  29
HETATM   29  C3  UNL     1      -0.092   9.703  30.738  1.00  0.00     0.202 C 
BRANCH  29  30
HETATM   30  C2  UNL     1      -1.236   9.695  31.685  1.00  0.00    -0.011 C 
HETATM   31  C1  UNL     1      -2.100  10.680  31.694  1.00  0.00     0.009 C 
ENDBRANCH  29  30
ENDBRANCH  28  29
ENDBRANCH   1  28
TORSDOF 7
ENDMDL
MODEL 4
REMARK VINA RESULT: -8.387845753      4.240      7.278
REMARK  7 active torsions:
REMARK  status: ('A' for Active; 'I' for Inactive)
REMARK    1  A    between atoms: C2_2  and  C3_3 
REMARK    2  A    between atoms: C3_3  and  O1_4 
REMARK    3  A    between atoms: O1_4  and  C4_5 
REMARK    4  A    between atoms: C8_9  and  C9_10 
REMARK    5  A    between atoms: C13_14  and  O2_15 
REMARK    6  A    between atoms: C14_17  and  C15_18 
REMARK    7  A    between atoms: N1_19  and  N2_21 
ROOT
HETATM    1  C4  UNL     1       1.577  11.200  31.269  1.00  0.00     0.070 A 
HETATM    2  C5  UNL     1       2.759  10.829  31.849  1.00  0.00     0.037 A 
HETATM    3  C6  UNL     1       3.767  11.775  32.059  1.00  0.00     0.015 A 
HETATM    4  C7  UNL     1       3.647  13.085  31.714  1.00  0.00    -0.016 A 
HETATM    5  C8  UNL     1       4.659  13.995  31.935  1.00  0.00    -0.005 A 
HETATM    6  C13 UNL     1       4.407  15.291  31.538  1.00  0.00     0.085 A 
HETATM    7  C14 UNL     1       3.201  15.669  30.947  1.00  0.00     0.015 A 
HETATM    8  C20 UNL     1       2.212  14.723  30.744  1.00  0.00     0.028 A 
HETATM    9  C21 UNL     1       2.441  13.445  31.127  1.00  0.00    -0.022 A 
HETATM   10  C22 UNL     1       1.427  12.504  30.914  1.00  0.00     0.049 A 
ENDROOT
BRANCH   7  11
HETATM   11  C15 UNL     1       2.951  17.030  30.537  1.00  0.00     0.121 C 
HETATM   12  N1  UNL     1       1.907  17.668  30.896  1.00  0.00    -0.313 N 
ATOM     13  H1  UNL     1       1.229  17.195  31.493  1.00  0.00     0.185 HD
BRANCH  12  14
HETATM   14  N2  UNL     1       1.652  18.968  30.514  1.00  0.00    -0.325 N 
HETATM   15  C16 UNL     1       0.786  19.806  31.315  1.00  0.00     0.170 C 
HETATM   16  C17 UNL     1      -0.294  20.375  30.433  1.00  0.00     0.253 C 
HETATM   17  N3  UNL     1       0.165  20.768  29.133  1.00  0.00    -0.072 N 
HETATM   18  C18 UNL     1       1.607  20.899  29.115  1.00  0.00     0.253 C 
ATOM     19  H32 UNL     1      -0.165  20.132  28.408  1.00  0.00     0.277 HD
ATOM     20  H31 UNL     1      -0.295  21.620  28.813  1.00  0.00     0.277 HD
HETATM   21  C19 UNL     1       2.231  19.528  29.323  1.00  0.00     0.170 C 
ENDBRANCH  12  14
ENDBRANCH   7  11
BRANCH   6  22
HETATM   22  O2  UNL     1       5.342  16.247  31.716  1.00  0.00    -0.359 OA
ATOM     23  H2  UNL     1       6.194  16.021  32.072  1.00  0.00     0.217 HD
ENDBRANCH   6  22
BRANCH   5  24
HETATM   24  C9  UNL     1       5.922  13.623  32.547  1.00  0.00    -0.021 C 
HETATM   25  C10 UNL     1       5.994  12.208  33.098  1.00  0.00     0.019 C 
HETATM   26  C11 UNL     1       6.258  14.437  33.798  1.00  0.00     0.019 C 
HETATM   27  C12 UNL     1       7.098  13.606  31.551  1.00  0.00     0.019 C 
ENDBRANCH   5  24
BRANCH   1  28
HETATM   28  O1  UNL     1       0.571  10.264  31.057  1.00  0.00    -0.347 OA
BRANCH  28  29
HETATM   29  C3  UNL     1      -0.608  10.545  30.355  1.00  0.00     0.202 C 
BRANCH  29  30
HETATM   30  C2  UNL     1      -0.454  10.118  28.941  1.00  0.00    -0.011 C 
HETATM   31  C1  UNL     1      -0.263  11.004  27.994  1.00  0.00     0.009 C 
ENDBRANCH  29  30
ENDBRANCH  28  29
ENDBRANCH   1  28
TORSDOF 7
ENDMDL
MODEL 5
REMARK VINA RESULT: -8.011469617      4.057      7.534
REMARK  7 active torsions:
REMARK  status: ('A' for Active; 'I' for Inactive)
REMARK    1  A    between atoms: C2_2  and  C3_3 
REMARK    2  A    between atoms: C3_3  and  O1_4 
REMARK    3  A    between atoms: O1_4  and  C4_5 
REMARK    4  A    between atoms: C8_9  and  C9_10 
REMARK    5  A    between atoms: C13_14  and  O2_15 
REMARK    6  A    between atoms: C14_17  and  C15_18 
REMARK    7  A    between atoms: N1_19  and  N2_21 
ROOT
HETATM    1  C4  UNL     1       2.079  12.245  29.314  1.00  0.00     0.070 A 
HETATM    2  C5  UNL     1       1.855  11.992  30.640  1.00  0.00     0.037 A 
HETATM    3  C6  UNL     1       0.696  11.324  31.043  1.00  0.00     0.015 A 
HETATM    4  C7  UNL     1      -0.258  10.893  30.175  1.00  0.00    -0.016 A 
HETATM    5  C8  UNL     1      -1.393  10.235  30.603  1.00  0.00    -0.005 A 
HETATM    6  C13 UNL     1      -2.279   9.851  29.619  1.00  0.00     0.085 A 
HETATM    7  C14 UNL     1      -2.050  10.109  28.268  1.00  0.00     0.015 A 
HETATM    8  C20 UNL     1      -0.899  10.772  27.882  1.00  0.00     0.028 A 
HETATM    9  C21 UNL     1      -0.016  11.157  28.834  1.00  0.00    -0.022 A 
HETATM   10  C22 UNL     1       1.143  11.825  28.422  1.00  0.00     0.049 A 
ENDROOT
BRANCH   7  11
HETATM   11  C15 UNL     1      -2.988   9.701  27.248  1.00  0.00     0.121 C 
HETATM   12  N1  UNL     1      -3.524   8.544  27.241  1.00  0.00    -0.313 N 
ATOM     13  H1  UNL     1      -3.278   7.890  27.983  1.00  0.00     0.185 HD
BRANCH  12  14
HETATM   14  N2  UNL     1      -4.422   8.137  26.277  1.00  0.00    -0.325 N 
HETATM   15  C16 UNL     1      -5.231   9.110  25.577  1.00  0.00     0.170 C 
HETATM   16  C17 UNL     1      -6.679   8.713  25.691  1.00  0.00     0.253 C 
HETATM   17  N3  UNL     1      -6.905   7.302  25.573  1.00  0.00    -0.072 N 
HETATM   18  C18 UNL     1      -5.757   6.645  24.982  1.00  0.00     0.253 C 
ATOM     19  H32 UNL     1      -7.158   6.885  26.469  1.00  0.00     0.277 HD
ATOM     20  H31 UNL     1      -7.762   7.099  25.060  1.00  0.00     0.277 HD
HETATM   21  C19 UNL     1      -4.580   6.749  25.939  1.00  0.00     0.170 C 
ENDBRANCH  12  14
ENDBRANCH   7  11
BRANCH   6  22
HETATM   22  O2  UNL     1      -3.416   9.203  29.948  1.00  0.00    -0.359 OA
ATOM     23  H2  UNL     1      -4.232   9.683  30.030  1.00  0.00     0.217 HD
ENDBRANCH   6  22
BRANCH   5  24
HETATM   24  C9  UNL     1      -1.652   9.959  32.005  1.00  0.00    -0.021 C 
HETATM   25  C10 UNL     1      -2.307   8.618  32.301  1.00  0.00     0.019 C 
HETATM   26  C11 UNL     1      -2.660  10.918  32.640  1.00  0.00     0.019 C 
HETATM   27  C12 UNL     1      -0.368   9.847  32.850  1.00  0.00     0.019 C 
ENDBRANCH   5  24
BRANCH   1  28
HETATM   28  O1  UNL     1       3.231  12.910  28.908  1.00  0.00    -0.347 OA
BRANCH  28  29
HETATM   29  C3  UNL     1       4.256  13.283  29.786  1.00  0.00     0.202 C 
BRANCH  29  30
HETATM   30  C2  UNL     1       5.526  12.638  29.366  1.00  0.00    -0.011 C 
HETATM   31  C1  UNL     1       5.513  11.601  28.564  1.00  0.00     0.009 C 
ENDBRANCH  29  30
ENDBRANCH  28  29
ENDBRANCH   1  28
TORSDOF 7
ENDMDL
