MODEL 1
REMARK VINA RESULT: -8.713216123      0.000      0.000
REMARK  7 active torsions:
REMARK  status: ('A' for Active; 'I' for Inactive)
REMARK    1  A    between atoms: C3_6  and  C4_7 
REMARK    2  A    between atoms: C11_14  and  C12_15 
REMARK       I    between atoms: C12_15  and  N2_17 
REMARK    3  A    between atoms: N2_17  and  C13_19 
REMARK    4  A    between atoms: C13_19  and  C14_20 
REMARK    5  A    between atoms: C14_20  and  N3_21 
REMARK    6  A    between atoms: C14_20  and  C15_25 
REMARK    7  A    between atoms: C15_25  and  C16_26 
ROOT
HETATM    1  C12 UNL     1       1.174  11.440  30.500  1.00  0.00     0.256 C 
HETATM    2  O2  UNL     1       0.601  12.471  30.939  1.00  0.00    -0.267 OA
HETATM    3  N2  UNL     1       2.188  11.619  29.575  1.00  0.00    -0.355 N 
ATOM      4  H2  UNL     1       2.695  10.818  29.196  1.00  0.00     0.162 HD
ENDROOT
BRANCH   1   5
HETATM    5  C11 UNL     1       0.727  10.147  30.992  1.00  0.00     0.092 A 
HETATM    6  C2  UNL     1       1.352   9.334  31.892  1.00  0.00     0.090 A 
HETATM    7  C1  UNL     1       2.577   9.669  32.707  1.00  0.00     0.080 C 
HETATM    8  O1  UNL     1       0.680   8.245  31.893  1.00  0.00    -0.241 OA
HETATM    9  N1  UNL     1      -0.346   8.257  31.064  1.00  0.00    -0.260 N 
HETATM   10  C3  UNL     1      -0.363   9.514  30.446  1.00  0.00     0.075 A 
ATOM     11  H1  UNL     1      -1.004   7.494  30.903  1.00  0.00     0.195 HD
BRANCH  10  12
HETATM   12  C4  UNL     1      -1.519   9.978  29.679  1.00  0.00    -0.050 C 
HETATM   13  C5  UNL     1      -1.248  10.729  28.422  1.00  0.00     0.037 C 
HETATM   14  C6  UNL     1      -2.366  10.641  27.467  1.00  0.00     0.009 C 
HETATM   15  C7  UNL     1      -3.632  10.041  27.916  1.00  0.00    -0.018 C 
HETATM   16  C8  UNL     1      -3.788   8.669  27.243  1.00  0.00     0.010 C 
HETATM   17  C9  UNL     1      -3.934   9.971  29.349  1.00  0.00     0.009 C 
HETATM   18  C10 UNL     1      -2.781  10.329  30.302  1.00  0.00     0.037 C 
ENDBRANCH  10  12
ENDBRANCH   1   5
BRANCH   3  19
HETATM   19  C13 UNL     1       2.526  13.004  29.144  1.00  0.00     0.155 C 
BRANCH  19  20
HETATM   20  C14 UNL     1       3.616  13.572  29.952  1.00  0.00     0.201 C 
BRANCH  20  21
HETATM   21  N3  UNL     1       3.453  15.037  29.910  1.00  0.00    -0.073 N 
ATOM     22  H33 UNL     1       4.335  15.539  29.800  1.00  0.00     0.274 HD
ATOM     23  H32 UNL     1       3.009  15.369  29.053  1.00  0.00     0.274 HD
ATOM     24  H31 UNL     1       2.944  15.298  30.755  1.00  0.00     0.274 HD
ENDBRANCH  20  21
BRANCH  20  25
HETATM   25  C15 UNL     1       5.001  13.298  29.334  1.00  0.00     0.039 C 
BRANCH  25  26
HETATM   26  C16 UNL     1       5.673  12.286  30.328  1.00  0.00    -0.013 C 
HETATM   27  C17 UNL     1       7.106  12.230  30.017  1.00  0.00     0.005 C 
HETATM   28  C18 UNL     1       8.056  12.132  31.146  1.00  0.00     0.000 C 
HETATM   29  C19 UNL     1       7.413  12.144  32.513  1.00  0.00     0.000 C 
HETATM   30  C20 UNL     1       6.321  13.192  32.553  1.00  0.00     0.000 C 
HETATM   31  C21 UNL     1       5.208  12.613  31.678  1.00  0.00     0.005 C 
ENDBRANCH  25  26
ENDBRANCH  20  25
ENDBRANCH  19  20
ENDBRANCH   3  19
TORSDOF 7
ENDMDL
MODEL 2
REMARK VINA RESULT: -8.681212144      0.428      1.064
REMARK  7 active torsions:
REMARK  status: ('A' for Active; 'I' for Inactive)
REMARK    1  A    between atoms: C3_6  and  C4_7 
REMARK    2  A    between atoms: C11_14  and  C12_15 
REMARK       I    between atoms: C12_15  and  N2_17 
REMARK    3  A    between atoms: N2_17  and  C13_19 
REMARK    4  A    between atoms: C13_19  and  C14_20 
REMARK    5  A    between atoms: C14_20  and  N3_21 
REMARK    6  A    between atoms: C14_20  and  C15_25 
REMARK    7  A    between atoms: C15_25  and  C16_26 
ROOT
HETATM    1  C12 UNL     1       1.109  11.357  30.548  1.00  0.00     0.256 C 
HETATM    2  O2  UNL     1       0.588  12.410  30.998  1.00  0.00    -0.267 OA
HETATM    3  N2  UNL     1       2.112  11.494  29.603  1.00  0.00    -0.355 N 
ATOM      4  H2  UNL     1       2.577  10.673  29.215  1.00  0.00     0.162 HD
ENDROOT
BRANCH   1   5
HETATM    5  C11 UNL     1       0.618  10.083  31.049  1.00  0.00     0.092 A 
HETATM    6  C2  UNL     1       1.205   9.266  31.970  1.00  0.00     0.090 A 
HETATM    7  C1  UNL     1       2.425   9.579  32.803  1.00  0.00     0.080 C 
HETATM    8  O1  UNL     1       0.504   8.195  31.974  1.00  0.00    -0.241 OA
HETATM    9  N1  UNL     1      -0.506   8.223  31.127  1.00  0.00    -0.260 N 
HETATM   10  C3  UNL     1      -0.478   9.471  30.492  1.00  0.00     0.075 A 
ATOM     11  H1  UNL     1      -1.182   7.476  30.964  1.00  0.00     0.195 HD
BRANCH  10  12
HETATM   12  C4  UNL     1      -1.608   9.955  29.698  1.00  0.00    -0.050 C 
HETATM   13  C5  UNL     1      -1.294  10.704  28.450  1.00  0.00     0.037 C 
HETATM   14  C6  UNL     1      -2.389  10.636  27.468  1.00  0.00     0.009 C 
HETATM   15  C7  UNL     1      -3.676  10.057  27.884  1.00  0.00    -0.018 C 
HETATM   16  C8  UNL     1      -3.838   8.689  27.205  1.00  0.00     0.010 C 
HETATM   17  C9  UNL     1      -4.014   9.989  29.310  1.00  0.00     0.009 C 
HETATM   18  C10 UNL     1      -2.879  10.326  30.292  1.00  0.00     0.037 C 
ENDBRANCH  10  12
ENDBRANCH   1   5
BRANCH   3  19
HETATM   19  C13 UNL     1       2.497  12.864  29.165  1.00  0.00     0.155 C 
BRANCH  19  20
HETATM   20  C14 UNL     1       3.702  13.337  29.866  1.00  0.00     0.201 C 
BRANCH  20  21
HETATM   21  N3  UNL     1       3.773  14.794  29.645  1.00  0.00    -0.073 N 
ATOM     22  H33 UNL     1       3.854  15.049  28.661  1.00  0.00     0.274 HD
ATOM     23  H32 UNL     1       2.891  15.273  29.829  1.00  0.00     0.274 HD
ATOM     24  H31 UNL     1       4.546  15.138  30.216  1.00  0.00     0.274 HD
ENDBRANCH  20  21
BRANCH  20  25
HETATM   25  C15 UNL     1       4.994  12.768  29.249  1.00  0.00     0.039 C 
BRANCH  25  26
HETATM   26  C16 UNL     1       6.119  13.185  30.260  1.00  0.00    -0.013 C 
HETATM   27  C17 UNL     1       5.689  12.787  31.606  1.00  0.00     0.005 C 
HETATM   28  C18 UNL     1       6.712  12.249  32.529  1.00  0.00     0.000 C 
HETATM   29  C19 UNL     1       8.098  12.138  31.938  1.00  0.00     0.000 C 
HETATM   30  C20 UNL     1       8.009  11.588  30.530  1.00  0.00     0.000 C 
HETATM   31  C21 UNL     1       7.401  12.730  29.715  1.00  0.00     0.005 C 
ENDBRANCH  25  26
ENDBRANCH  20  25
ENDBRANCH  19  20
ENDBRANCH   3  19
TORSDOF 7
ENDMDL
MODEL 3
REMARK VINA RESULT: -8.526989673      1.231      1.845
REMARK  7 active torsions:
REMARK  status: ('A' for Active; 'I' for Inactive)
REMARK    1  A    between atoms: C3_6  and  C4_7 
REMARK    2  A    between atoms: C11_14  and  C12_15 
REMARK       I    between atoms: C12_15  and  N2_17 
REMARK    3  A    between atoms: N2_17  and  C13_19 
REMARK    4  A    between atoms: C13_19  and  C14_20 
REMARK    5  A    between atoms: C14_20  and  N3_21 
REMARK    6  A    between atoms: C14_20  and  C15_25 
REMARK    7  A    between atoms: C15_25  and  C16_26 
ROOT
HETATM    1  C12 UNL     1       1.157  11.201  30.576  1.00  0.00     0.256 C 
HETATM    2  O2  UNL     1       0.687  12.309  30.940  1.00  0.00    -0.267 OA
HETATM    3  N2  UNL     1       2.218  11.218  29.687  1.00  0.00    -0.355 N 
ATOM      4  H2  UNL     1       2.646  10.347  29.370  1.00  0.00     0.162 HD
ENDROOT
BRANCH   1   5
HETATM    5  C11 UNL     1       0.552   9.992  31.113  1.00  0.00     0.092 A 
HETATM    6  C2  UNL     1       1.048   9.167  32.079  1.00  0.00     0.090 A 
HETATM    7  C1  UNL     1       2.271   9.412  32.929  1.00  0.00     0.080 C 
HETATM    8  O1  UNL     1       0.261   8.158  32.105  1.00  0.00    -0.241 OA
HETATM    9  N1  UNL     1      -0.725   8.235  31.232  1.00  0.00    -0.260 N 
HETATM   10  C3  UNL     1      -0.579   9.451  30.551  1.00  0.00     0.075 A 
ATOM     11  H1  UNL     1      -1.456   7.540  31.080  1.00  0.00     0.195 HD
BRANCH  10  12
HETATM   12  C4  UNL     1      -1.647   9.994  29.712  1.00  0.00    -0.050 C 
HETATM   13  C5  UNL     1      -1.242  10.689  28.457  1.00  0.00     0.037 C 
HETATM   14  C6  UNL     1      -2.310  10.675  27.443  1.00  0.00     0.009 C 
HETATM   15  C7  UNL     1      -3.646  10.197  27.830  1.00  0.00    -0.018 C 
HETATM   16  C8  UNL     1      -3.884   8.828  27.176  1.00  0.00     0.010 C 
HETATM   17  C9  UNL     1      -4.031  10.187  29.246  1.00  0.00     0.009 C 
HETATM   18  C10 UNL     1      -2.906  10.468  30.255  1.00  0.00     0.037 C 
ENDBRANCH  10  12
ENDBRANCH   1   5
BRANCH   3  19
HETATM   19  C13 UNL     1       2.722  12.533  29.202  1.00  0.00     0.155 C 
BRANCH  19  20
HETATM   20  C14 UNL     1       4.153  12.707  29.502  1.00  0.00     0.201 C 
BRANCH  20  21
HETATM   21  N3  UNL     1       4.876  11.695  28.710  1.00  0.00    -0.073 N 
ATOM     22  H33 UNL     1       5.033  10.823  29.216  1.00  0.00     0.274 HD
ATOM     23  H32 UNL     1       4.318  11.303  27.950  1.00  0.00     0.274 HD
ATOM     24  H31 UNL     1       5.738  12.137  28.390  1.00  0.00     0.274 HD
ENDBRANCH  20  21
BRANCH  20  25
HETATM   25  C15 UNL     1       4.481  12.384  30.973  1.00  0.00     0.039 C 
BRANCH  25  26
HETATM   26  C16 UNL     1       4.800  13.781  31.612  1.00  0.00    -0.013 C 
HETATM   27  C17 UNL     1       3.960  13.936  32.806  1.00  0.00     0.005 C 
HETATM   28  C18 UNL     1       4.555  14.588  33.992  1.00  0.00     0.000 C 
HETATM   29  C19 UNL     1       6.004  14.986  33.831  1.00  0.00     0.000 C 
HETATM   30  C20 UNL     1       6.763  13.875  33.138  1.00  0.00     0.000 C 
HETATM   31  C21 UNL     1       6.256  13.912  31.696  1.00  0.00     0.005 C 
ENDBRANCH  25  26
ENDBRANCH  20  25
ENDBRANCH  19  20
ENDBRANCH   3  19
TORSDOF 7
ENDMDL
MODEL 4
REMARK VINA RESULT: -8.526426867      2.512      4.151
REMARK  7 active torsions:
REMARK  status: ('A' for Active; 'I' for Inactive)
REMARK    1  A    between atoms: C3_6  and  C4_7 
REMARK    2  A    between atoms: C11_14  and  C12_15 
REMARK       I    between atoms: C12_15  and  N2_17 
REMARK    3  A    between atoms: N2_17  and  C13_19 
REMARK    4  A    between atoms: C13_19  and  C14_20 
REMARK    5  A    between atoms: C14_20  and  N3_21 
REMARK    6  A    between atoms: C14_20  and  C15_25 
REMARK    7  A    between atoms: C15_25  and  C16_26 
ROOT
HETATM    1  C12 UNL     1      -1.499   9.266  30.601  1.00  0.00     0.256 C 
HETATM    2  O2  UNL     1      -1.473   8.086  31.037  1.00  0.00    -0.267 OA
HETATM    3  N2  UNL     1      -0.303   9.811  30.164  1.00  0.00    -0.355 N 
ATOM      4  H2  UNL     1      -0.271  10.759  29.788  1.00  0.00     0.162 HD
ENDROOT
BRANCH   1   5
HETATM    5  C11 UNL     1      -2.775   9.964  30.592  1.00  0.00     0.092 A 
HETATM    6  C2  UNL     1      -3.279  10.793  31.551  1.00  0.00     0.090 A 
HETATM    7  C1  UNL     1      -2.552  11.305  32.771  1.00  0.00     0.080 C 
HETATM    8  O1  UNL     1      -4.482  11.038  31.192  1.00  0.00    -0.241 OA
HETATM    9  N1  UNL     1      -4.832  10.438  30.070  1.00  0.00    -0.260 N 
HETATM   10  C3  UNL     1      -3.717   9.716  29.625  1.00  0.00     0.075 A 
ATOM     11  H1  UNL     1      -5.742  10.491  29.613  1.00  0.00     0.195 HD
BRANCH  10  12
HETATM   12  C4  UNL     1      -3.653   9.158  28.274  1.00  0.00    -0.050 C 
HETATM   13  C5  UNL     1      -2.611   8.126  28.010  1.00  0.00     0.037 C 
HETATM   14  C6  UNL     1      -2.973   7.242  26.890  1.00  0.00     0.009 C 
HETATM   15  C7  UNL     1      -4.145   7.585  26.069  1.00  0.00    -0.018 C 
HETATM   16  C8  UNL     1      -5.270   6.589  26.382  1.00  0.00     0.010 C 
HETATM   17  C9  UNL     1      -4.641   8.966  26.054  1.00  0.00     0.009 C 
HETATM   18  C10 UNL     1      -4.028   9.917  27.095  1.00  0.00     0.037 C 
ENDBRANCH  10  12
ENDBRANCH   1   5
BRANCH   3  19
HETATM   19  C13 UNL     1       0.933   8.986  30.253  1.00  0.00     0.155 C 
BRANCH  19  20
HETATM   20  C14 UNL     1       1.800   9.427  31.357  1.00  0.00     0.201 C 
BRANCH  20  21
HETATM   21  N3  UNL     1       1.305   8.758  32.575  1.00  0.00    -0.073 N 
ATOM     22  H33 UNL     1       2.034   8.260  33.086  1.00  0.00     0.274 HD
ATOM     23  H32 UNL     1       1.049   9.409  33.318  1.00  0.00     0.274 HD
ATOM     24  H31 UNL     1       0.534   8.156  32.283  1.00  0.00     0.274 HD
ENDBRANCH  20  21
BRANCH  20  25
HETATM   25  C15 UNL     1       1.660  10.937  31.637  1.00  0.00     0.039 C 
BRANCH  25  26
HETATM   26  C16 UNL     1       2.962  11.563  31.024  1.00  0.00    -0.013 C 
HETATM   27  C17 UNL     1       2.560  12.487  29.956  1.00  0.00     0.005 C 
HETATM   28  C18 UNL     1       3.314  13.752  29.815  1.00  0.00     0.000 C 
HETATM   29  C19 UNL     1       4.403  13.954  30.842  1.00  0.00     0.000 C 
HETATM   30  C20 UNL     1       3.897  13.541  32.209  1.00  0.00     0.000 C 
HETATM   31  C21 UNL     1       3.804  12.017  32.133  1.00  0.00     0.005 C 
ENDBRANCH  25  26
ENDBRANCH  20  25
ENDBRANCH  19  20
ENDBRANCH   3  19
TORSDOF 7
ENDMDL
MODEL 5
REMARK VINA RESULT: -8.513370100      0.818      1.280
REMARK  7 active torsions:
REMARK  status: ('A' for Active; 'I' for Inactive)
REMARK    1  A    between atoms: C3_6  and  C4_7 
REMARK    2  A    between atoms: C11_14  and  C12_15 
REMARK       I    between atoms: C12_15  and  N2_17 
REMARK    3  A    between atoms: N2_17  and  C13_19 
REMARK    4  A    between atoms: C13_19  and  C14_20 
REMARK    5  A    between atoms: C14_20  and  N3_21 
REMARK    6  A    between atoms: C14_20  and  C15_25 
REMARK    7  A    between atoms: C15_25  and  C16_26 
ROOT
HETATM    1  C12 UNL     1       1.159  11.296  30.522  1.00  0.00     0.256 C 
HETATM    2  O2  UNL     1       0.633  12.377  30.893  1.00  0.00    -0.267 OA
HETATM    3  N2  UNL     1       2.208  11.372  29.621  1.00  0.00    -0.355 N 
ATOM      4  H2  UNL     1       2.679  10.527  29.298  1.00  0.00     0.162 HD
ENDROOT
BRANCH   1   5
HETATM    5  C11 UNL     1       0.625  10.056  31.062  1.00  0.00     0.092 A 
HETATM    6  C2  UNL     1       1.186   9.247  32.007  1.00  0.00     0.090 A 
HETATM    7  C1  UNL     1       2.417   9.543  32.828  1.00  0.00     0.080 C 
HETATM    8  O1  UNL     1       0.448   8.202  32.043  1.00  0.00    -0.241 OA
HETATM    9  N1  UNL     1      -0.563   8.239  31.197  1.00  0.00    -0.260 N 
HETATM   10  C3  UNL     1      -0.493   9.466  30.524  1.00  0.00     0.075 A 
ATOM     11  H1  UNL     1      -1.264   7.512  31.058  1.00  0.00     0.195 HD
BRANCH  10  12
HETATM   12  C4  UNL     1      -1.606   9.965  29.718  1.00  0.00    -0.050 C 
HETATM   13  C5  UNL     1      -1.268  10.709  28.472  1.00  0.00     0.037 C 
HETATM   14  C6  UNL     1      -2.353  10.655  27.478  1.00  0.00     0.009 C 
HETATM   15  C7  UNL     1      -3.652  10.093  27.880  1.00  0.00    -0.018 C 
HETATM   16  C8  UNL     1      -3.825   8.727  27.200  1.00  0.00     0.010 C 
HETATM   17  C9  UNL     1      -4.007  10.031  29.302  1.00  0.00     0.009 C 
HETATM   18  C10 UNL     1      -2.879  10.354  30.296  1.00  0.00     0.037 C 
ENDBRANCH  10  12
ENDBRANCH   1   5
BRANCH   3  19
HETATM   19  C13 UNL     1       2.635  12.713  29.134  1.00  0.00     0.155 C 
BRANCH  19  20
HETATM   20  C14 UNL     1       3.537  13.374  30.091  1.00  0.00     0.201 C 
BRANCH  20  21
HETATM   21  N3  UNL     1       3.806  14.722  29.555  1.00  0.00    -0.073 N 
ATOM     22  H33 UNL     1       4.545  14.737  28.853  1.00  0.00     0.274 HD
ATOM     23  H32 UNL     1       3.056  15.076  28.959  1.00  0.00     0.274 HD
ATOM     24  H31 UNL     1       4.000  15.321  30.358  1.00  0.00     0.274 HD
ENDBRANCH  20  21
BRANCH  20  25
HETATM   25  C15 UNL     1       4.913  12.683  30.165  1.00  0.00     0.039 C 
BRANCH  25  26
HETATM   26  C16 UNL     1       5.274  12.708  31.692  1.00  0.00    -0.013 C 
HETATM   27  C17 UNL     1       6.421  13.605  31.872  1.00  0.00     0.005 C 
HETATM   28  C18 UNL     1       6.441  14.471  33.071  1.00  0.00     0.000 C 
HETATM   29  C19 UNL     1       5.226  14.346  33.959  1.00  0.00     0.000 C 
HETATM   30  C20 UNL     1       3.976  14.291  33.107  1.00  0.00     0.000 C 
HETATM   31  C21 UNL     1       4.032  12.916  32.440  1.00  0.00     0.005 C 
ENDBRANCH  25  26
ENDBRANCH  20  25
ENDBRANCH  19  20
ENDBRANCH   3  19
TORSDOF 7
ENDMDL
