MODEL 1
REMARK VINA RESULT: -5.616592261      0.000      0.000
REMARK  2 active torsions:
REMARK  status: ('A' for Active; 'I' for Inactive)
REMARK    1  A    between atoms: C2_2  and  C3_3 
REMARK    2  A    between atoms: C4_4  and  C5_5 
REMARK       I    between atoms: C5_5  and  N1_7 
REMARK       I    between atoms: C6_9  and  N3_11 
ROOT
HETATM    1  C5  UNL     1     -20.870   3.620   0.747  1.00  0.00     0.247 C 
HETATM    2  O1  UNL     1     -19.899   4.382   0.829  1.00  0.00    -0.268 OA
HETATM    3  N1  UNL     1     -20.609   2.332   0.167  1.00  0.00    -0.298 N 
ATOM      4  H1  UNL     1     -20.198   2.292  -0.766  1.00  0.00     0.171 HD
HETATM    5  C6  UNL     1     -20.868   1.238   0.763  1.00  0.00     0.192 C 
HETATM    6  N2  UNL     1     -21.439   1.260   2.058  1.00  0.00    -0.063 NA
HETATM    7  N3  UNL     1     -20.573   0.013   0.106  1.00  0.00    -0.364 N 
HETATM    8  C7  UNL     1     -21.215  -1.217   0.567  1.00  0.00     0.151 C 
HETATM    9  C8  UNL     1     -19.644  -0.025  -1.014  1.00  0.00     0.151 C 
ENDROOT
BRANCH   1  10
HETATM   10  C4  UNL     1     -22.209   3.888   1.165  1.00  0.00     0.070 C 
HETATM   11  C3  UNL     1     -23.003   4.782   0.705  1.00  0.00    -0.022 C 
BRANCH  11  12
HETATM   12  C2  UNL     1     -22.712   5.734  -0.354  1.00  0.00     0.023 C 
HETATM   13  C1  UNL     1     -22.197   5.013  -1.622  1.00  0.00     0.009 C 
ENDBRANCH  11  12
ENDBRANCH   1  10
TORSDOF 2
ENDMDL
MODEL 2
REMARK VINA RESULT: -5.515294435      2.183      3.459
REMARK  2 active torsions:
REMARK  status: ('A' for Active; 'I' for Inactive)
REMARK    1  A    between atoms: C2_2  and  C3_3 
REMARK    2  A    between atoms: C4_4  and  C5_5 
REMARK       I    between atoms: C5_5  and  N1_7 
REMARK       I    between atoms: C6_9  and  N3_11 
ROOT
HETATM    1  C5  UNL     1     -22.505   3.733   0.966  1.00  0.00     0.247 C 
HETATM    2  O1  UNL     1     -23.495   4.448   0.766  1.00  0.00    -0.268 OA
HETATM    3  N1  UNL     1     -22.212   2.766  -0.056  1.00  0.00    -0.298 N 
ATOM      4  H1  UNL     1     -22.937   2.099  -0.316  1.00  0.00     0.171 HD
HETATM    5  C6  UNL     1     -21.089   2.706  -0.651  1.00  0.00     0.192 C 
HETATM    6  N2  UNL     1     -20.062   3.619  -0.311  1.00  0.00    -0.063 NA
HETATM    7  N3  UNL     1     -20.896   1.714  -1.650  1.00  0.00    -0.364 N 
HETATM    8  C7  UNL     1     -19.535   1.356  -2.047  1.00  0.00     0.151 C 
HETATM    9  C8  UNL     1     -22.034   1.056  -2.275  1.00  0.00     0.151 C 
ENDROOT
BRANCH   1  10
HETATM   10  C4  UNL     1     -21.634   3.770   2.097  1.00  0.00     0.070 C 
HETATM   11  C3  UNL     1     -21.461   2.853   2.975  1.00  0.00    -0.022 C 
BRANCH  11  12
HETATM   12  C2  UNL     1     -22.122   1.558   3.015  1.00  0.00     0.023 C 
HETATM   13  C1  UNL     1     -21.347   0.514   2.179  1.00  0.00     0.009 C 
ENDBRANCH  11  12
ENDBRANCH   1  10
TORSDOF 2
ENDMDL
MODEL 3
REMARK VINA RESULT: -5.476610956      2.366      5.036
REMARK  2 active torsions:
REMARK  status: ('A' for Active; 'I' for Inactive)
REMARK    1  A    between atoms: C2_2  and  C3_3 
REMARK    2  A    between atoms: C4_4  and  C5_5 
REMARK       I    between atoms: C5_5  and  N1_7 
REMARK       I    between atoms: C6_9  and  N3_11 
ROOT
HETATM    1  C5  UNL     1     -21.723   1.165  -0.854  1.00  0.00     0.247 C 
HETATM    2  O1  UNL     1     -22.246   0.450  -1.718  1.00  0.00    -0.268 OA
HETATM    3  N1  UNL     1     -21.320   2.475  -1.283  1.00  0.00    -0.298 N 
ATOM      4  H1  UNL     1     -20.680   2.554  -2.073  1.00  0.00     0.171 HD
HETATM    5  C6  UNL     1     -21.725   3.543  -0.721  1.00  0.00     0.192 C 
HETATM    6  N2  UNL     1     -22.613   3.467   0.379  1.00  0.00    -0.063 NA
HETATM    7  N3  UNL     1     -21.270   4.794  -1.219  1.00  0.00    -0.364 N 
HETATM    8  C7  UNL     1     -21.377   5.981  -0.372  1.00  0.00     0.151 C 
HETATM    9  C8  UNL     1     -20.702   4.900  -2.555  1.00  0.00     0.151 C 
ENDROOT
BRANCH   1  10
HETATM   10  C4  UNL     1     -21.481   0.822   0.511  1.00  0.00     0.070 C 
HETATM   11  C3  UNL     1     -20.981  -0.268   0.963  1.00  0.00    -0.022 C 
BRANCH  11  12
HETATM   12  C2  UNL     1     -20.548  -1.411   0.176  1.00  0.00     0.023 C 
HETATM   13  C1  UNL     1     -19.312  -1.056  -0.685  1.00  0.00     0.009 C 
ENDBRANCH  11  12
ENDBRANCH   1  10
TORSDOF 2
ENDMDL
MODEL 4
REMARK VINA RESULT: -5.292037067      2.136      5.028
REMARK  2 active torsions:
REMARK  status: ('A' for Active; 'I' for Inactive)
REMARK    1  A    between atoms: C2_2  and  C3_3 
REMARK    2  A    between atoms: C4_4  and  C5_5 
REMARK       I    between atoms: C5_5  and  N1_7 
REMARK       I    between atoms: C6_9  and  N3_11 
ROOT
HETATM    1  C5  UNL     1     -21.415   1.069  -1.555  1.00  0.00     0.247 C 
HETATM    2  O1  UNL     1     -22.446   0.483  -1.906  1.00  0.00    -0.268 OA
HETATM    3  N1  UNL     1     -21.522   2.494  -1.408  1.00  0.00    -0.298 N 
ATOM      4  H1  UNL     1     -21.845   3.042  -2.205  1.00  0.00     0.171 HD
HETATM    5  C6  UNL     1     -21.232   3.104  -0.330  1.00  0.00     0.192 C 
HETATM    6  N2  UNL     1     -20.780   2.371   0.794  1.00  0.00    -0.063 NA
HETATM    7  N3  UNL     1     -21.372   4.517  -0.283  1.00  0.00    -0.364 N 
HETATM    8  C7  UNL     1     -20.678   5.269   0.762  1.00  0.00     0.151 C 
HETATM    9  C8  UNL     1     -22.193   5.216  -1.261  1.00  0.00     0.151 C 
ENDROOT
BRANCH   1  10
HETATM   10  C4  UNL     1     -20.144   0.480  -1.283  1.00  0.00     0.070 C 
HETATM   11  C3  UNL     1     -19.893  -0.502  -0.499  1.00  0.00    -0.022 C 
BRANCH  11  12
HETATM   12  C2  UNL     1     -20.860  -1.241   0.297  1.00  0.00     0.023 C 
HETATM   13  C1  UNL     1     -21.350  -0.398   1.498  1.00  0.00     0.009 C 
ENDBRANCH  11  12
ENDBRANCH   1  10
TORSDOF 2
ENDMDL
MODEL 5
REMARK VINA RESULT: -5.212914980      2.052      4.777
REMARK  2 active torsions:
REMARK  status: ('A' for Active; 'I' for Inactive)
REMARK    1  A    between atoms: C2_2  and  C3_3 
REMARK    2  A    between atoms: C4_4  and  C5_5 
REMARK       I    between atoms: C5_5  and  N1_7 
REMARK       I    between atoms: C6_9  and  N3_11 
ROOT
HETATM    1  C5  UNL     1     -19.991   1.420  -1.477  1.00  0.00     0.247 C 
HETATM    2  O1  UNL     1     -18.933   1.537  -2.108  1.00  0.00    -0.268 OA
HETATM    3  N1  UNL     1     -20.293   2.481  -0.557  1.00  0.00    -0.298 N 
ATOM      4  H1  UNL     1     -19.611   2.709   0.165  1.00  0.00     0.171 HD
HETATM    5  C6  UNL     1     -21.375   3.151  -0.603  1.00  0.00     0.192 C 
HETATM    6  N2  UNL     1     -22.342   2.858  -1.595  1.00  0.00    -0.063 NA
HETATM    7  N3  UNL     1     -21.582   4.183   0.350  1.00  0.00    -0.364 N 
HETATM    8  C7  UNL     1     -22.939   4.678   0.583  1.00  0.00     0.151 C 
HETATM    9  C8  UNL     1     -20.464   4.747   1.091  1.00  0.00     0.151 C 
ENDROOT
BRANCH   1  10
HETATM   10  C4  UNL     1     -20.930   0.348  -1.567  1.00  0.00     0.070 C 
HETATM   11  C3  UNL     1     -21.187  -0.538  -0.678  1.00  0.00    -0.022 C 
BRANCH  11  12
HETATM   12  C2  UNL     1     -20.570  -0.650   0.634  1.00  0.00     0.023 C 
HETATM   13  C1  UNL     1     -21.458  -0.004   1.722  1.00  0.00     0.009 C 
ENDBRANCH  11  12
ENDBRANCH   1  10
TORSDOF 2
ENDMDL
