MODEL 1
REMARK VINA RESULT: -7.041828175      0.000      0.000
REMARK  1 active torsions:
REMARK  status: ('A' for Active; 'I' for Inactive)
REMARK    1  A    between atoms: C4_4  and  C5_5 
REMARK       I    between atoms: N2_7  and  C6_9 
REMARK       I    between atoms: C6_9  and  N3_11 
ROOT
HETATM    1  C1  UNL     1     -21.855   0.544   2.723  1.00  0.00     0.102 C 
HETATM    2  C2  UNL     1     -21.352  -0.041   1.766  1.00  0.00    -0.160 C 
HETATM    3  C3  UNL     1     -20.759  -0.746   0.679  1.00  0.00     0.053 C 
HETATM    4  C4  UNL     1     -20.754  -0.301  -0.542  1.00  0.00     0.053 C 
ENDROOT
BRANCH   4   5
HETATM    5  C5  UNL     1     -21.333   0.945  -0.989  1.00  0.00     0.120 C 
HETATM    6  N1  UNL     1     -22.353   1.047  -1.984  1.00  0.00    -0.083 NA
HETATM    7  N2  UNL     1     -20.894   2.046  -0.445  1.00  0.00    -0.297 N 
HETATM    8  C6  UNL     1     -21.438   3.292  -0.855  1.00  0.00     0.322 C 
ATOM      9  H2  UNL     1     -20.167   2.012   0.269  1.00  0.00     0.171 HD
HETATM   10  O1  UNL     1     -21.740   3.455  -2.072  1.00  0.00    -0.247 OA
HETATM   11  N3  UNL     1     -21.655   4.358   0.039  1.00  0.00    -0.343 N 
HETATM   12  C7  UNL     1     -22.208   5.596  -0.437  1.00  0.00     0.154 C 
HETATM   13  C8  UNL     1     -21.316   4.191   1.430  1.00  0.00     0.154 C 
ENDBRANCH   4   5
TORSDOF 1
ENDMDL
MODEL 2
REMARK VINA RESULT: -6.951535353      1.316      1.320
REMARK  1 active torsions:
REMARK  status: ('A' for Active; 'I' for Inactive)
REMARK    1  A    between atoms: C4_4  and  C5_5 
REMARK       I    between atoms: N2_7  and  C6_9 
REMARK       I    between atoms: C6_9  and  N3_11 
ROOT
HETATM    1  C1  UNL     1     -21.861   1.006   2.839  1.00  0.00     0.102 C 
HETATM    2  C2  UNL     1     -21.473   0.279   1.927  1.00  0.00    -0.160 C 
HETATM    3  C3  UNL     1     -21.031  -0.593   0.890  1.00  0.00     0.053 C 
HETATM    4  C4  UNL     1     -20.546  -0.169  -0.239  1.00  0.00     0.053 C 
ENDROOT
BRANCH   4   5
HETATM    5  C5  UNL     1     -20.379   1.214  -0.621  1.00  0.00     0.120 C 
HETATM    6  N1  UNL     1     -19.687   1.647  -1.792  1.00  0.00    -0.083 NA
HETATM    7  N2  UNL     1     -20.899   2.124   0.156  1.00  0.00    -0.297 N 
HETATM    8  C6  UNL     1     -20.759   3.495  -0.184  1.00  0.00     0.322 C 
ATOM      9  H2  UNL     1     -21.401   1.852   1.001  1.00  0.00     0.171 HD
HETATM   10  O1  UNL     1     -19.678   3.887  -0.711  1.00  0.00    -0.247 OA
HETATM   11  N3  UNL     1     -21.777   4.442   0.042  1.00  0.00    -0.343 N 
HETATM   12  C7  UNL     1     -21.575   5.817  -0.324  1.00  0.00     0.154 C 
HETATM   13  C8  UNL     1     -23.016   4.015   0.642  1.00  0.00     0.154 C 
ENDBRANCH   4   5
TORSDOF 1
ENDMDL
MODEL 3
REMARK VINA RESULT: -6.361092317      1.609      3.091
REMARK  1 active torsions:
REMARK  status: ('A' for Active; 'I' for Inactive)
REMARK    1  A    between atoms: C4_4  and  C5_5 
REMARK       I    between atoms: N2_7  and  C6_9 
REMARK       I    between atoms: C6_9  and  N3_11 
ROOT
HETATM    1  C1  UNL     1     -20.985  -0.498   0.791  1.00  0.00     0.102 C 
HETATM    2  C2  UNL     1     -21.376   0.149   1.759  1.00  0.00    -0.160 C 
HETATM    3  C3  UNL     1     -21.837   0.867   2.901  1.00  0.00     0.053 C 
HETATM    4  C4  UNL     1     -21.878   2.165   2.958  1.00  0.00     0.053 C 
ENDROOT
BRANCH   4   5
HETATM    5  C5  UNL     1     -21.474   3.070   1.906  1.00  0.00     0.120 C 
HETATM    6  N1  UNL     1     -20.451   4.057   2.043  1.00  0.00    -0.083 NA
HETATM    7  N2  UNL     1     -22.085   2.975   0.757  1.00  0.00    -0.297 N 
HETATM    8  C6  UNL     1     -21.717   3.844  -0.304  1.00  0.00     0.322 C 
ATOM      9  H2  UNL     1     -22.820   2.281   0.622  1.00  0.00     0.171 HD
HETATM   10  O1  UNL     1     -21.406   5.040  -0.033  1.00  0.00    -0.247 OA
HETATM   11  N3  UNL     1     -21.685   3.430  -1.650  1.00  0.00    -0.343 N 
HETATM   12  C7  UNL     1     -21.305   4.358  -2.679  1.00  0.00     0.154 C 
HETATM   13  C8  UNL     1     -22.037   2.072  -1.977  1.00  0.00     0.154 C 
ENDBRANCH   4   5
TORSDOF 1
ENDMDL
MODEL 4
REMARK VINA RESULT: -6.129034792      1.545      1.913
REMARK  1 active torsions:
REMARK  status: ('A' for Active; 'I' for Inactive)
REMARK    1  A    between atoms: C4_4  and  C5_5 
REMARK       I    between atoms: N2_7  and  C6_9 
REMARK       I    between atoms: C6_9  and  N3_11 
ROOT
HETATM    1  C1  UNL     1     -21.893   2.936   2.694  1.00  0.00     0.102 C 
HETATM    2  C2  UNL     1     -21.711   1.735   2.507  1.00  0.00    -0.160 C 
HETATM    3  C3  UNL     1     -21.506   0.336   2.325  1.00  0.00     0.053 C 
HETATM    4  C4  UNL     1     -21.171  -0.194   1.186  1.00  0.00     0.053 C 
ENDROOT
BRANCH   4   5
HETATM    5  C5  UNL     1     -20.956   0.525  -0.049  1.00  0.00     0.120 C 
HETATM    6  N1  UNL     1     -21.160  -0.031  -1.349  1.00  0.00    -0.083 NA
HETATM    7  N2  UNL     1     -20.551   1.762   0.032  1.00  0.00    -0.297 N 
HETATM    8  C6  UNL     1     -20.330   2.504  -1.158  1.00  0.00     0.322 C 
ATOM      9  H2  UNL     1     -20.395   2.193   0.944  1.00  0.00     0.171 HD
HETATM   10  O1  UNL     1     -19.841   1.913  -2.163  1.00  0.00    -0.247 OA
HETATM   11  N3  UNL     1     -20.632   3.875  -1.266  1.00  0.00    -0.343 N 
HETATM   12  C7  UNL     1     -20.383   4.572  -2.498  1.00  0.00     0.154 C 
HETATM   13  C8  UNL     1     -21.188   4.565  -0.130  1.00  0.00     0.154 C 
ENDBRANCH   4   5
TORSDOF 1
ENDMDL
MODEL 5
REMARK VINA RESULT: -6.023734224      1.762      2.850
REMARK  1 active torsions:
REMARK  status: ('A' for Active; 'I' for Inactive)
REMARK    1  A    between atoms: C4_4  and  C5_5 
REMARK       I    between atoms: N2_7  and  C6_9 
REMARK       I    between atoms: C6_9  and  N3_11 
ROOT
HETATM    1  C1  UNL     1     -19.729   0.532  -1.339  1.00  0.00     0.102 C 
HETATM    2  C2  UNL     1     -20.290   0.026  -0.370  1.00  0.00    -0.160 C 
HETATM    3  C3  UNL     1     -20.931  -0.593   0.742  1.00  0.00     0.053 C 
HETATM    4  C4  UNL     1     -21.536   0.074   1.680  1.00  0.00     0.053 C 
ENDROOT
BRANCH   4   5
HETATM    5  C5  UNL     1     -21.654   1.513   1.751  1.00  0.00     0.120 C 
HETATM    6  N1  UNL     1     -21.423   2.282   2.931  1.00  0.00    -0.083 NA
HETATM    7  N2  UNL     1     -21.993   2.147   0.662  1.00  0.00    -0.297 N 
HETATM    8  C6  UNL     1     -22.119   3.561   0.688  1.00  0.00     0.322 C 
ATOM      9  H2  UNL     1     -22.166   1.631  -0.201  1.00  0.00     0.171 HD
HETATM   10  O1  UNL     1     -22.594   4.112   1.722  1.00  0.00    -0.247 OA
HETATM   11  N3  UNL     1     -21.737   4.378  -0.393  1.00  0.00    -0.343 N 
HETATM   12  C7  UNL     1     -21.890   5.804  -0.307  1.00  0.00     0.154 C 
HETATM   13  C8  UNL     1     -21.194   3.767  -1.580  1.00  0.00     0.154 C 
ENDBRANCH   4   5
TORSDOF 1
ENDMDL
