MODEL 1
REMARK VINA RESULT: -6.282263484      0.000      0.000
REMARK  2 active torsions:
REMARK  status: ('A' for Active; 'I' for Inactive)
REMARK    1  A    between atoms: C3_3  and  N1_4 
REMARK       I    between atoms: N1_4  and  C4_6 
REMARK       I    between atoms: C4_6  and  N3_12 
REMARK    2  A    between atoms: N2_7  and  C5_9 
ROOT
HETATM    1  C1  UNL     1     -21.725   1.432   3.382  1.00  0.00     0.014 C 
HETATM    2  C2  UNL     1     -21.963   2.239   2.517  1.00  0.00    -0.097 C 
HETATM    3  C3  UNL     1     -22.238   3.238   1.461  1.00  0.00     0.231 C 
ENDROOT
BRANCH   3   4
HETATM    4  N1  UNL     1     -22.175   2.663   0.149  1.00  0.00    -0.215 N 
HETATM    5  C4  UNL     1     -21.241   3.102  -0.849  1.00  0.00     0.683 C 
HETATM    6  N2  UNL     1     -20.387   2.253  -1.305  1.00  0.00    -0.149 N 
HETATM    7  N3  UNL     1     -21.269   4.447  -1.313  1.00  0.00    -0.226 N 
ATOM      8  H2  UNL     1     -19.711   2.537  -2.014  1.00  0.00     0.195 HD
HETATM    9  C8  UNL     1     -20.949   5.597  -0.499  1.00  0.00     0.168 C 
HETATM   10  C9  UNL     1     -21.645   4.672  -2.692  1.00  0.00     0.168 C 
ATOM     11  H1  UNL     1     -22.821   1.909  -0.085  1.00  0.00     0.178 HD
BRANCH   6  12
HETATM   12  C5  UNL     1     -20.390   0.941  -0.826  1.00  0.00     0.025 C 
HETATM   13  C6  UNL     1     -20.392  -0.189  -0.390  1.00  0.00    -0.087 C 
HETATM   14  C7  UNL     1     -20.407  -1.548   0.158  1.00  0.00     0.113 C 
ENDBRANCH   6  12
ENDBRANCH   3   4
TORSDOF 2
ENDMDL
MODEL 2
REMARK VINA RESULT: -4.974593967      0.799      3.294
REMARK  2 active torsions:
REMARK  status: ('A' for Active; 'I' for Inactive)
REMARK    1  A    between atoms: C3_3  and  N1_4 
REMARK       I    between atoms: N1_4  and  C4_6 
REMARK       I    between atoms: C4_6  and  N3_12 
REMARK    2  A    between atoms: N2_7  and  C5_9 
ROOT
HETATM    1  C1  UNL     1     -20.505  -0.684  -0.219  1.00  0.00     0.014 C 
HETATM    2  C2  UNL     1     -20.340   0.429  -0.653  1.00  0.00    -0.097 C 
HETATM    3  C3  UNL     1     -20.155   1.792  -1.198  1.00  0.00     0.231 C 
ENDROOT
BRANCH   3   4
HETATM    4  N1  UNL     1     -20.213   2.792  -0.171  1.00  0.00    -0.215 N 
HETATM    5  C4  UNL     1     -21.206   3.827  -0.149  1.00  0.00     0.683 C 
HETATM    6  N2  UNL     1     -22.007   3.887   0.859  1.00  0.00    -0.149 N 
HETATM    7  N3  UNL     1     -21.294   4.758  -1.221  1.00  0.00    -0.226 N 
ATOM      8  H2  UNL     1     -22.724   4.612   0.901  1.00  0.00     0.195 HD
HETATM    9  C8  UNL     1     -21.676   4.413  -2.571  1.00  0.00     0.168 C 
HETATM   10  C9  UNL     1     -20.978   6.140  -0.936  1.00  0.00     0.168 C 
ATOM     11  H1  UNL     1     -19.519   2.765   0.576  1.00  0.00     0.178 HD
BRANCH   6  12
HETATM   12  C5  UNL     1     -21.891   2.957   1.893  1.00  0.00     0.025 C 
HETATM   13  C6  UNL     1     -21.801   2.162   2.803  1.00  0.00    -0.087 C 
HETATM   14  C7  UNL     1     -21.715   1.209   3.913  1.00  0.00     0.113 C 
ENDBRANCH   6  12
ENDBRANCH   3   4
TORSDOF 2
ENDMDL
MODEL 3
REMARK VINA RESULT: -4.455141940      1.618      4.213
REMARK  2 active torsions:
REMARK  status: ('A' for Active; 'I' for Inactive)
REMARK    1  A    between atoms: C3_3  and  N1_4 
REMARK       I    between atoms: N1_4  and  C4_6 
REMARK       I    between atoms: C4_6  and  N3_12 
REMARK    2  A    between atoms: N2_7  and  C5_9 
ROOT
HETATM    1  C1  UNL     1     -21.448   2.088   4.753  1.00  0.00     0.014 C 
HETATM    2  C2  UNL     1     -21.550   1.539   3.683  1.00  0.00    -0.097 C 
HETATM    3  C3  UNL     1     -21.696   0.870   2.372  1.00  0.00     0.231 C 
ENDROOT
BRANCH   3   4
HETATM    4  N1  UNL     1     -20.982   1.559   1.337  1.00  0.00    -0.215 N 
HETATM    5  C4  UNL     1     -20.940   1.095  -0.021  1.00  0.00     0.683 C 
HETATM    6  N2  UNL     1     -21.416   1.858  -0.944  1.00  0.00    -0.149 N 
HETATM    7  N3  UNL     1     -20.385  -0.179  -0.326  1.00  0.00    -0.226 N 
ATOM      8  H2  UNL     1     -21.401   1.554  -1.918  1.00  0.00     0.195 HD
HETATM    9  C8  UNL     1     -20.957  -1.438   0.093  1.00  0.00     0.168 C 
HETATM   10  C9  UNL     1     -19.167  -0.210  -1.106  1.00  0.00     0.168 C 
ATOM     11  H1  UNL     1     -20.482   2.415   1.575  1.00  0.00     0.178 HD
BRANCH   6  12
HETATM   12  C5  UNL     1     -21.952   3.102  -0.607  1.00  0.00     0.025 C 
HETATM   13  C6  UNL     1     -22.423   4.174  -0.295  1.00  0.00    -0.087 C 
HETATM   14  C7  UNL     1     -22.987   5.466   0.106  1.00  0.00     0.113 C 
ENDBRANCH   6  12
ENDBRANCH   3   4
TORSDOF 2
ENDMDL
MODEL 4
REMARK VINA RESULT: -4.341363972      7.876      8.732
REMARK  2 active torsions:
REMARK  status: ('A' for Active; 'I' for Inactive)
REMARK    1  A    between atoms: C3_3  and  N1_4 
REMARK       I    between atoms: N1_4  and  C4_6 
REMARK       I    between atoms: C4_6  and  N3_12 
REMARK    2  A    between atoms: N2_7  and  C5_9 
ROOT
HETATM    1  C1  UNL     1     -20.606   2.356   7.514  1.00  0.00     0.014 C 
HETATM    2  C2  UNL     1     -19.669   3.116   7.509  1.00  0.00    -0.097 C 
HETATM    3  C3  UNL     1     -18.517   4.044   7.524  1.00  0.00     0.231 C 
ENDROOT
BRANCH   3   4
HETATM    4  N1  UNL     1     -17.424   3.556   6.734  1.00  0.00    -0.215 N 
HETATM    5  C4  UNL     1     -16.056   3.643   7.160  1.00  0.00     0.683 C 
HETATM    6  N2  UNL     1     -15.391   2.551   7.312  1.00  0.00    -0.149 N 
HETATM    7  N3  UNL     1     -15.463   4.913   7.406  1.00  0.00    -0.226 N 
ATOM      8  H2  UNL     1     -14.417   2.582   7.615  1.00  0.00     0.195 HD
HETATM    9  C8  UNL     1     -15.858   5.804   8.471  1.00  0.00     0.168 C 
HETATM   10  C9  UNL     1     -14.395   5.334   6.526  1.00  0.00     0.168 C 
ATOM     11  H1  UNL     1     -17.628   3.127   5.832  1.00  0.00     0.178 HD
BRANCH   6  12
HETATM   12  C5  UNL     1     -16.006   1.323   7.061  1.00  0.00     0.025 C 
HETATM   13  C6  UNL     1     -16.543   0.255   6.865  1.00  0.00    -0.087 C 
HETATM   14  C7  UNL     1     -17.205  -1.035   6.649  1.00  0.00     0.113 C 
ENDBRANCH   6  12
ENDBRANCH   3   4
TORSDOF 2
ENDMDL
MODEL 5
REMARK VINA RESULT: -4.239325844      1.693      4.253
REMARK  2 active torsions:
REMARK  status: ('A' for Active; 'I' for Inactive)
REMARK    1  A    between atoms: C3_3  and  N1_4 
REMARK       I    between atoms: N1_4  and  C4_6 
REMARK       I    between atoms: C4_6  and  N3_12 
REMARK    2  A    between atoms: N2_7  and  C5_9 
ROOT
HETATM    1  C1  UNL     1     -23.021   4.869   0.796  1.00  0.00     0.014 C 
HETATM    2  C2  UNL     1     -22.236   4.073   1.250  1.00  0.00    -0.097 C 
HETATM    3  C3  UNL     1     -21.291   3.085   1.814  1.00  0.00     0.231 C 
ENDROOT
BRANCH   3   4
HETATM    4  N1  UNL     1     -20.517   2.441   0.793  1.00  0.00    -0.215 N 
HETATM    5  C4  UNL     1     -20.965   1.265   0.103  1.00  0.00     0.683 C 
HETATM    6  N2  UNL     1     -21.123   1.327  -1.175  1.00  0.00    -0.149 N 
HETATM    7  N3  UNL     1     -21.225   0.067   0.824  1.00  0.00    -0.226 N 
ATOM      8  H2  UNL     1     -21.442   0.507  -1.692  1.00  0.00     0.195 HD
HETATM    9  C8  UNL     1     -22.288  -0.088   1.790  1.00  0.00     0.168 C 
HETATM   10  C9  UNL     1     -20.365  -1.069   0.571  1.00  0.00     0.168 C 
ATOM     11  H1  UNL     1     -19.609   2.835   0.547  1.00  0.00     0.178 HD
BRANCH   6  12
HETATM   12  C5  UNL     1     -20.857   2.520  -1.849  1.00  0.00     0.025 C 
HETATM   13  C6  UNL     1     -20.641   3.565  -2.422  1.00  0.00    -0.087 C 
HETATM   14  C7  UNL     1     -20.387   4.842  -3.095  1.00  0.00     0.113 C 
ENDBRANCH   6  12
ENDBRANCH   3   4
TORSDOF 2
ENDMDL
