MODEL 1
REMARK VINA RESULT: -4.997741543      0.000      0.000
REMARK  5 active torsions:
REMARK  status: ('A' for Active; 'I' for Inactive)
REMARK    1  A    between atoms: C3_3  and  C4_4 
REMARK    2  A    between atoms: C5_5  and  C6_6 
REMARK    3  A    between atoms: C6_6  and  C7_7 
REMARK    4  A    between atoms: C7_7  and  O1_8 
REMARK    5  A    between atoms: N1_10  and  O2_12 
ROOT
HETATM    1  C1  UNL     1     -20.941   2.022   6.915  1.00  0.00     0.113 C 
HETATM    2  C2  UNL     1     -21.157   2.119   5.470  1.00  0.00    -0.097 C 
HETATM    3  C3  UNL     1     -21.325   2.216   4.277  1.00  0.00    -0.015 C 
ENDROOT
BRANCH   3   4
HETATM    4  C4  UNL     1     -21.520   2.350   2.877  1.00  0.00    -0.015 C 
HETATM    5  C5  UNL     1     -21.676   2.479   1.687  1.00  0.00    -0.084 C 
BRANCH   5   6
HETATM    6  C6  UNL     1     -21.861   2.663   0.228  1.00  0.00     0.180 C 
BRANCH   6   7
HETATM    7  C7  UNL     1     -21.141   3.887  -0.143  1.00  0.00     0.148 C 
HETATM    8  N1  UNL     1     -21.755   5.006  -0.150  1.00  0.00    -0.246 N 
HETATM    9  C8  UNL     1     -23.162   5.113   0.203  1.00  0.00     0.187 C 
BRANCH   7  10
HETATM   10  O1  UNL     1     -19.812   3.826  -0.484  1.00  0.00    -0.347 OA
ATOM     11  H1  UNL     1     -19.193   4.432  -0.094  1.00  0.00     0.219 HD
ENDBRANCH   7  10
BRANCH   8  12
HETATM   12  O2  UNL     1     -21.076   6.136  -0.497  1.00  0.00    -0.286 OA
ATOM     13  H2  UNL     1     -20.616   6.625   0.174  1.00  0.00     0.244 HD
ENDBRANCH   8  12
ENDBRANCH   6   7
ENDBRANCH   5   6
ENDBRANCH   3   4
TORSDOF 5
ENDMDL
MODEL 2
REMARK VINA RESULT: -4.906955581      1.363      1.688
REMARK  5 active torsions:
REMARK  status: ('A' for Active; 'I' for Inactive)
REMARK    1  A    between atoms: C3_3  and  C4_4 
REMARK    2  A    between atoms: C5_5  and  C6_6 
REMARK    3  A    between atoms: C6_6  and  C7_7 
REMARK    4  A    between atoms: C7_7  and  O1_8 
REMARK    5  A    between atoms: N1_10  and  O2_12 
ROOT
HETATM    1  C1  UNL     1     -20.920   2.056   7.081  1.00  0.00     0.113 C 
HETATM    2  C2  UNL     1     -21.136   2.109   5.633  1.00  0.00    -0.097 C 
HETATM    3  C3  UNL     1     -21.300   2.166   4.436  1.00  0.00    -0.015 C 
ENDROOT
BRANCH   3   4
HETATM    4  C4  UNL     1     -21.483   2.252   3.031  1.00  0.00    -0.015 C 
HETATM    5  C5  UNL     1     -21.625   2.334   1.836  1.00  0.00    -0.084 C 
BRANCH   5   6
HETATM    6  C6  UNL     1     -21.782   2.457   0.367  1.00  0.00     0.180 C 
BRANCH   6   7
HETATM    7  C7  UNL     1     -22.496   3.715   0.117  1.00  0.00     0.148 C 
HETATM    8  N1  UNL     1     -22.036   4.546  -0.735  1.00  0.00    -0.246 N 
HETATM    9  C8  UNL     1     -20.811   4.289  -1.476  1.00  0.00     0.187 C 
BRANCH   7  10
HETATM   10  O1  UNL     1     -23.656   3.995   0.798  1.00  0.00    -0.347 OA
ATOM     11  H1  UNL     1     -23.664   3.979   1.748  1.00  0.00     0.219 HD
ENDBRANCH   7  10
BRANCH   8  12
HETATM   12  O2  UNL     1     -22.707   5.712  -0.959  1.00  0.00    -0.286 OA
ATOM     13  H2  UNL     1     -23.191   6.112  -0.246  1.00  0.00     0.244 HD
ENDBRANCH   8  12
ENDBRANCH   6   7
ENDBRANCH   5   6
ENDBRANCH   3   4
TORSDOF 5
ENDMDL
MODEL 3
REMARK VINA RESULT: -4.895520266      2.843      3.831
REMARK  5 active torsions:
REMARK  status: ('A' for Active; 'I' for Inactive)
REMARK    1  A    between atoms: C3_3  and  C4_4 
REMARK    2  A    between atoms: C5_5  and  C6_6 
REMARK    3  A    between atoms: C6_6  and  C7_7 
REMARK    4  A    between atoms: C7_7  and  O1_8 
REMARK    5  A    between atoms: N1_10  and  O2_12 
ROOT
HETATM    1  C1  UNL     1     -20.312  -2.105   0.015  1.00  0.00     0.113 C 
HETATM    2  C2  UNL     1     -20.653  -0.719   0.344  1.00  0.00    -0.097 C 
HETATM    3  C3  UNL     1     -20.919   0.431   0.605  1.00  0.00    -0.015 C 
ENDROOT
BRANCH   3   4
HETATM    4  C4  UNL     1     -21.212   1.787   0.908  1.00  0.00    -0.015 C 
HETATM    5  C5  UNL     1     -21.448   2.944   1.154  1.00  0.00    -0.084 C 
BRANCH   5   6
HETATM    6  C6  UNL     1     -21.716   4.373   1.445  1.00  0.00     0.180 C 
BRANCH   6   7
HETATM    7  C7  UNL     1     -22.461   4.911   0.300  1.00  0.00     0.148 C 
HETATM    8  N1  UNL     1     -21.891   5.009  -0.837  1.00  0.00    -0.246 N 
HETATM    9  C8  UNL     1     -20.509   4.601  -1.043  1.00  0.00     0.187 C 
BRANCH   7  10
HETATM   10  O1  UNL     1     -23.767   5.307   0.455  1.00  0.00    -0.347 OA
ATOM     11  H1  UNL     1     -24.226   5.725  -0.264  1.00  0.00     0.219 HD
ENDBRANCH   7  10
BRANCH   8  12
HETATM   12  O2  UNL     1     -22.593   5.510  -1.893  1.00  0.00    -0.286 OA
ATOM     13  H2  UNL     1     -22.491   5.111  -2.749  1.00  0.00     0.244 HD
ENDBRANCH   8  12
ENDBRANCH   6   7
ENDBRANCH   5   6
ENDBRANCH   3   4
TORSDOF 5
ENDMDL
MODEL 4
REMARK VINA RESULT: -4.893052378      3.115      4.173
REMARK  5 active torsions:
REMARK  status: ('A' for Active; 'I' for Inactive)
REMARK    1  A    between atoms: C3_3  and  C4_4 
REMARK    2  A    between atoms: C5_5  and  C6_6 
REMARK    3  A    between atoms: C6_6  and  C7_7 
REMARK    4  A    between atoms: C7_7  and  O1_8 
REMARK    5  A    between atoms: N1_10  and  O2_12 
ROOT
HETATM    1  C1  UNL     1     -20.338  -2.075  -0.022  1.00  0.00     0.113 C 
HETATM    2  C2  UNL     1     -20.363  -0.634  -0.282  1.00  0.00    -0.097 C 
HETATM    3  C3  UNL     1     -20.385   0.559  -0.477  1.00  0.00    -0.015 C 
ENDROOT
BRANCH   3   4
HETATM    4  C4  UNL     1     -20.420   1.962  -0.689  1.00  0.00    -0.015 C 
HETATM    5  C5  UNL     1     -20.457   3.157  -0.853  1.00  0.00    -0.084 C 
BRANCH   5   6
HETATM    6  C6  UNL     1     -20.518   4.627  -1.033  1.00  0.00     0.180 C 
BRANCH   6   7
HETATM    7  C7  UNL     1     -21.921   5.022  -0.859  1.00  0.00     0.148 C 
HETATM    8  N1  UNL     1     -22.478   4.896   0.282  1.00  0.00    -0.246 N 
HETATM    9  C8  UNL     1     -21.761   4.367   1.433  1.00  0.00     0.187 C 
BRANCH   7  10
HETATM   10  O1  UNL     1     -22.631   5.524  -1.923  1.00  0.00    -0.347 OA
ATOM     11  H1  UNL     1     -23.559   5.338  -2.005  1.00  0.00     0.219 HD
ENDBRANCH   7  10
BRANCH   8  12
HETATM   12  O2  UNL     1     -23.782   5.265   0.432  1.00  0.00    -0.286 OA
ATOM     13  H2  UNL     1     -23.988   6.050   0.925  1.00  0.00     0.244 HD
ENDBRANCH   8  12
ENDBRANCH   6   7
ENDBRANCH   5   6
ENDBRANCH   3   4
TORSDOF 5
ENDMDL
MODEL 5
REMARK VINA RESULT: -4.861054085      1.657      2.251
REMARK  5 active torsions:
REMARK  status: ('A' for Active; 'I' for Inactive)
REMARK    1  A    between atoms: C3_3  and  C4_4 
REMARK    2  A    between atoms: C5_5  and  C6_6 
REMARK    3  A    between atoms: C6_6  and  C7_7 
REMARK    4  A    between atoms: C7_7  and  O1_8 
REMARK    5  A    between atoms: N1_10  and  O2_12 
ROOT
HETATM    1  C1  UNL     1     -20.761   2.260   8.045  1.00  0.00     0.113 C 
HETATM    2  C2  UNL     1     -20.981   2.165   6.600  1.00  0.00    -0.097 C 
HETATM    3  C3  UNL     1     -21.168   2.068   5.410  1.00  0.00    -0.015 C 
ENDROOT
BRANCH   3   4
HETATM    4  C4  UNL     1     -21.387   1.934   4.014  1.00  0.00    -0.015 C 
HETATM    5  C5  UNL     1     -21.556   1.825   2.824  1.00  0.00    -0.084 C 
BRANCH   5   6
HETATM    6  C6  UNL     1     -21.742   1.706   1.358  1.00  0.00     0.180 C 
BRANCH   6   7
HETATM    7  C7  UNL     1     -20.998   2.811   0.741  1.00  0.00     0.148 C 
HETATM    8  N1  UNL     1     -20.370   2.619  -0.353  1.00  0.00    -0.246 N 
HETATM    9  C8  UNL     1     -20.365   1.326  -1.020  1.00  0.00     0.187 C 
BRANCH   7  10
HETATM   10  O1  UNL     1     -20.978   4.046   1.342  1.00  0.00    -0.347 OA
ATOM     11  H1  UNL     1     -20.159   4.407   1.659  1.00  0.00     0.219 HD
ENDBRANCH   7  10
BRANCH   8  12
HETATM   12  O2  UNL     1     -19.682   3.652  -0.916  1.00  0.00    -0.286 OA
ATOM     13  H2  UNL     1     -19.051   4.130  -0.391  1.00  0.00     0.244 HD
ENDBRANCH   8  12
ENDBRANCH   6   7
ENDBRANCH   5   6
ENDBRANCH   3   4
TORSDOF 5
ENDMDL
