MODEL 1
REMARK VINA RESULT: -6.473560833      0.000      0.000
REMARK  3 active torsions:
REMARK  status: ('A' for Active; 'I' for Inactive)
REMARK    1  A    between atoms: C3_3  and  C4_4 
REMARK    2  A    between atoms: C4_4  and  N1_5 
REMARK       I    between atoms: N1_5  and  C5_7 
REMARK       I    between atoms: C5_7  and  N2_9 
REMARK    3  A    between atoms: C6_11  and  N3_12 
ROOT
HETATM    1  C1  UNL     1     -20.719  -1.234   0.360  1.00  0.00     0.112 C 
HETATM    2  C2  UNL     1     -21.107  -0.132   1.248  1.00  0.00    -0.109 C 
HETATM    3  C3  UNL     1     -21.414   0.788   1.967  1.00  0.00    -0.087 C 
ENDROOT
BRANCH   3   4
HETATM    4  C4  UNL     1     -21.773   1.930   2.838  1.00  0.00     0.218 C 
BRANCH   4   5
HETATM    5  N1  UNL     1     -22.460   2.919   2.049  1.00  0.00    -0.332 N 
HETATM    6  C5  UNL     1     -21.721   3.935   1.383  1.00  0.00     0.321 C 
HETATM    7  O1  UNL     1     -20.484   3.996   1.464  1.00  0.00    -0.247 OA
HETATM    8  N2  UNL     1     -22.409   4.901   0.609  1.00  0.00    -0.305 N 
HETATM    9  C6  UNL     1     -22.323   4.825  -0.669  1.00  0.00     0.181 C 
ATOM     10  H2  UNL     1     -22.958   5.637   1.055  1.00  0.00     0.171 HD
ATOM     11  H1  UNL     1     -23.476   2.891   1.967  1.00  0.00     0.165 HD
BRANCH   9  12
HETATM   12  N3  UNL     1     -21.584   3.837  -1.365  1.00  0.00    -0.386 N 
HETATM   13  C7  UNL     1     -21.977   2.441  -1.383  1.00  0.00     0.149 C 
HETATM   14  C8  UNL     1     -20.374   4.210  -2.103  1.00  0.00     0.149 C 
ENDBRANCH   9  12
ENDBRANCH   4   5
ENDBRANCH   3   4
TORSDOF 3
ENDMDL
MODEL 2
REMARK VINA RESULT: -6.454393407      0.030      1.018
REMARK  3 active torsions:
REMARK  status: ('A' for Active; 'I' for Inactive)
REMARK    1  A    between atoms: C3_3  and  C4_4 
REMARK    2  A    between atoms: C4_4  and  N1_5 
REMARK       I    between atoms: N1_5  and  C5_7 
REMARK       I    between atoms: C5_7  and  N2_9 
REMARK    3  A    between atoms: C6_11  and  N3_12 
ROOT
HETATM    1  C1  UNL     1     -20.714  -1.239   0.363  1.00  0.00     0.112 C 
HETATM    2  C2  UNL     1     -21.106  -0.138   1.252  1.00  0.00    -0.109 C 
HETATM    3  C3  UNL     1     -21.415   0.780   1.972  1.00  0.00    -0.087 C 
ENDROOT
BRANCH   3   4
HETATM    4  C4  UNL     1     -21.775   1.921   2.846  1.00  0.00     0.218 C 
BRANCH   4   5
HETATM    5  N1  UNL     1     -22.461   2.911   2.058  1.00  0.00    -0.332 N 
HETATM    6  C5  UNL     1     -21.722   3.930   1.398  1.00  0.00     0.321 C 
HETATM    7  O1  UNL     1     -20.485   3.992   1.482  1.00  0.00    -0.247 OA
HETATM    8  N2  UNL     1     -22.409   4.898   0.625  1.00  0.00    -0.305 N 
HETATM    9  C6  UNL     1     -22.319   4.827  -0.653  1.00  0.00     0.181 C 
ATOM     10  H2  UNL     1     -22.959   5.632   1.072  1.00  0.00     0.171 HD
ATOM     11  H1  UNL     1     -23.477   2.882   1.974  1.00  0.00     0.165 HD
BRANCH   9  12
HETATM   12  N3  UNL     1     -21.576   3.842  -1.351  1.00  0.00    -0.386 N 
HETATM   13  C7  UNL     1     -20.353   4.153  -2.066  1.00  0.00     0.149 C 
HETATM   14  C8  UNL     1     -22.036   2.451  -1.368  1.00  0.00     0.149 C 
ENDBRANCH   9  12
ENDBRANCH   4   5
ENDBRANCH   3   4
TORSDOF 3
ENDMDL
MODEL 3
REMARK VINA RESULT: -6.296538186      1.846      3.216
REMARK  3 active torsions:
REMARK  status: ('A' for Active; 'I' for Inactive)
REMARK    1  A    between atoms: C3_3  and  C4_4 
REMARK    2  A    between atoms: C4_4  and  N1_5 
REMARK       I    between atoms: N1_5  and  C5_7 
REMARK       I    between atoms: C5_7  and  N2_9 
REMARK    3  A    between atoms: C6_11  and  N3_12 
ROOT
HETATM    1  C1  UNL     1     -21.355  -0.412   1.262  1.00  0.00     0.112 C 
HETATM    2  C2  UNL     1     -20.773   0.323   0.132  1.00  0.00    -0.109 C 
HETATM    3  C3  UNL     1     -20.286   0.939  -0.784  1.00  0.00    -0.087 C 
ENDROOT
BRANCH   3   4
HETATM    4  C4  UNL     1     -19.683   1.715  -1.892  1.00  0.00     0.218 C 
BRANCH   4   5
HETATM    5  N1  UNL     1     -19.656   3.106  -1.525  1.00  0.00    -0.332 N 
HETATM    6  C5  UNL     1     -20.814   3.911  -1.704  1.00  0.00     0.321 C 
HETATM    7  O1  UNL     1     -21.863   3.443  -2.175  1.00  0.00    -0.247 OA
HETATM    8  N2  UNL     1     -20.774   5.278  -1.337  1.00  0.00    -0.305 N 
HETATM    9  C6  UNL     1     -21.409   5.641  -0.282  1.00  0.00     0.181 C 
ATOM     10  H2  UNL     1     -20.256   5.957  -1.896  1.00  0.00     0.171 HD
ATOM     11  H1  UNL     1     -18.806   3.515  -1.136  1.00  0.00     0.165 HD
BRANCH   9  12
HETATM   12  N3  UNL     1     -22.152   4.764   0.546  1.00  0.00    -0.386 N 
HETATM   13  C7  UNL     1     -23.597   4.660   0.470  1.00  0.00     0.149 C 
HETATM   14  C8  UNL     1     -21.463   3.920   1.526  1.00  0.00     0.149 C 
ENDBRANCH   9  12
ENDBRANCH   4   5
ENDBRANCH   3   4
TORSDOF 3
ENDMDL
MODEL 4
REMARK VINA RESULT: -6.291497763      1.851      3.261
REMARK  3 active torsions:
REMARK  status: ('A' for Active; 'I' for Inactive)
REMARK    1  A    between atoms: C3_3  and  C4_4 
REMARK    2  A    between atoms: C4_4  and  N1_5 
REMARK       I    between atoms: N1_5  and  C5_7 
REMARK       I    between atoms: C5_7  and  N2_9 
REMARK    3  A    between atoms: C6_11  and  N3_12 
ROOT
HETATM    1  C1  UNL     1     -21.308  -0.453   1.194  1.00  0.00     0.112 C 
HETATM    2  C2  UNL     1     -20.748   0.313   0.074  1.00  0.00    -0.109 C 
HETATM    3  C3  UNL     1     -20.271   0.947  -0.836  1.00  0.00    -0.087 C 
ENDROOT
BRANCH   3   4
HETATM    4  C4  UNL     1     -19.668   1.734  -1.936  1.00  0.00     0.218 C 
BRANCH   4   5
HETATM    5  N1  UNL     1     -19.645   3.122  -1.555  1.00  0.00    -0.332 N 
HETATM    6  C5  UNL     1     -20.809   3.922  -1.715  1.00  0.00     0.321 C 
HETATM    7  O1  UNL     1     -21.860   3.452  -2.180  1.00  0.00    -0.247 OA
HETATM    8  N2  UNL     1     -20.774   5.286  -1.336  1.00  0.00    -0.305 N 
HETATM    9  C6  UNL     1     -21.400   5.635  -0.271  1.00  0.00     0.181 C 
ATOM     10  H2  UNL     1     -20.265   5.972  -1.894  1.00  0.00     0.171 HD
ATOM     11  H1  UNL     1     -18.794   3.532  -1.171  1.00  0.00     0.165 HD
BRANCH   9  12
HETATM   12  N3  UNL     1     -22.129   4.746   0.557  1.00  0.00    -0.386 N 
HETATM   13  C7  UNL     1     -21.484   3.886   1.531  1.00  0.00     0.149 C 
HETATM   14  C8  UNL     1     -23.588   4.672   0.448  1.00  0.00     0.149 C 
ENDBRANCH   9  12
ENDBRANCH   4   5
ENDBRANCH   3   4
TORSDOF 3
ENDMDL
MODEL 5
REMARK VINA RESULT: -5.920623464      1.739      3.125
REMARK  3 active torsions:
REMARK  status: ('A' for Active; 'I' for Inactive)
REMARK    1  A    between atoms: C3_3  and  C4_4 
REMARK    2  A    between atoms: C4_4  and  N1_5 
REMARK       I    between atoms: N1_5  and  C5_7 
REMARK       I    between atoms: C5_7  and  N2_9 
REMARK    3  A    between atoms: C6_11  and  N3_12 
ROOT
HETATM    1  C1  UNL     1     -21.905   1.356   3.489  1.00  0.00     0.112 C 
HETATM    2  C2  UNL     1     -21.466   0.941   2.151  1.00  0.00    -0.109 C 
HETATM    3  C3  UNL     1     -21.096   0.619   1.048  1.00  0.00    -0.087 C 
ENDROOT
BRANCH   3   4
HETATM    4  C4  UNL     1     -20.637   0.248  -0.310  1.00  0.00     0.218 C 
BRANCH   4   5
HETATM    5  N1  UNL     1     -20.206   1.438  -0.996  1.00  0.00    -0.332 N 
HETATM    6  C5  UNL     1     -21.169   2.351  -1.505  1.00  0.00     0.321 C 
HETATM    7  O1  UNL     1     -22.387   2.151  -1.375  1.00  0.00    -0.247 OA
HETATM    8  N2  UNL     1     -20.732   3.519  -2.178  1.00  0.00    -0.305 N 
HETATM    9  C6  UNL     1     -20.852   4.645  -1.575  1.00  0.00     0.181 C 
ATOM     10  H2  UNL     1     -20.333   3.466  -3.115  1.00  0.00     0.171 HD
ATOM     11  H1  UNL     1     -19.211   1.625  -1.117  1.00  0.00     0.165 HD
BRANCH   9  12
HETATM   12  N3  UNL     1     -21.394   4.805  -0.276  1.00  0.00    -0.386 N 
HETATM   13  C7  UNL     1     -20.680   4.397   0.920  1.00  0.00     0.149 C 
HETATM   14  C8  UNL     1     -22.722   5.400  -0.102  1.00  0.00     0.149 C 
ENDBRANCH   9  12
ENDBRANCH   4   5
ENDBRANCH   3   4
TORSDOF 3
ENDMDL
