MODEL 1
REMARK VINA RESULT: -5.735776257      0.000      0.000
REMARK  1 active torsions:
REMARK  status: ('A' for Active; 'I' for Inactive)
REMARK    1  A    between atoms: C2_2  and  N1_3 
REMARK       I    between atoms: N1_3  and  C3_5 
REMARK       I    between atoms: C3_5  and  N3_11 
REMARK       I    between atoms: N2_6  and  C4_8 
ROOT
HETATM    1  N1  UNL     1     -20.789   2.483   1.422  1.00  0.00    -0.226 N 
ATOM      2  H1  UNL     1     -19.838   2.179   1.629  1.00  0.00     0.177 HD
HETATM    3  C3  UNL     1     -21.076   2.847   0.095  1.00  0.00     0.677 C 
HETATM    4  N2  UNL     1     -21.165   4.059  -0.232  1.00  0.00    -0.160 N 
ATOM      5  H2  UNL     1     -21.014   4.712   0.537  1.00  0.00     0.187 HD
HETATM    6  C4  UNL     1     -21.430   4.664  -1.450  1.00  0.00     0.231 C 
HETATM    7  C5  UNL     1     -20.541   4.552  -2.618  1.00  0.00     0.118 C 
HETATM    8  O1  UNL     1     -22.487   5.346  -1.574  1.00  0.00    -0.273 OA
HETATM    9  N3  UNL     1     -21.270   1.846  -0.867  1.00  0.00    -0.227 N 
HETATM   10  C6  UNL     1     -20.173   0.891  -1.073  1.00  0.00     0.168 C 
HETATM   11  C7  UNL     1     -22.446   1.651  -1.681  1.00  0.00     0.168 C 
ENDROOT
BRANCH   1  12
HETATM   12  C2  UNL     1     -21.722   2.502   2.510  1.00  0.00     0.133 C 
HETATM   13  C1  UNL     1     -21.889   1.182   3.197  1.00  0.00     0.027 C 
ENDBRANCH   1  12
TORSDOF 1
ENDMDL
MODEL 2
REMARK VINA RESULT: -5.478960339      1.892      2.239
REMARK  1 active torsions:
REMARK  status: ('A' for Active; 'I' for Inactive)
REMARK    1  A    between atoms: C2_2  and  N1_3 
REMARK       I    between atoms: N1_3  and  C3_5 
REMARK       I    between atoms: C3_5  and  N3_11 
REMARK       I    between atoms: N2_6  and  C4_8 
ROOT
HETATM    1  N1  UNL     1     -20.712   1.357   0.911  1.00  0.00    -0.226 N 
ATOM      2  H1  UNL     1     -19.726   1.450   1.152  1.00  0.00     0.177 HD
HETATM    3  C3  UNL     1     -21.321   2.443   0.258  1.00  0.00     0.677 C 
HETATM    4  N2  UNL     1     -22.076   3.229   0.888  1.00  0.00    -0.160 N 
ATOM      5  H2  UNL     1     -22.190   2.998   1.875  1.00  0.00     0.187 HD
HETATM    6  C4  UNL     1     -22.779   4.351   0.481  1.00  0.00     0.231 C 
HETATM    7  C5  UNL     1     -22.128   5.579  -0.004  1.00  0.00     0.118 C 
HETATM    8  O1  UNL     1     -24.042   4.327   0.524  1.00  0.00    -0.273 OA
HETATM    9  N3  UNL     1     -21.086   2.644  -1.109  1.00  0.00    -0.227 N 
HETATM   10  C6  UNL     1     -19.690   2.815  -1.533  1.00  0.00     0.168 C 
HETATM   11  C7  UNL     1     -22.081   2.698  -2.154  1.00  0.00     0.168 C 
ENDROOT
BRANCH   1  12
HETATM   12  C2  UNL     1     -21.361   0.130   1.267  1.00  0.00     0.133 C 
HETATM   13  C1  UNL     1     -20.785  -1.082   0.602  1.00  0.00     0.027 C 
ENDBRANCH   1  12
TORSDOF 1
ENDMDL
MODEL 3
REMARK VINA RESULT: -5.395098642      1.972      2.995
REMARK  1 active torsions:
REMARK  status: ('A' for Active; 'I' for Inactive)
REMARK    1  A    between atoms: C2_2  and  N1_3 
REMARK       I    between atoms: N1_3  and  C3_5 
REMARK       I    between atoms: C3_5  and  N3_11 
REMARK       I    between atoms: N2_6  and  C4_8 
ROOT
HETATM    1  N1  UNL     1     -21.873   0.956   0.214  1.00  0.00    -0.226 N 
ATOM      2  H1  UNL     1     -22.859   0.725   0.092  1.00  0.00     0.177 HD
HETATM    3  C3  UNL     1     -21.458   2.237  -0.191  1.00  0.00     0.677 C 
HETATM    4  N2  UNL     1     -20.835   2.397  -1.272  1.00  0.00    -0.160 N 
ATOM      5  H2  UNL     1     -20.673   1.535  -1.794  1.00  0.00     0.187 HD
HETATM    6  C4  UNL     1     -20.329   3.533  -1.881  1.00  0.00     0.231 C 
HETATM    7  C5  UNL     1     -21.177   4.636  -2.363  1.00  0.00     0.118 C 
HETATM    8  O1  UNL     1     -19.079   3.639  -2.034  1.00  0.00    -0.273 OA
HETATM    9  N3  UNL     1     -21.738   3.341   0.625  1.00  0.00    -0.227 N 
HETATM   10  C6  UNL     1     -23.148   3.597   0.948  1.00  0.00     0.168 C 
HETATM   11  C7  UNL     1     -20.778   4.260   1.190  1.00  0.00     0.168 C 
ENDROOT
BRANCH   1  12
HETATM   12  C2  UNL     1     -21.028  -0.051   0.783  1.00  0.00     0.133 C 
HETATM   13  C1  UNL     1     -20.410  -0.972  -0.223  1.00  0.00     0.027 C 
ENDBRANCH   1  12
TORSDOF 1
ENDMDL
MODEL 4
REMARK VINA RESULT: -5.189525992      2.080      3.125
REMARK  1 active torsions:
REMARK  status: ('A' for Active; 'I' for Inactive)
REMARK    1  A    between atoms: C2_2  and  N1_3 
REMARK       I    between atoms: N1_3  and  C3_5 
REMARK       I    between atoms: C3_5  and  N3_11 
REMARK       I    between atoms: N2_6  and  C4_8 
ROOT
HETATM    1  N1  UNL     1     -22.139   3.139   1.495  1.00  0.00    -0.226 N 
ATOM      2  H1  UNL     1     -22.990   3.700   1.532  1.00  0.00     0.177 HD
HETATM    3  C3  UNL     1     -21.766   2.618   0.244  1.00  0.00     0.677 C 
HETATM    4  N2  UNL     1     -21.966   1.407  -0.032  1.00  0.00    -0.160 N 
ATOM      5  H2  UNL     1     -22.406   0.874   0.719  1.00  0.00     0.187 HD
HETATM    6  C4  UNL     1     -21.696   0.668  -1.171  1.00  0.00     0.231 C 
HETATM    7  C5  UNL     1     -22.331   0.930  -2.473  1.00  0.00     0.118 C 
HETATM    8  O1  UNL     1     -20.862  -0.280  -1.100  1.00  0.00    -0.273 OA
HETATM    9  N3  UNL     1     -21.160   3.459  -0.699  1.00  0.00    -0.227 N 
HETATM   10  C6  UNL     1     -21.907   4.656  -1.110  1.00  0.00     0.168 C 
HETATM   11  C7  UNL     1     -19.866   3.274  -1.312  1.00  0.00     0.168 C 
ENDROOT
BRANCH   1  12
HETATM   12  C2  UNL     1     -21.425   2.949   2.723  1.00  0.00     0.133 C 
HETATM   13  C1  UNL     1     -21.754   1.671   3.430  1.00  0.00     0.027 C 
ENDBRANCH   1  12
TORSDOF 1
ENDMDL
MODEL 5
REMARK VINA RESULT: -4.952646635      1.329      3.112
REMARK  1 active torsions:
REMARK  status: ('A' for Active; 'I' for Inactive)
REMARK    1  A    between atoms: C2_2  and  N1_3 
REMARK       I    between atoms: N1_3  and  C3_5 
REMARK       I    between atoms: C3_5  and  N3_11 
REMARK       I    between atoms: N2_6  and  C4_8 
ROOT
HETATM    1  N1  UNL     1     -21.548   1.210  -0.175  1.00  0.00    -0.226 N 
ATOM      2  H1  UNL     1     -22.321   0.639   0.166  1.00  0.00     0.177 HD
HETATM    3  C3  UNL     1     -21.608   2.592   0.073  1.00  0.00     0.677 C 
HETATM    4  N2  UNL     1     -21.932   3.394  -0.841  1.00  0.00    -0.160 N 
ATOM      5  H2  UNL     1     -22.133   2.949  -1.736  1.00  0.00     0.187 HD
HETATM    6  C4  UNL     1     -22.064   4.773  -0.849  1.00  0.00     0.231 C 
HETATM    7  C5  UNL     1     -23.067   5.493  -0.047  1.00  0.00     0.118 C 
HETATM    8  O1  UNL     1     -21.287   5.456  -1.576  1.00  0.00    -0.273 OA
HETATM    9  N3  UNL     1     -21.299   3.076   1.351  1.00  0.00    -0.227 N 
HETATM   10  C6  UNL     1     -22.090   2.559   2.475  1.00  0.00     0.168 C 
HETATM   11  C7  UNL     1     -20.272   4.036   1.683  1.00  0.00     0.168 C 
ENDROOT
BRANCH   1  12
HETATM   12  C2  UNL     1     -20.490   0.535  -0.868  1.00  0.00     0.133 C 
HETATM   13  C1  UNL     1     -20.268  -0.876  -0.419  1.00  0.00     0.027 C 
ENDBRANCH   1  12
TORSDOF 1
ENDMDL
