MODEL 1
REMARK VINA RESULT: -5.097130809      0.000      0.000
REMARK  4 active torsions:
REMARK  status: ('A' for Active; 'I' for Inactive)
REMARK    1  A    between atoms: C2_2  and  C4_4 
REMARK    2  A    between atoms: C5_5  and  C6_6 
REMARK    3  A    between atoms: C7_7  and  C8_8 
REMARK    4  A    between atoms: C8_8  and  C10_10 
ROOT
HETATM    1  C6  UNL     1     -21.403   1.685   4.008  1.00  0.00    -0.014 C 
HETATM    2  C7  UNL     1     -21.565   1.394   2.846  1.00  0.00    -0.079 C 
ENDROOT
BRANCH   1   3
HETATM    3  C5  UNL     1     -21.188   2.022   5.366  1.00  0.00    -0.015 C 
HETATM    4  C4  UNL     1     -20.994   2.309   6.526  1.00  0.00    -0.088 C 
BRANCH   4   5
HETATM    5  C2  UNL     1     -20.749   2.653   7.928  1.00  0.00     0.058 C 
HETATM    6  C1  UNL     1     -19.252   2.867   8.067  1.00  0.00     0.023 C 
HETATM    7  C3  UNL     1     -21.245   1.539   8.789  1.00  0.00     0.023 C 
ENDBRANCH   4   5
ENDBRANCH   1   3
BRANCH   2   8
HETATM    8  C8  UNL     1     -21.741   1.029   1.438  1.00  0.00     0.151 C 
HETATM    9  C9  UNL     1     -21.247  -0.389   1.208  1.00  0.00     0.033 C 
BRANCH   8  10
HETATM   10  C10 UNL     1     -20.963   1.997   0.609  1.00  0.00     0.246 C 
HETATM   11  N1  UNL     1     -20.354   1.503  -0.562  1.00  0.00    -0.061 NA
HETATM   12  O1  UNL     1     -20.855   3.211   0.948  1.00  0.00    -0.275 OA
ENDBRANCH   8  10
ENDBRANCH   2   8
TORSDOF 4
ENDMDL
MODEL 2
REMARK VINA RESULT: -5.077660323      1.097      1.453
REMARK  4 active torsions:
REMARK  status: ('A' for Active; 'I' for Inactive)
REMARK    1  A    between atoms: C2_2  and  C4_4 
REMARK    2  A    between atoms: C5_5  and  C6_6 
REMARK    3  A    between atoms: C7_7  and  C8_8 
REMARK    4  A    between atoms: C8_8  and  C10_10 
ROOT
HETATM    1  C6  UNL     1     -21.392   1.790   4.249  1.00  0.00    -0.014 C 
HETATM    2  C7  UNL     1     -21.595   1.565   3.079  1.00  0.00    -0.079 C 
ENDROOT
BRANCH   1   3
HETATM    3  C5  UNL     1     -21.128   2.054   5.616  1.00  0.00    -0.015 C 
HETATM    4  C4  UNL     1     -20.906   2.270   6.785  1.00  0.00    -0.088 C 
BRANCH   4   5
HETATM    5  C2  UNL     1     -20.643   2.522   8.204  1.00  0.00     0.058 C 
HETATM    6  C1  UNL     1     -21.385   1.449   8.980  1.00  0.00     0.023 C 
HETATM    7  C3  UNL     1     -21.117   3.897   8.542  1.00  0.00     0.023 C 
ENDBRANCH   4   5
ENDBRANCH   1   3
BRANCH   2   8
HETATM    8  C8  UNL     1     -21.819   1.285   1.660  1.00  0.00     0.151 C 
HETATM    9  C9  UNL     1     -21.342  -0.119   1.330  1.00  0.00     0.033 C 
BRANCH   8  10
HETATM   10  C10 UNL     1     -21.064   2.296   0.863  1.00  0.00     0.246 C 
HETATM   11  N1  UNL     1     -21.222   3.650   1.217  1.00  0.00    -0.061 NA
HETATM   12  O1  UNL     1     -20.312   1.947  -0.093  1.00  0.00    -0.275 OA
ENDBRANCH   8  10
ENDBRANCH   2   8
TORSDOF 4
ENDMDL
MODEL 3
REMARK VINA RESULT: -5.048551687      1.479      1.702
REMARK  4 active torsions:
REMARK  status: ('A' for Active; 'I' for Inactive)
REMARK    1  A    between atoms: C2_2  and  C4_4 
REMARK    2  A    between atoms: C5_5  and  C6_6 
REMARK    3  A    between atoms: C7_7  and  C8_8 
REMARK    4  A    between atoms: C8_8  and  C10_10 
ROOT
HETATM    1  C6  UNL     1     -21.402   2.281   3.818  1.00  0.00    -0.014 C 
HETATM    2  C7  UNL     1     -21.591   2.380   2.628  1.00  0.00    -0.079 C 
ENDROOT
BRANCH   1   3
HETATM    3  C5  UNL     1     -21.165   2.186   5.212  1.00  0.00    -0.015 C 
HETATM    4  C4  UNL     1     -20.960   2.113   6.402  1.00  0.00    -0.088 C 
BRANCH   4   5
HETATM    5  C2  UNL     1     -20.705   2.037   7.842  1.00  0.00     0.058 C 
HETATM    6  C1  UNL     1     -20.934   3.430   8.399  1.00  0.00     0.023 C 
HETATM    7  C3  UNL     1     -19.305   1.563   8.056  1.00  0.00     0.023 C 
ENDBRANCH   4   5
ENDBRANCH   1   3
BRANCH   2   8
HETATM    8  C8  UNL     1     -21.800   2.512   1.185  1.00  0.00     0.151 C 
HETATM    9  C9  UNL     1     -20.836   1.605   0.440  1.00  0.00     0.033 C 
BRANCH   8  10
HETATM   10  C10 UNL     1     -21.571   3.939   0.813  1.00  0.00     0.246 C 
HETATM   11  N1  UNL     1     -20.264   4.309   0.438  1.00  0.00    -0.061 NA
HETATM   12  O1  UNL     1     -22.514   4.781   0.836  1.00  0.00    -0.275 OA
ENDBRANCH   8  10
ENDBRANCH   2   8
TORSDOF 4
ENDMDL
MODEL 4
REMARK VINA RESULT: -5.035754368      1.140      1.140
REMARK  4 active torsions:
REMARK  status: ('A' for Active; 'I' for Inactive)
REMARK    1  A    between atoms: C2_2  and  C4_4 
REMARK    2  A    between atoms: C5_5  and  C6_6 
REMARK    3  A    between atoms: C7_7  and  C8_8 
REMARK    4  A    between atoms: C8_8  and  C10_10 
ROOT
HETATM    1  C6  UNL     1     -21.386   1.820   4.401  1.00  0.00    -0.014 C 
HETATM    2  C7  UNL     1     -21.609   1.576   3.238  1.00  0.00    -0.079 C 
ENDROOT
BRANCH   1   3
HETATM    3  C5  UNL     1     -21.102   2.115   5.757  1.00  0.00    -0.015 C 
HETATM    4  C4  UNL     1     -20.852   2.361   6.914  1.00  0.00    -0.088 C 
BRANCH   4   5
HETATM    5  C2  UNL     1     -20.541   2.650   8.316  1.00  0.00     0.058 C 
HETATM    6  C1  UNL     1     -19.448   3.704   8.311  1.00  0.00     0.023 C 
HETATM    7  C3  UNL     1     -20.107   1.385   8.981  1.00  0.00     0.023 C 
ENDBRANCH   4   5
ENDBRANCH   1   3
BRANCH   2   8
HETATM    8  C8  UNL     1     -21.856   1.282   1.825  1.00  0.00     0.151 C 
HETATM    9  C9  UNL     1     -21.364  -0.117   1.496  1.00  0.00     0.033 C 
BRANCH   8  10
HETATM   10  C10 UNL     1     -21.131   2.299   1.007  1.00  0.00     0.246 C 
HETATM   11  N1  UNL     1     -21.236   3.646   1.406  1.00  0.00    -0.061 NA
HETATM   12  O1  UNL     1     -20.452   1.961  -0.005  1.00  0.00    -0.275 OA
ENDBRANCH   8  10
ENDBRANCH   2   8
TORSDOF 4
ENDMDL
MODEL 5
REMARK VINA RESULT: -4.930463002      1.480      1.545
REMARK  4 active torsions:
REMARK  status: ('A' for Active; 'I' for Inactive)
REMARK    1  A    between atoms: C2_2  and  C4_4 
REMARK    2  A    between atoms: C5_5  and  C6_6 
REMARK    3  A    between atoms: C7_7  and  C8_8 
REMARK    4  A    between atoms: C8_8  and  C10_10 
ROOT
HETATM    1  C6  UNL     1     -21.402   2.148   4.146  1.00  0.00    -0.014 C 
HETATM    2  C7  UNL     1     -21.615   2.198   2.957  1.00  0.00    -0.079 C 
ENDROOT
BRANCH   1   3
HETATM    3  C5  UNL     1     -21.134   2.105   5.536  1.00  0.00    -0.015 C 
HETATM    4  C4  UNL     1     -20.895   2.069   6.722  1.00  0.00    -0.088 C 
BRANCH   4   5
HETATM    5  C2  UNL     1     -20.595   2.023   8.154  1.00  0.00     0.058 C 
HETATM    6  C1  UNL     1     -19.186   1.472   8.285  1.00  0.00     0.023 C 
HETATM    7  C3  UNL     1     -21.607   1.157   8.828  1.00  0.00     0.023 C 
ENDBRANCH   4   5
ENDBRANCH   1   3
BRANCH   2   8
HETATM    8  C8  UNL     1     -21.851   2.268   1.514  1.00  0.00     0.151 C 
HETATM    9  C9  UNL     1     -20.971   1.257   0.799  1.00  0.00     0.033 C 
BRANCH   8  10
HETATM   10  C10 UNL     1     -21.533   3.653   1.059  1.00  0.00     0.246 C 
HETATM   11  N1  UNL     1     -22.617   4.522   0.819  1.00  0.00    -0.061 NA
HETATM   12  O1  UNL     1     -20.336   4.030   0.895  1.00  0.00    -0.275 OA
ENDBRANCH   8  10
ENDBRANCH   2   8
TORSDOF 4
ENDMDL
