MODEL 1
REMARK VINA RESULT: -7.614142186      0.000      0.000
REMARK  6 active torsions:
REMARK  status: ('A' for Active; 'I' for Inactive)
REMARK    1  A    between atoms: C2_2  and  C3_3 
REMARK    2  A    between atoms: C3_3  and  O1_4 
REMARK    3  A    between atoms: O1_4  and  C4_5 
REMARK    4  A    between atoms: C7_8  and  O2_9 
REMARK    5  A    between atoms: C15_18  and  O3_19 
REMARK    6  A    between atoms: C25_30  and  O4_31 
ROOT
HETATM    1  C4  UNL     1       1.440   4.688  26.345  1.00  0.00     0.129 C 
HETATM    2  C5  UNL     1       2.544   3.607  26.252  1.00  0.00     0.035 C 
HETATM    3  C6  UNL     1       3.825   4.296  26.769  1.00  0.00     0.041 C 
HETATM    4  C7  UNL     1       3.170   5.297  27.682  1.00  0.00     0.065 C 
HETATM    5  C8  UNL     1       3.887   6.474  28.092  1.00  0.00     0.043 C 
HETATM    6  C9  UNL     1       3.072   7.688  27.643  1.00  0.00    -0.003 C 
HETATM    7  C10 UNL     1       3.894   8.378  26.607  1.00  0.00     0.006 C 
HETATM    8  C11 UNL     1       3.062   9.528  26.073  1.00  0.00     0.008 C 
HETATM    9  C12 UNL     1       1.958   8.879  25.284  1.00  0.00     0.025 C 
HETATM   10  C13 UNL     1       1.089   7.954  26.073  1.00  0.00     0.004 C 
HETATM   11  C14 UNL     1      -0.210   8.626  26.495  1.00  0.00     0.038 C 
HETATM   12  C15 UNL     1      -0.039  10.108  26.771  1.00  0.00     0.126 C 
HETATM   13  C16 UNL     1       0.536  10.836  25.606  1.00  0.00     0.054 C 
HETATM   14  C17 UNL     1      -0.339  11.902  25.030  1.00  0.00     0.003 C 
HETATM   15  C18 UNL     1      -1.669  11.492  24.565  1.00  0.00     0.006 C 
HETATM   16  C19 UNL     1      -1.838  12.208  23.222  1.00  0.00     0.001 C 
HETATM   17  C20 UNL     1      -0.780  13.280  23.185  1.00  0.00     0.009 C 
HETATM   18  C21 UNL     1       0.371  12.615  23.921  1.00  0.00    -0.040 C 
HETATM   19  C22 UNL     1       1.298  13.707  24.428  1.00  0.00     0.015 C 
HETATM   20  C23 UNL     1       1.098  11.735  22.967  1.00  0.00     0.012 C 
HETATM   21  C24 UNL     1       2.062  10.818  23.735  1.00  0.00     0.039 C 
HETATM   22  C25 UNL     1       1.135   9.916  24.565  1.00  0.00     0.068 C 
HETATM   23  C26 UNL     1       1.746   7.133  27.120  1.00  0.00    -0.027 C 
HETATM   24  C27 UNL     1       0.909   7.066  28.400  1.00  0.00     0.016 C 
HETATM   25  C28 UNL     1       2.211   5.862  26.618  1.00  0.00     0.058 C 
ENDROOT
BRANCH   1  26
HETATM   26  O1  UNL     1       0.859   4.705  25.081  1.00  0.00    -0.382 OA
BRANCH  26  27
HETATM   27  C3  UNL     1       1.807   4.606  24.068  1.00  0.00     0.194 C 
BRANCH  27  28
HETATM   28  C2  UNL     1       1.673   5.766  23.150  1.00  0.00    -0.011 C 
HETATM   29  C1  UNL     1       2.724   6.492  22.829  1.00  0.00     0.009 C 
ENDBRANCH  27  28
ENDBRANCH  26  27
ENDBRANCH   1  26
BRANCH   4  30
HETATM   30  O2  UNL     1       2.513   4.549  28.639  1.00  0.00    -0.389 OA
ATOM     31  H2  UNL     1       1.946   3.960  28.155  1.00  0.00     0.210 HD
ENDBRANCH   4  30
BRANCH  22  32
HETATM   32  O4  UNL     1       0.235   9.387  23.685  1.00  0.00    -0.389 OA
ATOM     33  H4  UNL     1       0.229   9.821  22.840  1.00  0.00     0.210 HD
ENDBRANCH  22  32
BRANCH  12  34
HETATM   34  O3  UNL     1      -1.351  10.599  26.962  1.00  0.00    -0.395 OA
ATOM     35  H3  UNL     1      -1.323  11.057  27.793  1.00  0.00     0.210 HD
ENDBRANCH  12  34
TORSDOF 6
ENDMDL
MODEL 2
REMARK VINA RESULT: -7.298541433      1.730      3.734
REMARK  6 active torsions:
REMARK  status: ('A' for Active; 'I' for Inactive)
REMARK    1  A    between atoms: C2_2  and  C3_3 
REMARK    2  A    between atoms: C3_3  and  O1_4 
REMARK    3  A    between atoms: O1_4  and  C4_5 
REMARK    4  A    between atoms: C7_8  and  O2_9 
REMARK    5  A    between atoms: C15_18  and  O3_19 
REMARK    6  A    between atoms: C25_30  and  O4_31 
ROOT
HETATM    1  C4  UNL     1       3.837   5.786  27.534  1.00  0.00     0.129 C 
HETATM    2  C5  UNL     1       3.277   4.477  28.144  1.00  0.00     0.035 C 
HETATM    3  C6  UNL     1       2.414   3.851  27.028  1.00  0.00     0.041 C 
HETATM    4  C7  UNL     1       3.144   4.434  25.847  1.00  0.00     0.065 C 
HETATM    5  C8  UNL     1       2.495   4.512  24.567  1.00  0.00     0.043 C 
HETATM    6  C9  UNL     1       2.478   5.983  24.148  1.00  0.00    -0.003 C 
HETATM    7  C10 UNL     1       1.043   6.394  24.138  1.00  0.00     0.006 C 
HETATM    8  C11 UNL     1       1.008   7.877  23.825  1.00  0.00     0.008 C 
HETATM    9  C12 UNL     1       1.566   8.548  25.050  1.00  0.00     0.025 C 
HETATM   10  C13 UNL     1       2.960   8.143  25.403  1.00  0.00     0.004 C 
HETATM   11  C14 UNL     1       3.983   9.163  24.921  1.00  0.00     0.038 C 
HETATM   12  C15 UNL     1       3.572   9.833  23.623  1.00  0.00     0.126 C 
HETATM   13  C16 UNL     1       2.236  10.484  23.722  1.00  0.00     0.054 C 
HETATM   14  C17 UNL     1       2.234  11.962  23.507  1.00  0.00     0.003 C 
HETATM   15  C18 UNL     1       3.080  12.765  24.397  1.00  0.00     0.006 C 
HETATM   16  C19 UNL     1       2.201  13.958  24.781  1.00  0.00     0.001 C 
HETATM   17  C20 UNL     1       1.065  13.974  23.793  1.00  0.00     0.009 C 
HETATM   18  C21 UNL     1       0.834  12.492  23.551  1.00  0.00    -0.040 C 
HETATM   19  C22 UNL     1       0.110  12.339  22.223  1.00  0.00     0.015 C 
HETATM   20  C23 UNL     1      -0.010  11.958  24.653  1.00  0.00     0.012 C 
HETATM   21  C24 UNL     1      -0.006  10.422  24.615  1.00  0.00     0.039 C 
HETATM   22  C25 UNL     1       1.449  10.047  24.937  1.00  0.00     0.068 C 
HETATM   23  C26 UNL     1       3.331   6.723  25.181  1.00  0.00    -0.027 C 
HETATM   24  C27 UNL     1       4.733   6.586  24.583  1.00  0.00     0.016 C 
HETATM   25  C28 UNL     1       3.066   5.894  26.333  1.00  0.00     0.058 C 
ENDROOT
BRANCH   1  26
HETATM   26  O1  UNL     1       3.522   6.770  28.467  1.00  0.00    -0.382 OA
BRANCH  26  27
HETATM   27  C3  UNL     1       2.194   6.698  28.876  1.00  0.00     0.194 C 
BRANCH  27  28
HETATM   28  C2  UNL     1       1.597   8.058  28.858  1.00  0.00    -0.011 C 
HETATM   29  C1  UNL     1       0.447   8.277  28.254  1.00  0.00     0.009 C 
ENDBRANCH  27  28
ENDBRANCH  26  27
ENDBRANCH   1  26
BRANCH   4  30
HETATM   30  O2  UNL     1       4.424   3.924  25.916  1.00  0.00    -0.389 OA
ATOM     31  H2  UNL     1       4.736   3.900  25.020  1.00  0.00     0.210 HD
ENDBRANCH   4  30
BRANCH  22  32
HETATM   32  O4  UNL     1       1.765  10.708  26.090  1.00  0.00    -0.389 OA
ATOM     33  H4  UNL     1       1.964  11.628  25.958  1.00  0.00     0.210 HD
ENDBRANCH  22  32
BRANCH  12  34
HETATM   34  O3  UNL     1       4.522  10.862  23.427  1.00  0.00    -0.395 OA
ATOM     35  H3  UNL     1       4.675  10.879  22.489  1.00  0.00     0.210 HD
ENDBRANCH  12  34
TORSDOF 6
ENDMDL
MODEL 3
REMARK VINA RESULT: -7.042354479      3.528      7.202
REMARK  6 active torsions:
REMARK  status: ('A' for Active; 'I' for Inactive)
REMARK    1  A    between atoms: C2_2  and  C3_3 
REMARK    2  A    between atoms: C3_3  and  O1_4 
REMARK    3  A    between atoms: O1_4  and  C4_5 
REMARK    4  A    between atoms: C7_8  and  O2_9 
REMARK    5  A    between atoms: C15_18  and  O3_19 
REMARK    6  A    between atoms: C25_30  and  O4_31 
ROOT
HETATM    1  C4  UNL     1       5.729  11.926  24.001  1.00  0.00     0.129 C 
HETATM    2  C5  UNL     1       7.040  12.664  24.363  1.00  0.00     0.035 C 
HETATM    3  C6  UNL     1       8.141  11.585  24.291  1.00  0.00     0.041 C 
HETATM    4  C7  UNL     1       7.486  10.685  23.278  1.00  0.00     0.065 C 
HETATM    5  C8  UNL     1       7.895   9.311  23.166  1.00  0.00     0.043 C 
HETATM    6  C9  UNL     1       6.661   8.442  23.413  1.00  0.00    -0.003 C 
HETATM    7  C10 UNL     1       6.922   7.705  24.684  1.00  0.00     0.006 C 
HETATM    8  C11 UNL     1       5.669   6.914  25.004  1.00  0.00     0.008 C 
HETATM    9  C12 UNL     1       4.644   7.945  25.390  1.00  0.00     0.025 C 
HETATM   10  C13 UNL     1       4.344   8.953  24.329  1.00  0.00     0.004 C 
HETATM   11  C14 UNL     1       3.067   8.612  23.573  1.00  0.00     0.038 C 
HETATM   12  C15 UNL     1       2.848   7.116  23.441  1.00  0.00     0.126 C 
HETATM   13  C16 UNL     1       2.837   6.428  24.761  1.00  0.00     0.054 C 
HETATM   14  C17 UNL     1       1.559   5.735  25.104  1.00  0.00     0.003 C 
HETATM   15  C18 UNL     1       0.342   6.555  25.127  1.00  0.00     0.006 C 
HETATM   16  C19 UNL     1      -0.392   6.108  26.393  1.00  0.00     0.001 C 
HETATM   17  C20 UNL     1       0.238   4.803  26.802  1.00  0.00     0.009 C 
HETATM   18  C21 UNL     1       1.691   5.017  26.411  1.00  0.00    -0.040 C 
HETATM   19  C22 UNL     1       2.344   3.652  26.264  1.00  0.00     0.015 C 
HETATM   20  C23 UNL     1       2.364   5.787  27.491  1.00  0.00     0.012 C 
HETATM   21  C24 UNL     1       3.731   6.287  26.999  1.00  0.00     0.039 C 
HETATM   22  C25 UNL     1       3.382   7.284  25.883  1.00  0.00     0.068 C 
HETATM   23  C26 UNL     1       5.476   9.408  23.485  1.00  0.00    -0.027 C 
HETATM   24  C27 UNL     1       5.078   9.523  22.011  1.00  0.00     0.016 C 
HETATM   25  C28 UNL     1       6.151  10.559  24.035  1.00  0.00     0.058 C 
ENDROOT
BRANCH   1  26
HETATM   26  O1  UNL     1       4.850  12.245  25.032  1.00  0.00    -0.382 OA
BRANCH  26  27
HETATM   27  C3  UNL     1       4.157  13.426  24.783  1.00  0.00     0.194 C 
BRANCH  27  28
HETATM   28  C2  UNL     1       4.428  14.398  25.872  1.00  0.00    -0.011 C 
HETATM   29  C1  UNL     1       5.118  15.494  25.635  1.00  0.00     0.009 C 
ENDBRANCH  27  28
ENDBRANCH  26  27
ENDBRANCH   1  26
BRANCH   4  30
HETATM   30  O2  UNL     1       7.372  11.443  22.131  1.00  0.00    -0.389 OA
ATOM     31  H2  UNL     1       8.152  11.254  21.623  1.00  0.00     0.210 HD
ENDBRANCH   4  30
BRANCH  22  32
HETATM   32  O4  UNL     1       2.482   8.158  26.424  1.00  0.00    -0.389 OA
ATOM     33  H4  UNL     1       1.760   7.732  26.871  1.00  0.00     0.210 HD
ENDBRANCH  22  32
BRANCH  12  34
HETATM   34  O3  UNL     1       1.552   6.983  22.891  1.00  0.00    -0.395 OA
ATOM     35  H3  UNL     1       1.352   7.836  22.526  1.00  0.00     0.210 HD
ENDBRANCH  12  34
TORSDOF 6
ENDMDL
MODEL 4
REMARK VINA RESULT: -7.035536685      1.762      3.900
REMARK  6 active torsions:
REMARK  status: ('A' for Active; 'I' for Inactive)
REMARK    1  A    between atoms: C2_2  and  C3_3 
REMARK    2  A    between atoms: C3_3  and  O1_4 
REMARK    3  A    between atoms: O1_4  and  C4_5 
REMARK    4  A    between atoms: C7_8  and  O2_9 
REMARK    5  A    between atoms: C15_18  and  O3_19 
REMARK    6  A    between atoms: C25_30  and  O4_31 
ROOT
HETATM    1  C4  UNL     1       3.336   5.747  27.678  1.00  0.00     0.129 C 
HETATM    2  C5  UNL     1       2.696   4.456  28.244  1.00  0.00     0.035 C 
HETATM    3  C6  UNL     1       1.898   3.853  27.069  1.00  0.00     0.041 C 
HETATM    4  C7  UNL     1       2.728   4.413  25.945  1.00  0.00     0.065 C 
HETATM    5  C8  UNL     1       2.176   4.507  24.621  1.00  0.00     0.043 C 
HETATM    6  C9  UNL     1       2.231   5.977  24.202  1.00  0.00    -0.003 C 
HETATM    7  C10 UNL     1       0.814   6.429  24.088  1.00  0.00     0.006 C 
HETATM    8  C11 UNL     1       0.845   7.913  23.775  1.00  0.00     0.008 C 
HETATM    9  C12 UNL     1       1.331   8.569  25.037  1.00  0.00     0.025 C 
HETATM   10  C13 UNL     1       2.684   8.124  25.489  1.00  0.00     0.004 C 
HETATM   11  C14 UNL     1       3.768   9.113  25.084  1.00  0.00     0.038 C 
HETATM   12  C15 UNL     1       3.472   9.794  23.760  1.00  0.00     0.126 C 
HETATM   13  C16 UNL     1       2.152  10.482  23.762  1.00  0.00     0.054 C 
HETATM   14  C17 UNL     1       2.208  11.960  23.548  1.00  0.00     0.003 C 
HETATM   15  C18 UNL     1       3.010  12.740  24.497  1.00  0.00     0.006 C 
HETATM   16  C19 UNL     1       2.141  13.958  24.817  1.00  0.00     0.001 C 
HETATM   17  C20 UNL     1       1.080  14.006  23.749  1.00  0.00     0.009 C 
HETATM   18  C21 UNL     1       0.825  12.530  23.491  1.00  0.00    -0.040 C 
HETATM   19  C22 UNL     1       0.194  12.396  22.114  1.00  0.00     0.015 C 
HETATM   20  C23 UNL     1      -0.112  12.023  24.529  1.00  0.00     0.012 C 
HETATM   21  C24 UNL     1      -0.150  10.487  24.490  1.00  0.00     0.039 C 
HETATM   22  C25 UNL     1       1.267  10.070  24.917  1.00  0.00     0.068 C 
HETATM   23  C26 UNL     1       3.028   6.694  25.294  1.00  0.00    -0.027 C 
HETATM   24  C27 UNL     1       4.466   6.516  24.799  1.00  0.00     0.016 C 
HETATM   25  C28 UNL     1       2.658   5.875  26.424  1.00  0.00     0.058 C 
ENDROOT
BRANCH   1  26
HETATM   26  O1  UNL     1       2.983   6.740  28.586  1.00  0.00    -0.382 OA
BRANCH  26  27
HETATM   27  C3  UNL     1       3.681   6.626  29.784  1.00  0.00     0.194 C 
BRANCH  27  28
HETATM   28  C2  UNL     1       4.892   7.484  29.735  1.00  0.00    -0.011 C 
HETATM   29  C1  UNL     1       6.081   6.980  29.993  1.00  0.00     0.009 C 
ENDBRANCH  27  28
ENDBRANCH  26  27
ENDBRANCH   1  26
BRANCH   4  30
HETATM   30  O2  UNL     1       3.985   3.866  26.106  1.00  0.00    -0.389 OA
ATOM     31  H2  UNL     1       4.225   3.527  25.252  1.00  0.00     0.210 HD
ENDBRANCH   4  30
BRANCH  22  32
HETATM   32  O4  UNL     1       1.517  10.724  26.090  1.00  0.00    -0.389 OA
ATOM     33  H4  UNL     1       0.965  10.440  26.809  1.00  0.00     0.210 HD
ENDBRANCH  22  32
BRANCH  12  34
HETATM   34  O3  UNL     1       4.463  10.794  23.633  1.00  0.00    -0.395 OA
ATOM     35  H3  UNL     1       4.353  11.347  24.397  1.00  0.00     0.210 HD
ENDBRANCH  12  34
TORSDOF 6
ENDMDL
MODEL 5
REMARK VINA RESULT: -6.676486883      1.042      1.085
REMARK  6 active torsions:
REMARK  status: ('A' for Active; 'I' for Inactive)
REMARK    1  A    between atoms: C2_2  and  C3_3 
REMARK    2  A    between atoms: C3_3  and  O1_4 
REMARK    3  A    between atoms: O1_4  and  C4_5 
REMARK    4  A    between atoms: C7_8  and  O2_9 
REMARK    5  A    between atoms: C15_18  and  O3_19 
REMARK    6  A    between atoms: C25_30  and  O4_31 
ROOT
HETATM    1  C4  UNL     1       1.965   4.723  25.789  1.00  0.00     0.129 C 
HETATM    2  C5  UNL     1       3.094   3.729  26.156  1.00  0.00     0.035 C 
HETATM    3  C6  UNL     1       3.879   4.414  27.294  1.00  0.00     0.041 C 
HETATM    4  C7  UNL     1       2.756   5.246  27.852  1.00  0.00     0.065 C 
HETATM    5  C8  UNL     1       3.047   6.397  28.663  1.00  0.00     0.043 C 
HETATM    6  C9  UNL     1       2.416   7.612  27.981  1.00  0.00    -0.003 C 
HETATM    7  C10 UNL     1       3.550   8.479  27.548  1.00  0.00     0.006 C 
HETATM    8  C11 UNL     1       2.952   9.641  26.778  1.00  0.00     0.008 C 
HETATM    9  C12 UNL     1       2.447   9.041  25.494  1.00  0.00     0.025 C 
HETATM   10  C13 UNL     1       1.418   7.972  25.669  1.00  0.00     0.004 C 
HETATM   11  C14 UNL     1       0.008   8.506  25.456  1.00  0.00     0.038 C 
HETATM   12  C15 UNL     1      -0.145   9.946  25.910  1.00  0.00     0.126 C 
HETATM   13  C16 UNL     1       0.831  10.854  25.247  1.00  0.00     0.054 C 
HETATM   14  C17 UNL     1       0.226  11.935  24.413  1.00  0.00     0.003 C 
HETATM   15  C18 UNL     1      -0.659  11.516  23.320  1.00  0.00     0.006 C 
HETATM   16  C19 UNL     1      -0.241  12.393  22.137  1.00  0.00     0.001 C 
HETATM   17  C20 UNL     1       0.573  13.519  22.719  1.00  0.00     0.009 C 
HETATM   18  C21 UNL     1       1.295  12.828  23.864  1.00  0.00    -0.040 C 
HETATM   19  C22 UNL     1       1.732  13.894  24.855  1.00  0.00     0.015 C 
HETATM   20  C23 UNL     1       2.487  12.126  23.316  1.00  0.00     0.012 C 
HETATM   21  C24 UNL     1       3.060  11.171  24.375  1.00  0.00     0.039 C 
HETATM   22  C25 UNL     1       1.958  10.116  24.559  1.00  0.00     0.068 C 
HETATM   23  C26 UNL     1       1.579   7.057  26.827  1.00  0.00    -0.027 C 
HETATM   24  C27 UNL     1       0.243   6.772  27.519  1.00  0.00     0.016 C 
HETATM   25  C28 UNL     1       2.370   5.893  26.508  1.00  0.00     0.058 C 
ENDROOT
BRANCH   1  26
HETATM   26  O1  UNL     1       2.067   4.876  24.410  1.00  0.00    -0.382 OA
BRANCH  26  27
HETATM   27  C3  UNL     1       3.348   4.594  23.945  1.00  0.00     0.194 C 
BRANCH  27  28
HETATM   28  C2  UNL     1       3.606   5.370  22.706  1.00  0.00    -0.011 C 
HETATM   29  C1  UNL     1       3.320   6.654  22.648  1.00  0.00     0.009 C 
ENDBRANCH  27  28
ENDBRANCH  26  27
ENDBRANCH   1  26
BRANCH   4  30
HETATM   30  O2  UNL     1       1.811   4.342  28.292  1.00  0.00    -0.389 OA
ATOM     31  H2  UNL     1       1.168   4.288  27.595  1.00  0.00     0.210 HD
ENDBRANCH   4  30
BRANCH  22  32
HETATM   32  O4  UNL     1       1.660   9.658  23.307  1.00  0.00    -0.389 OA
ATOM     33  H4  UNL     1       1.515  10.351  22.673  1.00  0.00     0.210 HD
ENDBRANCH  22  32
BRANCH  12  34
HETATM   34  O3  UNL     1      -1.434  10.331  25.474  1.00  0.00    -0.395 OA
ATOM     35  H3  UNL     1      -1.597  11.166  25.897  1.00  0.00     0.210 HD
ENDBRANCH  12  34
TORSDOF 6
ENDMDL
