MODEL 1
REMARK VINA RESULT: -8.119105116      0.000      0.000
REMARK  5 active torsions:
REMARK  status: ('A' for Active; 'I' for Inactive)
REMARK    1  A    between atoms: C14_18  and  C15_19 
REMARK    2  A    between atoms: C16_20  and  C17_21 
REMARK    3  A    between atoms: C17_21  and  O2_22 
REMARK    4  A    between atoms: C17_21  and  C18_24 
REMARK    5  A    between atoms: C18_24  and  O3_25 
ROOT
HETATM    1  C1  UNL     1       3.140  14.157  24.934  1.00  0.00     0.010 C 
HETATM    2  C2  UNL     1       4.438  13.437  24.513  1.00  0.00    -0.017 C 
HETATM    3  C3  UNL     1       5.308  13.405  25.716  1.00  0.00     0.014 C 
HETATM    4  C4  UNL     1       6.700  12.975  25.521  1.00  0.00     0.049 C 
HETATM    5  C5  UNL     1       7.083  12.675  24.104  1.00  0.00     0.133 C 
HETATM    6  O1  UNL     1       8.386  13.119  24.448  1.00  0.00    -0.374 OA
HETATM    7  C6  UNL     1       7.784  13.980  25.399  1.00  0.00     0.060 C 
HETATM    8  C7  UNL     1       7.477  15.323  24.869  1.00  0.00     0.046 C 
HETATM    9  C8  UNL     1       8.681  14.052  26.621  1.00  0.00     0.046 C 
HETATM   10  C9  UNL     1       6.974  11.224  23.768  1.00  0.00     0.012 C 
HETATM   11  C10 UNL     1       6.986  10.989  22.268  1.00  0.00     0.012 C 
HETATM   12  C11 UNL     1       5.899  10.481  24.467  1.00  0.00     0.018 C 
HETATM   13  C12 UNL     1       4.509  10.893  24.306  1.00  0.00    -0.014 C 
HETATM   14  C13 UNL     1       3.760  10.591  25.602  1.00  0.00     0.242 C 
HETATM   15  N1  UNL     1       3.149   9.295  25.454  1.00  0.00    -0.067 N 
ATOM     16  H11 UNL     1       2.456   9.064  26.166  1.00  0.00     0.277 HD
ATOM     17  H12 UNL     1       3.763   8.506  25.653  1.00  0.00     0.277 HD
HETATM   18  C14 UNL     1       2.642   9.340  24.113  1.00  0.00     0.209 C 
HETATM   19  C27 UNL     1       3.813   9.892  23.358  1.00  0.00     0.048 C 
HETATM   20  C28 UNL     1       4.205  12.223  23.753  1.00  0.00     0.015 C 
ENDROOT
BRANCH  18  21
HETATM   21  C15 UNL     1       2.345   7.961  23.666  1.00  0.00     0.004 C 
HETATM   22  C16 UNL     1       1.557   7.212  24.421  1.00  0.00     0.005 C 
BRANCH  22  23
HETATM   23  C17 UNL     1       1.265   5.825  23.962  1.00  0.00     0.175 C 
BRANCH  23  24
HETATM   24  O2  UNL     1       1.552   5.735  22.575  1.00  0.00    -0.389 OA
ATOM     25  H2  UNL     1       0.773   5.435  22.121  1.00  0.00     0.210 HD
ENDBRANCH  23  24
BRANCH  23  26
HETATM   26  C18 UNL     1       2.089   4.805  24.721  1.00  0.00     0.087 C 
HETATM   27  C19 UNL     1       2.566   5.503  25.973  1.00  0.00     0.041 C 
HETATM   28  C20 UNL     1       3.633   4.739  26.712  1.00  0.00     0.003 C 
HETATM   29  C21 UNL     1       4.713   5.644  27.184  1.00  0.00     0.000 C 
HETATM   30  C22 UNL     1       5.871   5.795  26.227  1.00  0.00     0.000 C 
HETATM   31  C23 UNL     1       6.229   4.551  25.500  1.00  0.00     0.000 C 
HETATM   32  C24 UNL     1       5.654   4.367  24.148  1.00  0.00     0.000 C 
HETATM   33  C25 UNL     1       4.425   5.140  23.819  1.00  0.00     0.003 C 
HETATM   34  C26 UNL     1       3.155   4.280  23.834  1.00  0.00     0.041 C 
BRANCH  26  35
HETATM   35  O3  UNL     1       1.232   3.739  25.063  1.00  0.00    -0.387 OA
ATOM     36  H3  UNL     1       1.603   2.945  24.695  1.00  0.00     0.210 HD
ENDBRANCH  26  35
ENDBRANCH  23  26
ENDBRANCH  22  23
ENDBRANCH  18  21
TORSDOF 5
ENDMDL
MODEL 2
REMARK VINA RESULT: -7.884851980      1.246      1.734
REMARK  5 active torsions:
REMARK  status: ('A' for Active; 'I' for Inactive)
REMARK    1  A    between atoms: C14_18  and  C15_19 
REMARK    2  A    between atoms: C16_20  and  C17_21 
REMARK    3  A    between atoms: C17_21  and  O2_22 
REMARK    4  A    between atoms: C17_21  and  C18_24 
REMARK    5  A    between atoms: C18_24  and  O3_25 
ROOT
HETATM    1  C1  UNL     1       3.225  14.480  24.979  1.00  0.00     0.010 C 
HETATM    2  C2  UNL     1       4.441  13.624  24.568  1.00  0.00    -0.017 C 
HETATM    3  C3  UNL     1       5.350  13.597  25.743  1.00  0.00     0.014 C 
HETATM    4  C4  UNL     1       6.692  13.035  25.534  1.00  0.00     0.049 C 
HETATM    5  C5  UNL     1       6.995  12.608  24.130  1.00  0.00     0.133 C 
HETATM    6  O1  UNL     1       8.342  12.959  24.400  1.00  0.00    -0.374 OA
HETATM    7  C6  UNL     1       7.852  13.931  25.306  1.00  0.00     0.060 C 
HETATM    8  C7  UNL     1       7.640  15.257  24.693  1.00  0.00     0.046 C 
HETATM    9  C8  UNL     1       8.797  14.008  26.491  1.00  0.00     0.046 C 
HETATM   10  C9  UNL     1       6.751  11.153  23.901  1.00  0.00     0.012 C 
HETATM   11  C10 UNL     1       6.686  10.817  22.421  1.00  0.00     0.012 C 
HETATM   12  C11 UNL     1       5.644  10.555  24.684  1.00  0.00     0.018 C 
HETATM   13  C12 UNL     1       4.288  11.075  24.540  1.00  0.00    -0.014 C 
HETATM   14  C13 UNL     1       3.566  10.927  25.877  1.00  0.00     0.242 C 
HETATM   15  N1  UNL     1       2.842   9.682  25.841  1.00  0.00    -0.067 N 
ATOM     16  H11 UNL     1       2.160   9.561  26.589  1.00  0.00     0.277 HD
ATOM     17  H12 UNL     1       3.395   8.858  26.075  1.00  0.00     0.277 HD
HETATM   18  C14 UNL     1       2.291   9.681  24.516  1.00  0.00     0.209 C 
HETATM   19  C27 UNL     1       3.475  10.076  23.687  1.00  0.00     0.048 C 
HETATM   20  C28 UNL     1       4.077  12.385  23.904  1.00  0.00     0.015 C 
ENDROOT
BRANCH  18  21
HETATM   21  C15 UNL     1       1.861   8.305  24.177  1.00  0.00     0.004 C 
HETATM   22  C16 UNL     1       0.815   7.800  24.810  1.00  0.00     0.005 C 
BRANCH  22  23
HETATM   23  C17 UNL     1       0.391   6.415  24.462  1.00  0.00     0.175 C 
BRANCH  23  24
HETATM   24  O2  UNL     1       1.165   5.966  23.360  1.00  0.00    -0.389 OA
ATOM     25  H2  UNL     1       1.541   5.121  23.576  1.00  0.00     0.210 HD
ENDBRANCH  23  24
BRANCH  23  26
HETATM   26  C18 UNL     1       0.572   5.470  25.632  1.00  0.00     0.087 C 
HETATM   27  C19 UNL     1       0.439   6.316  26.876  1.00  0.00     0.041 C 
HETATM   28  C20 UNL     1       0.872   5.604  28.131  1.00  0.00     0.003 C 
HETATM   29  C21 UNL     1       1.675   6.497  29.006  1.00  0.00     0.000 C 
HETATM   30  C22 UNL     1       3.166   6.424  28.780  1.00  0.00     0.000 C 
HETATM   31  C23 UNL     1       3.671   5.065  28.467  1.00  0.00     0.000 C 
HETATM   32  C24 UNL     1       3.841   4.717  27.038  1.00  0.00     0.000 C 
HETATM   33  C25 UNL     1       3.064   5.510  26.047  1.00  0.00     0.003 C 
HETATM   34  C26 UNL     1       1.858   4.747  25.483  1.00  0.00     0.041 C 
BRANCH  26  35
HETATM   35  O3  UNL     1      -0.474   4.526  25.580  1.00  0.00    -0.387 OA
ATOM     36  H3  UNL     1      -0.415   4.080  24.743  1.00  0.00     0.210 HD
ENDBRANCH  26  35
ENDBRANCH  23  26
ENDBRANCH  22  23
ENDBRANCH  18  21
TORSDOF 5
ENDMDL
MODEL 3
REMARK VINA RESULT: -7.617548854      1.959      8.493
REMARK  5 active torsions:
REMARK  status: ('A' for Active; 'I' for Inactive)
REMARK    1  A    between atoms: C14_18  and  C15_19 
REMARK    2  A    between atoms: C16_20  and  C17_21 
REMARK    3  A    between atoms: C17_21  and  O2_22 
REMARK    4  A    between atoms: C17_21  and  C18_24 
REMARK    5  A    between atoms: C18_24  and  O3_25 
ROOT
HETATM    1  C1  UNL     1       1.495   6.113  22.352  1.00  0.00     0.010 C 
HETATM    2  C2  UNL     1       1.712   6.529  23.822  1.00  0.00    -0.017 C 
HETATM    3  C3  UNL     1       2.066   5.290  24.560  1.00  0.00     0.014 C 
HETATM    4  C4  UNL     1       2.099   5.375  26.027  1.00  0.00     0.049 C 
HETATM    5  C5  UNL     1       1.712   6.704  26.599  1.00  0.00     0.133 C 
HETATM    6  O1  UNL     1       1.204   5.987  27.713  1.00  0.00    -0.374 OA
HETATM    7  C6  UNL     1       0.943   4.909  26.831  1.00  0.00     0.060 C 
HETATM    8  C7  UNL     1      -0.412   4.940  26.246  1.00  0.00     0.046 C 
HETATM    9  C8  UNL     1       1.204   3.608  27.568  1.00  0.00     0.046 C 
HETATM   10  C9  UNL     1       2.889   7.577  26.888  1.00  0.00     0.012 C 
HETATM   11  C10 UNL     1       2.482   9.025  27.094  1.00  0.00     0.012 C 
HETATM   12  C11 UNL     1       4.046   7.418  25.976  1.00  0.00     0.018 C 
HETATM   13  C12 UNL     1       3.883   7.663  24.547  1.00  0.00    -0.014 C 
HETATM   14  C13 UNL     1       4.828   6.737  23.784  1.00  0.00     0.242 C 
HETATM   15  N1  UNL     1       6.041   7.471  23.533  1.00  0.00    -0.067 N 
ATOM     16  H11 UNL     1       6.673   7.038  22.860  1.00  0.00     0.277 HD
ATOM     17  H12 UNL     1       6.707   7.476  24.306  1.00  0.00     0.277 HD
HETATM   18  C14 UNL     1       5.550   8.764  23.154  1.00  0.00     0.209 C 
HETATM   19  C27 UNL     1       4.522   9.028  24.212  1.00  0.00     0.048 C 
HETATM   20  C28 UNL     1       2.530   7.719  23.970  1.00  0.00     0.015 C 
ENDROOT
BRANCH  18  21
HETATM   21  C15 UNL     1       6.655   9.745  23.254  1.00  0.00     0.004 C 
HETATM   22  C16 UNL     1       6.927  10.265  24.440  1.00  0.00     0.005 C 
BRANCH  22  23
HETATM   23  C17 UNL     1       8.040  11.252  24.530  1.00  0.00     0.175 C 
BRANCH  23  24
HETATM   24  O2  UNL     1       9.069  10.858  23.635  1.00  0.00    -0.389 OA
ATOM     25  H2  UNL     1       9.817  11.430  23.761  1.00  0.00     0.210 HD
ENDBRANCH  23  24
BRANCH  23  26
HETATM   26  C18 UNL     1       7.570  12.650  24.185  1.00  0.00     0.087 C 
HETATM   27  C19 UNL     1       7.919  13.513  25.374  1.00  0.00     0.041 C 
HETATM   28  C20 UNL     1       7.273  14.874  25.333  1.00  0.00     0.003 C 
HETATM   29  C21 UNL     1       6.748  15.260  26.668  1.00  0.00     0.000 C 
HETATM   30  C22 UNL     1       5.304  14.887  26.907  1.00  0.00     0.000 C 
HETATM   31  C23 UNL     1       4.433  15.021  25.714  1.00  0.00     0.000 C 
HETATM   32  C24 UNL     1       4.197  13.803  24.905  1.00  0.00     0.000 C 
HETATM   33  C25 UNL     1       5.189  12.701  25.029  1.00  0.00     0.003 C 
HETATM   34  C26 UNL     1       6.133  12.607  23.823  1.00  0.00     0.041 C 
BRANCH  26  35
HETATM   35  O3  UNL     1       8.299  13.074  23.054  1.00  0.00    -0.387 OA
ATOM     36  H3  UNL     1       9.145  12.644  23.082  1.00  0.00     0.210 HD
ENDBRANCH  26  35
ENDBRANCH  23  26
ENDBRANCH  22  23
ENDBRANCH  18  21
TORSDOF 5
ENDMDL
MODEL 4
REMARK VINA RESULT: -7.539917740      1.167      2.105
REMARK  5 active torsions:
REMARK  status: ('A' for Active; 'I' for Inactive)
REMARK    1  A    between atoms: C14_18  and  C15_19 
REMARK    2  A    between atoms: C16_20  and  C17_21 
REMARK    3  A    between atoms: C17_21  and  O2_22 
REMARK    4  A    between atoms: C17_21  and  C18_24 
REMARK    5  A    between atoms: C18_24  and  O3_25 
ROOT
HETATM    1  C1  UNL     1       3.148  14.139  24.954  1.00  0.00     0.010 C 
HETATM    2  C2  UNL     1       4.435  13.405  24.525  1.00  0.00    -0.017 C 
HETATM    3  C3  UNL     1       5.304  13.347  25.728  1.00  0.00     0.014 C 
HETATM    4  C4  UNL     1       6.690  12.899  25.528  1.00  0.00     0.049 C 
HETATM    5  C5  UNL     1       7.069  12.609  24.109  1.00  0.00     0.133 C 
HETATM    6  O1  UNL     1       8.378  13.030  24.457  1.00  0.00    -0.374 OA
HETATM    7  C6  UNL     1       7.788  13.889  25.417  1.00  0.00     0.060 C 
HETATM    8  C7  UNL     1       7.501  15.242  24.901  1.00  0.00     0.046 C 
HETATM    9  C8  UNL     1       8.686  13.935  26.639  1.00  0.00     0.046 C 
HETATM   10  C9  UNL     1       6.938  11.163  23.756  1.00  0.00     0.012 C 
HETATM   11  C10 UNL     1       6.947  10.944  22.254  1.00  0.00     0.012 C 
HETATM   12  C11 UNL     1       5.853  10.429  24.448  1.00  0.00     0.018 C 
HETATM   13  C12 UNL     1       4.468  10.863  24.292  1.00  0.00    -0.014 C 
HETATM   14  C13 UNL     1       3.715  10.557  25.584  1.00  0.00     0.242 C 
HETATM   15  N1  UNL     1       3.085   9.272  25.422  1.00  0.00    -0.067 N 
ATOM     16  H11 UNL     1       2.389   9.044  26.132  1.00  0.00     0.277 HD
ATOM     17  H12 UNL     1       3.688   8.472  25.613  1.00  0.00     0.277 HD
HETATM   18  C14 UNL     1       2.579   9.339  24.082  1.00  0.00     0.209 C 
HETATM   19  C27 UNL     1       3.758   9.882  23.333  1.00  0.00     0.048 C 
HETATM   20  C28 UNL     1       4.184  12.202  23.753  1.00  0.00     0.015 C 
ENDROOT
BRANCH  18  21
HETATM   21  C15 UNL     1       2.262   7.969  23.620  1.00  0.00     0.004 C 
HETATM   22  C16 UNL     1       3.257   7.109  23.476  1.00  0.00     0.005 C 
BRANCH  22  23
HETATM   23  C17 UNL     1       2.928   5.733  23.010  1.00  0.00     0.175 C 
BRANCH  23  24
HETATM   24  O2  UNL     1       4.136   5.057  22.697  1.00  0.00    -0.389 OA
ATOM     25  H2  UNL     1       4.075   4.163  23.010  1.00  0.00     0.210 HD
ENDBRANCH  23  24
BRANCH  23  26
HETATM   26  C18 UNL     1       2.170   4.957  24.069  1.00  0.00     0.087 C 
HETATM   27  C19 UNL     1       1.015   5.839  24.485  1.00  0.00     0.041 C 
HETATM   28  C20 UNL     1       0.317   5.357  25.730  1.00  0.00     0.003 C 
HETATM   29  C21 UNL     1       0.003   6.487  26.641  1.00  0.00     0.000 C 
HETATM   30  C22 UNL     1       1.063   6.771  27.679  1.00  0.00     0.000 C 
HETATM   31  C23 UNL     1       1.726   5.560  28.222  1.00  0.00     0.000 C 
HETATM   32  C24 UNL     1       3.009   5.154  27.602  1.00  0.00     0.000 C 
HETATM   33  C25 UNL     1       3.287   5.649  26.226  1.00  0.00     0.003 C 
HETATM   34  C26 UNL     1       3.103   4.568  25.153  1.00  0.00     0.041 C 
BRANCH  26  35
HETATM   35  O3  UNL     1       1.681   3.781  23.463  1.00  0.00    -0.387 OA
ATOM     36  H3  UNL     1       1.775   3.076  24.092  1.00  0.00     0.210 HD
ENDBRANCH  26  35
ENDBRANCH  23  26
ENDBRANCH  22  23
ENDBRANCH  18  21
TORSDOF 5
ENDMDL
MODEL 5
REMARK VINA RESULT: -7.488421624      1.874      2.620
REMARK  5 active torsions:
REMARK  status: ('A' for Active; 'I' for Inactive)
REMARK    1  A    between atoms: C14_18  and  C15_19 
REMARK    2  A    between atoms: C16_20  and  C17_21 
REMARK    3  A    between atoms: C17_21  and  O2_22 
REMARK    4  A    between atoms: C17_21  and  C18_24 
REMARK    5  A    between atoms: C18_24  and  O3_25 
ROOT
HETATM    1  C1  UNL     1       4.995  15.741  25.827  1.00  0.00     0.010 C 
HETATM    2  C2  UNL     1       6.003  14.711  25.276  1.00  0.00    -0.017 C 
HETATM    3  C3  UNL     1       6.814  14.258  26.435  1.00  0.00     0.014 C 
HETATM    4  C4  UNL     1       8.001  13.444  26.139  1.00  0.00     0.049 C 
HETATM    5  C5  UNL     1       8.277  13.220  24.684  1.00  0.00     0.133 C 
HETATM    6  O1  UNL     1       9.652  13.189  25.032  1.00  0.00    -0.374 OA
HETATM    7  C6  UNL     1       9.346  14.067  26.100  1.00  0.00     0.060 C 
HETATM    8  C7  UNL     1       9.479  15.495  25.747  1.00  0.00     0.046 C 
HETATM    9  C8  UNL     1      10.216  13.702  27.289  1.00  0.00     0.046 C 
HETATM   10  C9  UNL     1       7.719  11.930  24.179  1.00  0.00     0.012 C 
HETATM   11  C10 UNL     1       7.663  11.893  22.662  1.00  0.00     0.012 C 
HETATM   12  C11 UNL     1       6.463  11.478  24.822  1.00  0.00     0.018 C 
HETATM   13  C12 UNL     1       5.272  12.319  24.762  1.00  0.00    -0.014 C 
HETATM   14  C13 UNL     1       4.461  12.105  26.037  1.00  0.00     0.242 C 
HETATM   15  N1  UNL     1       3.475  11.094  25.757  1.00  0.00    -0.067 N 
ATOM     16  H11 UNL     1       2.742  11.002  26.460  1.00  0.00     0.277 HD
ATOM     17  H12 UNL     1       3.810  10.133  25.837  1.00  0.00     0.277 HD
HETATM   18  C14 UNL     1       3.013  11.463  24.450  1.00  0.00     0.209 C 
HETATM   19  C27 UNL     1       4.302  11.713  23.725  1.00  0.00     0.048 C 
HETATM   20  C28 UNL     1       5.403  13.735  24.384  1.00  0.00     0.015 C 
ENDROOT
BRANCH  18  21
HETATM   21  C15 UNL     1       2.300  10.313  23.850  1.00  0.00     0.004 C 
HETATM   22  C16 UNL     1       1.835   9.373  24.657  1.00  0.00     0.005 C 
BRANCH  22  23
HETATM   23  C17 UNL     1       1.118   8.219  24.044  1.00  0.00     0.175 C 
BRANCH  23  24
HETATM   24  O2  UNL     1       1.958   7.632  23.062  1.00  0.00    -0.389 OA
ATOM     25  H2  UNL     1       2.077   6.714  23.271  1.00  0.00     0.210 HD
ENDBRANCH  23  24
BRANCH  23  26
HETATM   26  C18 UNL     1       0.748   7.182  25.084  1.00  0.00     0.087 C 
HETATM   27  C19 UNL     1       0.466   7.948  26.355  1.00  0.00     0.041 C 
HETATM   28  C20 UNL     1       0.359   7.066  27.571  1.00  0.00     0.003 C 
HETATM   29  C21 UNL     1       1.064   7.665  28.734  1.00  0.00     0.000 C 
HETATM   30  C22 UNL     1       2.502   7.233  28.888  1.00  0.00     0.000 C 
HETATM   31  C23 UNL     1       2.755   5.814  28.535  1.00  0.00     0.000 C 
HETATM   32  C24 UNL     1       3.236   5.532  27.162  1.00  0.00     0.000 C 
HETATM   33  C25 UNL     1       2.966   6.562  26.122  1.00  0.00     0.003 C 
HETATM   34  C26 UNL     1       1.827   6.169  25.172  1.00  0.00     0.041 C 
BRANCH  26  35
HETATM   35  O3  UNL     1      -0.427   6.539  24.641  1.00  0.00    -0.387 OA
ATOM     36  H3  UNL     1      -0.807   7.078  23.957  1.00  0.00     0.210 HD
ENDBRANCH  26  35
ENDBRANCH  23  26
ENDBRANCH  22  23
ENDBRANCH  18  21
TORSDOF 5
ENDMDL
