MODEL 1
REMARK VINA RESULT: -8.003310725      0.000      0.000
REMARK  6 active torsions:
REMARK  status: ('A' for Active; 'I' for Inactive)
REMARK    1  A    between atoms: C2_2  and  C3_3 
REMARK    2  A    between atoms: C3_3  and  C5_5 
REMARK    3  A    between atoms: C11_11  and  O1_12 
REMARK    4  A    between atoms: C13_15  and  C15_17 
REMARK    5  A    between atoms: C17_19  and  O2_20 
REMARK    6  A    between atoms: C18_22  and  O3_23 
ROOT
HETATM    1  C5  UNL     1       5.957  10.898  24.308  1.00  0.00    -0.002 C 
HETATM    2  C6  UNL     1       5.139  12.192  24.478  1.00  0.00     0.006 C 
HETATM    3  C7  UNL     1       3.891  11.539  25.096  1.00  0.00     0.011 C 
HETATM    4  C8  UNL     1       3.684  10.442  24.057  1.00  0.00    -0.030 C 
HETATM    5  C9  UNL     1       2.808  11.110  22.982  1.00  0.00     0.016 C 
HETATM    6  C10 UNL     1       2.887   9.372  24.658  1.00  0.00     0.028 C 
HETATM    7  C11 UNL     1       3.201   8.906  26.031  1.00  0.00     0.129 C 
HETATM    8  C12 UNL     1       3.043   7.421  25.954  1.00  0.00     0.034 C 
HETATM    9  C13 UNL     1       2.751   6.687  27.178  1.00  0.00    -0.011 C 
HETATM   10  C14 UNL     1       1.739   7.212  28.121  1.00  0.00     0.018 C 
HETATM   11  C19 UNL     1       2.313   5.270  26.780  1.00  0.00     0.012 C 
HETATM   12  C20 UNL     1       2.823   4.903  25.410  1.00  0.00     0.002 C 
HETATM   13  C21 UNL     1       2.199   5.734  24.317  1.00  0.00     0.010 C 
HETATM   14  C22 UNL     1       2.145   7.169  24.771  1.00  0.00    -0.033 C 
HETATM   15  C23 UNL     1       0.729   7.554  24.934  1.00  0.00     0.016 C 
HETATM   16  C24 UNL     1       2.791   8.128  23.771  1.00  0.00     0.001 C 
HETATM   17  C25 UNL     1       4.129   7.726  23.314  1.00  0.00     0.007 C 
HETATM   18  C26 UNL     1       5.274   8.579  23.676  1.00  0.00     0.011 C 
HETATM   19  C27 UNL     1       5.048  10.067  23.520  1.00  0.00    -0.032 C 
HETATM   20  C28 UNL     1       5.041  10.318  22.027  1.00  0.00     0.016 C 
ENDROOT
BRANCH   9  21
HETATM   21  C15 UNL     1       4.059   6.578  27.983  1.00  0.00     0.136 C 
HETATM   22  C16 UNL     1       4.033   7.336  29.244  1.00  0.00     0.069 C 
HETATM   23  C17 UNL     1       4.713   6.409  30.224  1.00  0.00     0.175 C 
HETATM   24  C18 UNL     1       4.770   5.108  29.513  1.00  0.00     0.285 C 
HETATM   25  O4  UNL     1       4.351   5.271  28.217  1.00  0.00    -0.353 OA
BRANCH  23  26
HETATM   26  O2  UNL     1       4.034   6.343  31.440  1.00  0.00    -0.391 OA
ATOM     27  H2  UNL     1       3.686   5.476  31.607  1.00  0.00     0.210 HD
ENDBRANCH  23  26
BRANCH  24  28
HETATM   28  O3  UNL     1       6.039   4.515  29.554  1.00  0.00    -0.369 OA
ATOM     29  H3  UNL     1       6.239   4.009  28.774  1.00  0.00     0.212 HD
ENDBRANCH  24  28
ENDBRANCH   9  21
BRANCH   7  30
HETATM   30  O1  UNL     1       2.331   9.485  26.972  1.00  0.00    -0.395 OA
ATOM     31  H1  UNL     1       2.409   9.057  27.816  1.00  0.00     0.210 HD
ENDBRANCH   7  30
BRANCH   1  32
HETATM   32  C3  UNL     1       7.313  11.222  24.012  1.00  0.00    -0.014 C 
HETATM   33  C4  UNL     1       7.968  12.432  24.592  1.00  0.00     0.010 C 
BRANCH  32  34
HETATM   34  C2  UNL     1       8.276  10.067  24.225  1.00  0.00     0.000 C 
HETATM   35  C1  UNL     1       8.881   9.628  22.879  1.00  0.00     0.005 C 
ENDBRANCH  32  34
ENDBRANCH   1  32
TORSDOF 6
ENDMDL
MODEL 2
REMARK VINA RESULT: -7.760139195      2.461      6.559
REMARK  6 active torsions:
REMARK  status: ('A' for Active; 'I' for Inactive)
REMARK    1  A    between atoms: C2_2  and  C3_3 
REMARK    2  A    between atoms: C3_3  and  C5_5 
REMARK    3  A    between atoms: C11_11  and  O1_12 
REMARK    4  A    between atoms: C13_15  and  C15_17 
REMARK    5  A    between atoms: C17_19  and  O2_20 
REMARK    6  A    between atoms: C18_22  and  O3_23 
ROOT
HETATM    1  C5  UNL     1       4.311   6.375  28.935  1.00  0.00    -0.002 C 
HETATM    2  C6  UNL     1       4.112   4.912  28.497  1.00  0.00     0.006 C 
HETATM    3  C7  UNL     1       3.766   5.206  27.028  1.00  0.00     0.011 C 
HETATM    4  C8  UNL     1       2.687   6.257  27.266  1.00  0.00    -0.030 C 
HETATM    5  C9  UNL     1       1.394   5.433  27.410  1.00  0.00     0.016 C 
HETATM    6  C10 UNL     1       2.548   7.067  26.056  1.00  0.00     0.028 C 
HETATM    7  C11 UNL     1       3.762   7.543  25.348  1.00  0.00     0.129 C 
HETATM    8  C12 UNL     1       3.423   8.942  24.946  1.00  0.00     0.034 C 
HETATM    9  C13 UNL     1       4.120   9.530  23.811  1.00  0.00    -0.011 C 
HETATM   10  C14 UNL     1       4.319   8.732  22.582  1.00  0.00     0.018 C 
HETATM   11  C19 UNL     1       3.367  10.807  23.410  1.00  0.00     0.012 C 
HETATM   12  C20 UNL     1       2.550  11.344  24.556  1.00  0.00     0.002 C 
HETATM   13  C21 UNL     1       1.414  10.427  24.939  1.00  0.00     0.010 C 
HETATM   14  C22 UNL     1       1.917   9.008  24.937  1.00  0.00    -0.033 C 
HETATM   15  C23 UNL     1       1.240   8.274  23.849  1.00  0.00     0.016 C 
HETATM   16  C24 UNL     1       1.637   8.282  26.253  1.00  0.00     0.001 C 
HETATM   17  C25 UNL     1       2.033   9.025  27.458  1.00  0.00     0.007 C 
HETATM   18  C26 UNL     1       3.115   8.472  28.292  1.00  0.00     0.011 C 
HETATM   19  C27 UNL     1       3.039   6.982  28.546  1.00  0.00    -0.032 C 
HETATM   20  C28 UNL     1       1.889   6.797  29.513  1.00  0.00     0.016 C 
ENDROOT
BRANCH   9  21
HETATM   21  C15 UNL     1       5.530   9.932  24.284  1.00  0.00     0.136 C 
HETATM   22  C16 UNL     1       6.601   9.136  23.665  1.00  0.00     0.069 C 
HETATM   23  C17 UNL     1       7.672  10.159  23.368  1.00  0.00     0.175 C 
HETATM   24  C18 UNL     1       6.987  11.463  23.551  1.00  0.00     0.285 C 
HETATM   25  O4  UNL     1       5.732  11.258  24.063  1.00  0.00    -0.353 OA
BRANCH  23  26
HETATM   26  O2  UNL     1       8.215   9.995  22.094  1.00  0.00    -0.391 OA
ATOM     27  H2  UNL     1       9.163   9.941  22.115  1.00  0.00     0.210 HD
ENDBRANCH  23  26
BRANCH  24  28
HETATM   28  O3  UNL     1       7.711  12.357  24.351  1.00  0.00    -0.369 OA
ATOM     29  H3  UNL     1       8.643  12.172  24.367  1.00  0.00     0.212 HD
ENDBRANCH  24  28
ENDBRANCH   9  21
BRANCH   7  30
HETATM   30  O1  UNL     1       4.051   6.727  24.239  1.00  0.00    -0.395 OA
ATOM     31  H1  UNL     1       3.255   6.463  23.794  1.00  0.00     0.210 HD
ENDBRANCH   7  30
BRANCH   1  32
HETATM   32  C3  UNL     1       4.935   6.413  30.215  1.00  0.00    -0.014 C 
HETATM   33  C4  UNL     1       5.155   5.168  31.011  1.00  0.00     0.010 C 
BRANCH  32  34
HETATM   34  C2  UNL     1       6.252   7.171  30.229  1.00  0.00     0.000 C 
HETATM   35  C1  UNL     1       7.283   6.455  29.338  1.00  0.00     0.005 C 
ENDBRANCH  32  34
ENDBRANCH   1  32
TORSDOF 6
ENDMDL
MODEL 3
REMARK VINA RESULT: -7.543460871      1.600      2.245
REMARK  6 active torsions:
REMARK  status: ('A' for Active; 'I' for Inactive)
REMARK    1  A    between atoms: C2_2  and  C3_3 
REMARK    2  A    between atoms: C3_3  and  C5_5 
REMARK    3  A    between atoms: C11_11  and  O1_12 
REMARK    4  A    between atoms: C13_15  and  C15_17 
REMARK    5  A    between atoms: C17_19  and  O2_20 
REMARK    6  A    between atoms: C18_22  and  O3_23 
ROOT
HETATM    1  C5  UNL     1       4.692  12.230  25.036  1.00  0.00    -0.002 C 
HETATM    2  C6  UNL     1       3.641  13.248  24.552  1.00  0.00     0.006 C 
HETATM    3  C7  UNL     1       2.405  12.370  24.811  1.00  0.00     0.011 C 
HETATM    4  C8  UNL     1       2.877  11.113  24.089  1.00  0.00    -0.030 C 
HETATM    5  C9  UNL     1       2.425  11.330  22.634  1.00  0.00     0.016 C 
HETATM    6  C10 UNL     1       2.129   9.967  24.606  1.00  0.00     0.028 C 
HETATM    7  C11 UNL     1       1.918   9.827  26.068  1.00  0.00     0.129 C 
HETATM    8  C12 UNL     1       2.103   8.366  26.323  1.00  0.00     0.034 C 
HETATM    9  C13 UNL     1       1.472   7.778  27.496  1.00  0.00    -0.011 C 
HETATM   10  C14 UNL     1       0.076   8.132  27.829  1.00  0.00     0.018 C 
HETATM   11  C19 UNL     1       1.532   6.251  27.343  1.00  0.00     0.012 C 
HETATM   12  C20 UNL     1       2.635   5.837  26.403  1.00  0.00     0.002 C 
HETATM   13  C21 UNL     1       2.382   6.277  24.982  1.00  0.00     0.010 C 
HETATM   14  C22 UNL     1       1.859   7.689  24.999  1.00  0.00    -0.033 C 
HETATM   15  C23 UNL     1       0.461   7.676  24.522  1.00  0.00     0.016 C 
HETATM   16  C24 UNL     1       2.665   8.626  24.099  1.00  0.00     0.001 C 
HETATM   17  C25 UNL     1       4.120   8.555  24.288  1.00  0.00     0.007 C 
HETATM   18  C26 UNL     1       4.812   9.744  24.815  1.00  0.00     0.011 C 
HETATM   19  C27 UNL     1       4.385  11.064  24.210  1.00  0.00    -0.032 C 
HETATM   20  C28 UNL     1       4.960  11.068  22.809  1.00  0.00     0.016 C 
ENDROOT
BRANCH   9  21
HETATM   21  C15 UNL     1       2.311   8.171  28.727  1.00  0.00     0.136 C 
HETATM   22  C16 UNL     1       1.881   7.500  29.964  1.00  0.00     0.069 C 
HETATM   23  C17 UNL     1       3.183   7.139  30.638  1.00  0.00     0.175 C 
HETATM   24  C18 UNL     1       4.207   7.349  29.584  1.00  0.00     0.285 C 
HETATM   25  O4  UNL     1       3.627   7.931  28.486  1.00  0.00    -0.353 OA
BRANCH  23  26
HETATM   26  O2  UNL     1       3.170   5.839  31.141  1.00  0.00    -0.391 OA
ATOM     27  H2  UNL     1       3.961   5.362  30.920  1.00  0.00     0.210 HD
ENDBRANCH  23  26
BRANCH  24  28
HETATM   28  O3  UNL     1       5.303   8.103  30.025  1.00  0.00    -0.369 OA
ATOM     29  H3  UNL     1       5.276   9.006  29.732  1.00  0.00     0.212 HD
ENDBRANCH  24  28
ENDBRANCH   9  21
BRANCH   7  30
HETATM   30  O1  UNL     1       0.636  10.274  26.438  1.00  0.00    -0.395 OA
ATOM     31  H1  UNL     1       0.020   9.552  26.469  1.00  0.00     0.210 HD
ENDBRANCH   7  30
BRANCH   1  32
HETATM   32  C3  UNL     1       5.952  12.877  25.189  1.00  0.00    -0.014 C 
HETATM   33  C4  UNL     1       7.094  12.584  24.273  1.00  0.00     0.010 C 
BRANCH  32  34
HETATM   34  C2  UNL     1       5.853  14.391  25.283  1.00  0.00     0.000 C 
HETATM   35  C1  UNL     1       6.634  14.896  26.509  1.00  0.00     0.005 C 
ENDBRANCH  32  34
ENDBRANCH   1  32
TORSDOF 6
ENDMDL
MODEL 4
REMARK VINA RESULT: -7.379967014      2.744      6.652
REMARK  6 active torsions:
REMARK  status: ('A' for Active; 'I' for Inactive)
REMARK    1  A    between atoms: C2_2  and  C3_3 
REMARK    2  A    between atoms: C3_3  and  C5_5 
REMARK    3  A    between atoms: C11_11  and  O1_12 
REMARK    4  A    between atoms: C13_15  and  C15_17 
REMARK    5  A    between atoms: C17_19  and  O2_20 
REMARK    6  A    between atoms: C18_22  and  O3_23 
ROOT
HETATM    1  C5  UNL     1       5.939   5.231  27.683  1.00  0.00    -0.002 C 
HETATM    2  C6  UNL     1       6.169   3.936  26.880  1.00  0.00     0.006 C 
HETATM    3  C7  UNL     1       5.731   4.488  25.513  1.00  0.00     0.011 C 
HETATM    4  C8  UNL     1       4.396   5.088  25.939  1.00  0.00    -0.030 C 
HETATM    5  C9  UNL     1       3.402   3.922  25.793  1.00  0.00     0.016 C 
HETATM    6  C10 UNL     1       4.009   6.109  24.966  1.00  0.00     0.028 C 
HETATM    7  C11 UNL     1       5.021   7.077  24.476  1.00  0.00     0.129 C 
HETATM    8  C12 UNL     1       4.282   8.376  24.418  1.00  0.00     0.034 C 
HETATM    9  C13 UNL     1       4.762   9.410  23.512  1.00  0.00    -0.011 C 
HETATM   10  C14 UNL     1       5.166   9.048  22.137  1.00  0.00     0.018 C 
HETATM   11  C19 UNL     1       3.662  10.477  23.398  1.00  0.00     0.012 C 
HETATM   12  C20 UNL     1       2.741  10.444  24.590  1.00  0.00     0.002 C 
HETATM   13  C21 UNL     1       1.928   9.175  24.659  1.00  0.00     0.010 C 
HETATM   14  C22 UNL     1       2.823   8.009  24.332  1.00  0.00    -0.033 C 
HETATM   15  C23 UNL     1       2.374   7.419  23.055  1.00  0.00     0.016 C 
HETATM   16  C24 UNL     1       2.786   6.920  25.404  1.00  0.00     0.001 C 
HETATM   17  C25 UNL     1       2.966   7.407  26.779  1.00  0.00     0.007 C 
HETATM   18  C26 UNL     1       4.173   6.991  27.514  1.00  0.00     0.011 C 
HETATM   19  C27 UNL     1       4.539   5.528  27.380  1.00  0.00    -0.032 C 
HETATM   20  C28 UNL     1       3.507   4.779  28.196  1.00  0.00     0.016 C 
ENDROOT
BRANCH   9  21
HETATM   21  C15 UNL     1       5.999  10.062  24.158  1.00  0.00     0.136 C 
HETATM   22  C16 UNL     1       7.270   9.476  23.703  1.00  0.00     0.069 C 
HETATM   23  C17 UNL     1       8.167  10.678  23.527  1.00  0.00     0.175 C 
HETATM   24  C18 UNL     1       7.239  11.835  23.589  1.00  0.00     0.285 C 
HETATM   25  O4  UNL     1       5.985  11.403  23.936  1.00  0.00    -0.353 OA
BRANCH  23  26
HETATM   26  O2  UNL     1       8.896  10.619  22.340  1.00  0.00    -0.391 OA
ATOM     27  H2  UNL     1       9.310  11.448  22.134  1.00  0.00     0.210 HD
ENDBRANCH  23  26
BRANCH  24  28
HETATM   28  O3  UNL     1       7.676  12.844  24.457  1.00  0.00    -0.369 OA
ATOM     29  H3  UNL     1       7.379  13.710  24.202  1.00  0.00     0.212 HD
ENDBRANCH  24  28
ENDBRANCH   9  21
BRANCH   7  30
HETATM   30  O1  UNL     1       5.520   6.693  23.218  1.00  0.00    -0.395 OA
ATOM     31  H1  UNL     1       6.447   6.888  23.146  1.00  0.00     0.210 HD
ENDBRANCH   7  30
BRANCH   1  32
HETATM   32  C3  UNL     1       6.543   5.113  28.968  1.00  0.00    -0.014 C 
HETATM   33  C4  UNL     1       7.432   3.962  29.307  1.00  0.00     0.010 C 
BRANCH  32  34
HETATM   34  C2  UNL     1       7.273   6.368  29.414  1.00  0.00     0.000 C 
HETATM   35  C1  UNL     1       6.322   7.276  30.215  1.00  0.00     0.005 C 
ENDBRANCH  32  34
ENDBRANCH   1  32
TORSDOF 6
ENDMDL
MODEL 5
REMARK VINA RESULT: -7.178097547      1.714      2.342
REMARK  6 active torsions:
REMARK  status: ('A' for Active; 'I' for Inactive)
REMARK    1  A    between atoms: C2_2  and  C3_3 
REMARK    2  A    between atoms: C3_3  and  C5_5 
REMARK    3  A    between atoms: C11_11  and  O1_12 
REMARK    4  A    between atoms: C13_15  and  C15_17 
REMARK    5  A    between atoms: C17_19  and  O2_20 
REMARK    6  A    between atoms: C18_22  and  O3_23 
ROOT
HETATM    1  C5  UNL     1       5.403  10.238  24.455  1.00  0.00    -0.002 C 
HETATM    2  C6  UNL     1       4.017  10.899  24.574  1.00  0.00     0.006 C 
HETATM    3  C7  UNL     1       3.322   9.737  25.303  1.00  0.00     0.011 C 
HETATM    4  C8  UNL     1       3.733   8.612  24.359  1.00  0.00    -0.030 C 
HETATM    5  C9  UNL     1       2.629   8.607  23.287  1.00  0.00     0.016 C 
HETATM    6  C10 UNL     1       3.642   7.341  25.078  1.00  0.00     0.028 C 
HETATM    7  C11 UNL     1       4.167   7.241  26.461  1.00  0.00     0.129 C 
HETATM    8  C12 UNL     1       4.834   5.904  26.501  1.00  0.00     0.034 C 
HETATM    9  C13 UNL     1       4.991   5.241  27.788  1.00  0.00    -0.011 C 
HETATM   10  C14 UNL     1       3.862   5.222  28.743  1.00  0.00     0.018 C 
HETATM   11  C19 UNL     1       5.384   3.781  27.517  1.00  0.00     0.012 C 
HETATM   12  C20 UNL     1       6.004   3.625  26.152  1.00  0.00     0.002 C 
HETATM   13  C21 UNL     1       5.023   3.889  25.036  1.00  0.00     0.010 C 
HETATM   14  C22 UNL     1       4.206   5.105  25.388  1.00  0.00    -0.033 C 
HETATM   15  C23 UNL     1       2.807   4.682  25.598  1.00  0.00     0.016 C 
HETATM   16  C24 UNL     1       4.228   6.166  24.289  1.00  0.00     0.001 C 
HETATM   17  C25 UNL     1       5.568   6.506  23.791  1.00  0.00     0.007 C 
HETATM   18  C26 UNL     1       6.075   7.869  24.029  1.00  0.00     0.011 C 
HETATM   19  C27 UNL     1       5.081   8.982  23.778  1.00  0.00    -0.032 C 
HETATM   20  C28 UNL     1       4.930   9.055  22.273  1.00  0.00     0.016 C 
ENDROOT
BRANCH   9  21
HETATM   21  C15 UNL     1       6.157   5.923  28.528  1.00  0.00     0.136 C 
HETATM   22  C16 UNL     1       5.732   6.668  29.724  1.00  0.00     0.069 C 
HETATM   23  C17 UNL     1       6.805   6.346  30.737  1.00  0.00     0.175 C 
HETATM   24  C18 UNL     1       7.548   5.214  30.130  1.00  0.00     0.285 C 
HETATM   25  O4  UNL     1       7.104   5.002  28.850  1.00  0.00    -0.353 OA
BRANCH  23  26
HETATM   26  O2  UNL     1       6.270   6.045  31.989  1.00  0.00    -0.391 OA
ATOM     27  H2  UNL     1       6.566   6.650  32.658  1.00  0.00     0.210 HD
ENDBRANCH  23  26
BRANCH  24  28
HETATM   28  O3  UNL     1       8.938   5.394  30.150  1.00  0.00    -0.369 OA
ATOM     29  H3  UNL     1       9.411   4.615  30.416  1.00  0.00     0.212 HD
ENDBRANCH  24  28
ENDBRANCH   9  21
BRANCH   7  30
HETATM   30  O1  UNL     1       3.127   7.345  27.404  1.00  0.00    -0.395 OA
ATOM     31  H1  UNL     1       3.470   7.530  28.270  1.00  0.00     0.210 HD
ENDBRANCH   7  30
BRANCH   1  32
HETATM   32  C3  UNL     1       6.368  11.211  24.065  1.00  0.00    -0.014 C 
HETATM   33  C4  UNL     1       6.313  12.611  24.581  1.00  0.00     0.010 C 
BRANCH  32  34
HETATM   34  C2  UNL     1       7.804  10.745  24.231  1.00  0.00     0.000 C 
HETATM   35  C1  UNL     1       8.438  10.486  22.852  1.00  0.00     0.005 C 
ENDBRANCH  32  34
ENDBRANCH   1  32
TORSDOF 6
ENDMDL
