MODEL 1
REMARK VINA RESULT: -6.705617497      0.000      0.000
REMARK  1 active torsions:
REMARK  status: ('A' for Active; 'I' for Inactive)
REMARK       I    between atoms: C1_4  and  N3_6 
REMARK    1  A    between atoms: N3_6  and  C2_8 
ROOT
HETATM    1  C2  UNL     1      11.829   7.734   6.695  1.00  0.00     0.037 C 
HETATM    2  C3  UNL     1      12.058   7.749   8.199  1.00  0.00     0.032 C 
HETATM    3  C4  UNL     1      10.627   7.830   8.760  1.00  0.00     0.013 C 
HETATM    4  C5  UNL     1       9.899   7.017   7.798  1.00  0.00    -0.029 A 
HETATM    5  C6  UNL     1      10.371   5.567   7.824  1.00  0.00     0.015 C 
HETATM    6  C7  UNL     1      10.622   5.686   6.348  1.00  0.00    -0.006 C 
HETATM    7  C8  UNL     1      11.958   6.328   6.134  1.00  0.00     0.036 C 
HETATM    8  C9  UNL     1       9.608   6.805   6.460  1.00  0.00     0.006 A 
HETATM    9  C10 UNL     1      10.366   7.951   6.608  1.00  0.00     0.028 A 
ENDROOT
BRANCH   1  10
HETATM   10  N3  UNL     1      12.651   8.654   5.979  1.00  0.00    -0.355 N 
HETATM   11  C1  UNL     1      13.724   9.389   6.539  1.00  0.00     0.182 C 
HETATM   12  N1  UNL     1      13.919   9.373   7.792  1.00  0.00    -0.374 N 
HETATM   13  N2  UNL     1      14.571  10.137   5.678  1.00  0.00    -0.064 NA
ATOM     14  H12 UNL     1      14.692   9.902   8.195  1.00  0.00     0.158 HD
ATOM     15  H11 UNL     1      13.311   8.835   8.409  1.00  0.00     0.158 HD
ATOM     16  H3  UNL     1      12.450   8.794   4.989  1.00  0.00     0.163 HD
ENDBRANCH   1  10
TORSDOF 1
ENDMDL
MODEL 2
REMARK VINA RESULT: -6.438217245      0.953      2.192
REMARK  1 active torsions:
REMARK  status: ('A' for Active; 'I' for Inactive)
REMARK       I    between atoms: C1_4  and  N3_6 
REMARK    1  A    between atoms: N3_6  and  C2_8 
ROOT
HETATM    1  C2  UNL     1      11.781   7.808   7.284  1.00  0.00     0.037 C 
HETATM    2  C3  UNL     1      11.985   7.352   5.847  1.00  0.00     0.032 C 
HETATM    3  C4  UNL     1      11.510   5.888   5.884  1.00  0.00     0.013 C 
HETATM    4  C5  UNL     1      10.411   5.971   6.833  1.00  0.00    -0.029 A 
HETATM    5  C6  UNL     1       9.285   6.855   6.306  1.00  0.00     0.015 C 
HETATM    6  C7  UNL     1       9.401   7.655   7.571  1.00  0.00    -0.006 C 
HETATM    7  C8  UNL     1      10.518   8.641   7.421  1.00  0.00     0.036 C 
HETATM    8  C9  UNL     1      10.012   6.373   8.098  1.00  0.00     0.006 A 
HETATM    9  C10 UNL     1      11.375   6.547   7.949  1.00  0.00     0.028 A 
ENDROOT
BRANCH   1  10
HETATM   10  N3  UNL     1      12.909   8.482   7.839  1.00  0.00    -0.355 N 
HETATM   11  C1  UNL     1      13.750   9.374   7.130  1.00  0.00     0.182 C 
HETATM   12  N1  UNL     1      13.623   9.506   5.875  1.00  0.00    -0.374 N 
HETATM   13  N2  UNL     1      14.731  10.113   7.845  1.00  0.00    -0.064 NA
ATOM     14  H12 UNL     1      14.229  10.148   5.365  1.00  0.00     0.158 HD
ATOM     15  H11 UNL     1      12.918   8.976   5.363  1.00  0.00     0.158 HD
ATOM     16  H3  UNL     1      13.126   8.310   8.820  1.00  0.00     0.163 HD
ENDBRANCH   1  10
TORSDOF 1
ENDMDL
MODEL 3
REMARK VINA RESULT: -6.435008139      1.450      2.668
REMARK  1 active torsions:
REMARK  status: ('A' for Active; 'I' for Inactive)
REMARK       I    between atoms: C1_4  and  N3_6 
REMARK    1  A    between atoms: N3_6  and  C2_8 
ROOT
HETATM    1  C2  UNL     1      11.199   7.899   8.197  1.00  0.00     0.037 C 
HETATM    2  C3  UNL     1      11.370   8.642   6.880  1.00  0.00     0.032 C 
HETATM    3  C4  UNL     1      11.900   7.545   5.938  1.00  0.00     0.013 C 
HETATM    4  C5  UNL     1      11.176   6.380   6.422  1.00  0.00    -0.029 A 
HETATM    5  C6  UNL     1       9.673   6.536   6.221  1.00  0.00     0.015 C 
HETATM    6  C7  UNL     1       9.509   6.270   7.690  1.00  0.00    -0.006 C 
HETATM    7  C8  UNL     1       9.743   7.543   8.442  1.00  0.00     0.036 C 
HETATM    8  C9  UNL     1      10.858   5.601   7.523  1.00  0.00     0.006 A 
HETATM    9  C10 UNL     1      11.776   6.573   7.876  1.00  0.00     0.028 A 
ENDROOT
BRANCH   1  10
HETATM   10  N3  UNL     1      11.762   8.580   9.317  1.00  0.00    -0.355 N 
HETATM   11  C1  UNL     1      12.935   9.371   9.280  1.00  0.00     0.182 C 
HETATM   12  N1  UNL     1      13.655   9.391   8.236  1.00  0.00    -0.374 N 
HETATM   13  N2  UNL     1      13.289  10.136  10.424  1.00  0.00    -0.064 NA
ATOM     14  H12 UNL     1      14.501   9.960   8.210  1.00  0.00     0.158 HD
ATOM     15  H11 UNL     1      13.401   8.842   7.415  1.00  0.00     0.158 HD
ATOM     16  H3  UNL     1      11.282   8.491  10.213  1.00  0.00     0.163 HD
ENDBRANCH   1  10
TORSDOF 1
ENDMDL
MODEL 4
REMARK VINA RESULT: -5.915446680      1.271      1.962
REMARK  1 active torsions:
REMARK  status: ('A' for Active; 'I' for Inactive)
REMARK       I    between atoms: C1_4  and  N3_6 
REMARK    1  A    between atoms: N3_6  and  C2_8 
ROOT
HETATM    1  C2  UNL     1      11.129   7.626   8.088  1.00  0.00     0.037 C 
HETATM    2  C3  UNL     1       9.693   7.544   8.586  1.00  0.00     0.032 C 
HETATM    3  C4  UNL     1       8.875   7.709   7.293  1.00  0.00     0.013 C 
HETATM    4  C5  UNL     1       9.715   7.009   6.334  1.00  0.00    -0.029 A 
HETATM    5  C6  UNL     1       9.831   5.526   6.673  1.00  0.00     0.015 C 
HETATM    6  C7  UNL     1      11.322   5.701   6.663  1.00  0.00    -0.006 C 
HETATM    7  C8  UNL     1      11.756   6.245   7.990  1.00  0.00     0.036 C 
HETATM    8  C9  UNL     1      10.984   6.891   5.788  1.00  0.00     0.006 A 
HETATM    9  C10 UNL     1      10.936   7.963   6.658  1.00  0.00     0.028 A 
ENDROOT
BRANCH   1  10
HETATM   10  N3  UNL     1      11.950   8.515   8.844  1.00  0.00    -0.355 N 
HETATM   11  C1  UNL     1      13.138   9.121   8.371  1.00  0.00     0.182 C 
HETATM   12  N1  UNL     1      13.629   8.772   7.254  1.00  0.00    -0.374 N 
HETATM   13  N2  UNL     1      13.765  10.122   9.161  1.00  0.00    -0.064 NA
ATOM     14  H12 UNL     1      14.485   9.209   6.913  1.00  0.00     0.158 HD
ATOM     15  H11 UNL     1      13.178   8.055   6.686  1.00  0.00     0.158 HD
ATOM     16  H3  UNL     1      11.659   8.729   9.798  1.00  0.00     0.163 HD
ENDBRANCH   1  10
TORSDOF 1
ENDMDL
MODEL 5
REMARK VINA RESULT: -5.665843204      8.235      9.284
REMARK  1 active torsions:
REMARK  status: ('A' for Active; 'I' for Inactive)
REMARK       I    between atoms: C1_4  and  N3_6 
REMARK    1  A    between atoms: N3_6  and  C2_8 
ROOT
HETATM    1  C2  UNL     1      15.562  14.729   2.569  1.00  0.00     0.037 C 
HETATM    2  C3  UNL     1      14.502  14.690   1.478  1.00  0.00     0.032 C 
HETATM    3  C4  UNL     1      13.247  14.228   2.240  1.00  0.00     0.013 C 
HETATM    4  C5  UNL     1      13.436  14.887   3.523  1.00  0.00    -0.029 A 
HETATM    5  C6  UNL     1      13.411  16.405   3.379  1.00  0.00     0.015 C 
HETATM    6  C7  UNL     1      14.751  16.432   4.056  1.00  0.00    -0.006 C 
HETATM    7  C8  UNL     1      15.814  16.152   3.039  1.00  0.00     0.036 C 
HETATM    8  C9  UNL     1      14.292  15.093   4.594  1.00  0.00     0.006 A 
HETATM    9  C10 UNL     1      14.830  14.162   3.725  1.00  0.00     0.028 A 
ENDROOT
BRANCH   1  10
HETATM   10  N3  UNL     1      16.781  14.080   2.210  1.00  0.00    -0.355 N 
HETATM   11  C1  UNL     1      16.876  12.773   1.673  1.00  0.00     0.182 C 
HETATM   12  N1  UNL     1      15.848  12.031   1.621  1.00  0.00    -0.374 N 
HETATM   13  N2  UNL     1      18.132  12.312   1.195  1.00  0.00    -0.064 NA
ATOM     14  H12 UNL     1      15.917  11.090   1.234  1.00  0.00     0.158 HD
ATOM     15  H11 UNL     1      14.947  12.362   1.963  1.00  0.00     0.158 HD
ATOM     16  H3  UNL     1      17.650  14.595   2.350  1.00  0.00     0.163 HD
ENDBRANCH   1  10
TORSDOF 1
ENDMDL
