MODEL 1
REMARK VINA RESULT: -4.665615094      0.000      0.000
REMARK  2 active torsions:
REMARK  status: ('A' for Active; 'I' for Inactive)
REMARK       I    between atoms: C1_2  and  N1_3 
REMARK       I    between atoms: C1_2  and  N2_8 
REMARK    1  A    between atoms: N1_3  and  C2_5 
REMARK    2  A    between atoms: N2_8  and  C5_10 
ROOT
HETATM    1  O1  UNL     1      17.031  13.053   2.734  1.00  0.00    -0.247 OA
HETATM    2  C1  UNL     1      16.718  13.539   1.628  1.00  0.00     0.318 C 
HETATM    3  N1  UNL     1      17.377  13.141   0.408  1.00  0.00    -0.338 N 
ATOM      4  H1  UNL     1      17.096  13.558  -0.479  1.00  0.00     0.164 HD
HETATM    5  N2  UNL     1      15.680  14.504   1.621  1.00  0.00    -0.311 N 
ATOM      6  H2  UNL     1      15.400  14.921   0.733  1.00  0.00     0.166 HD
ENDROOT
BRANCH   5   7
HETATM    7  C5  UNL     1      15.016  14.911   2.809  1.00  0.00     0.359 A 
HETATM    8  C6  UNL     1      13.633  14.367   3.044  1.00  0.00     0.278 A 
HETATM    9  C7  UNL     1      12.928  13.842   1.828  1.00  0.00     0.042 C 
HETATM   10  N3  UNL     1      13.883  15.763   2.824  1.00  0.00     0.122 N 
HETATM   11  C8  UNL     1      12.563  15.026   0.989  1.00  0.00     0.033 C 
HETATM   12  C9  UNL     1      13.183  16.193   1.671  1.00  0.00     0.276 C 
ENDBRANCH   5   7
BRANCH   3  13
HETATM   13  C2  UNL     1      18.427  12.161   0.433  1.00  0.00     0.086 A 
HETATM   14  C3  UNL     1      18.137  10.718   0.350  1.00  0.00     0.027 A 
HETATM   15  C4  UNL     1      18.679  11.379  -0.869  1.00  0.00     0.027 A 
ENDBRANCH   3  13
TORSDOF 2
ENDMDL
MODEL 2
REMARK VINA RESULT: -4.502765704      8.591      9.885
REMARK  2 active torsions:
REMARK  status: ('A' for Active; 'I' for Inactive)
REMARK       I    between atoms: C1_2  and  N1_3 
REMARK       I    between atoms: C1_2  and  N2_8 
REMARK    1  A    between atoms: N1_3  and  C2_5 
REMARK    2  A    between atoms: N2_8  and  C5_10 
ROOT
HETATM    1  O1  UNL     1      12.483   9.666   6.349  1.00  0.00    -0.247 OA
HETATM    2  C1  UNL     1      12.819   8.891   7.268  1.00  0.00     0.318 C 
HETATM    3  N1  UNL     1      13.644   9.328   8.368  1.00  0.00    -0.338 N 
ATOM      4  H1  UNL     1      13.900   8.668   9.102  1.00  0.00     0.164 HD
HETATM    5  N2  UNL     1      12.351   7.555   7.186  1.00  0.00    -0.311 N 
ATOM      6  H2  UNL     1      12.608   6.897   7.921  1.00  0.00     0.166 HD
ENDROOT
BRANCH   5   7
HETATM    7  C5  UNL     1      11.536   7.103   6.113  1.00  0.00     0.359 A 
HETATM    8  C6  UNL     1      10.052   7.312   6.243  1.00  0.00     0.278 A 
HETATM    9  C7  UNL     1       9.550   7.543   7.638  1.00  0.00     0.042 C 
HETATM   10  N3  UNL     1      10.645   6.005   6.212  1.00  0.00     0.122 N 
HETATM   11  C8  UNL     1       9.655   6.239   8.362  1.00  0.00     0.033 C 
HETATM   12  C9  UNL     1      10.341   5.320   7.414  1.00  0.00     0.276 C 
ENDBRANCH   5   7
BRANCH   3  13
HETATM   13  C2  UNL     1      14.109  10.685   8.436  1.00  0.00     0.086 A 
HETATM   14  C3  UNL     1      13.471  11.674   9.323  1.00  0.00     0.027 A 
HETATM   15  C4  UNL     1      14.787  11.122   9.748  1.00  0.00     0.027 A 
ENDBRANCH   3  13
TORSDOF 2
ENDMDL
MODEL 3
REMARK VINA RESULT: -4.402859356      1.081      1.821
REMARK  2 active torsions:
REMARK  status: ('A' for Active; 'I' for Inactive)
REMARK       I    between atoms: C1_2  and  N1_3 
REMARK       I    between atoms: C1_2  and  N2_8 
REMARK    1  A    between atoms: N1_3  and  C2_5 
REMARK    2  A    between atoms: N2_8  and  C5_10 
ROOT
HETATM    1  O1  UNL     1      15.891  12.110   2.274  1.00  0.00    -0.247 OA
HETATM    2  C1  UNL     1      16.031  13.072   1.492  1.00  0.00     0.318 C 
HETATM    3  N1  UNL     1      17.206  13.217   0.667  1.00  0.00    -0.338 N 
ATOM      4  H1  UNL     1      17.288  14.016   0.038  1.00  0.00     0.164 HD
HETATM    5  N2  UNL     1      14.979  14.022   1.446  1.00  0.00    -0.311 N 
ATOM      6  H2  UNL     1      15.063  14.820   0.817  1.00  0.00     0.166 HD
ENDROOT
BRANCH   5   7
HETATM    7  C5  UNL     1      13.813  13.899   2.248  1.00  0.00     0.359 A 
HETATM    8  C6  UNL     1      13.086  15.168   2.600  1.00  0.00     0.278 A 
HETATM    9  C7  UNL     1      13.886  16.431   2.472  1.00  0.00     0.042 C 
HETATM   10  N3  UNL     1      13.731  14.351   3.589  1.00  0.00     0.122 N 
HETATM   11  C8  UNL     1      14.885  16.431   3.585  1.00  0.00     0.033 C 
HETATM   12  C9  UNL     1      14.731  15.107   4.247  1.00  0.00     0.276 C 
ENDBRANCH   5   7
BRANCH   3  13
HETATM   13  C2  UNL     1      18.261  12.245   0.725  1.00  0.00     0.086 A 
HETATM   14  C3  UNL     1      18.021  10.826   0.409  1.00  0.00     0.027 A 
HETATM   15  C4  UNL     1      18.727  11.644  -0.615  1.00  0.00     0.027 A 
ENDBRANCH   3  13
TORSDOF 2
ENDMDL
MODEL 4
REMARK VINA RESULT: -4.348842866      8.840     10.076
REMARK  2 active torsions:
REMARK  status: ('A' for Active; 'I' for Inactive)
REMARK       I    between atoms: C1_2  and  N1_3 
REMARK       I    between atoms: C1_2  and  N2_8 
REMARK    1  A    between atoms: N1_3  and  C2_5 
REMARK    2  A    between atoms: N2_8  and  C5_10 
ROOT
HETATM    1  O1  UNL     1      11.643   9.736   7.439  1.00  0.00    -0.247 OA
HETATM    2  C1  UNL     1      12.123   8.944   8.275  1.00  0.00     0.318 C 
HETATM    3  N1  UNL     1      13.428   9.150   8.856  1.00  0.00    -0.338 N 
ATOM      4  H1  UNL     1      13.790   8.483   9.537  1.00  0.00     0.164 HD
HETATM    5  N2  UNL     1      11.327   7.827   8.635  1.00  0.00    -0.311 N 
ATOM      6  H2  UNL     1      11.691   7.161   9.316  1.00  0.00     0.166 HD
ENDROOT
BRANCH   5   7
HETATM    7  C5  UNL     1      10.040   7.604   8.077  1.00  0.00     0.359 A 
HETATM    8  C6  UNL     1       9.679   6.186   7.728  1.00  0.00     0.278 A 
HETATM    9  C7  UNL     1      10.836   5.243   7.572  1.00  0.00     0.042 C 
HETATM   10  N3  UNL     1       9.823   7.209   6.733  1.00  0.00     0.122 N 
HETATM   11  C8  UNL     1      11.533   5.614   6.302  1.00  0.00     0.033 C 
HETATM   12  C9  UNL     1      10.848   6.845   5.825  1.00  0.00     0.276 C 
ENDBRANCH   5   7
BRANCH   3  13
HETATM   13  C2  UNL     1      14.221  10.287   8.481  1.00  0.00     0.086 A 
HETATM   14  C3  UNL     1      14.001  11.613   9.086  1.00  0.00     0.027 A 
HETATM   15  C4  UNL     1      15.188  10.841   9.544  1.00  0.00     0.027 A 
ENDBRANCH   3  13
TORSDOF 2
ENDMDL
MODEL 5
REMARK VINA RESULT: -3.980864269      3.096      5.983
REMARK  2 active torsions:
REMARK  status: ('A' for Active; 'I' for Inactive)
REMARK       I    between atoms: C1_2  and  N1_3 
REMARK       I    between atoms: C1_2  and  N2_8 
REMARK    1  A    between atoms: N1_3  and  C2_5 
REMARK    2  A    between atoms: N2_8  and  C5_10 
ROOT
HETATM    1  O1  UNL     1      11.862  16.432   2.784  1.00  0.00    -0.247 OA
HETATM    2  C1  UNL     1      11.935  15.325   2.213  1.00  0.00     0.318 C 
HETATM    3  N1  UNL     1      11.042  14.961   1.140  1.00  0.00    -0.338 N 
ATOM      4  H1  UNL     1      11.129  14.048   0.695  1.00  0.00     0.164 HD
HETATM    5  N2  UNL     1      12.941  14.433   2.665  1.00  0.00    -0.311 N 
ATOM      6  H2  UNL     1      13.028  13.520   2.218  1.00  0.00     0.166 HD
ENDROOT
BRANCH   5   7
HETATM    7  C5  UNL     1      13.833  14.770   3.718  1.00  0.00     0.359 A 
HETATM    8  C6  UNL     1      15.266  15.036   3.346  1.00  0.00     0.278 A 
HETATM    9  C7  UNL     1      15.704  14.487   2.020  1.00  0.00     0.042 C 
HETATM   10  N3  UNL     1      14.878  13.922   4.164  1.00  0.00     0.122 N 
HETATM   11  C8  UNL     1      15.785  13.001   2.167  1.00  0.00     0.033 C 
HETATM   12  C9  UNL     1      15.262  12.715   3.531  1.00  0.00     0.276 C 
ENDBRANCH   5   7
BRANCH   3  13
HETATM   13  C2  UNL     1      10.029  15.877   0.694  1.00  0.00     0.086 A 
HETATM   14  C3  UNL     1      10.029  16.419  -0.676  1.00  0.00     0.027 A 
HETATM   15  C4  UNL     1       9.036  15.355  -0.361  1.00  0.00     0.027 A 
ENDBRANCH   3  13
TORSDOF 2
ENDMDL
