MODEL 1
REMARK VINA RESULT: -8.635533064      0.000      0.000
REMARK  4 active torsions:
REMARK  status: ('A' for Active; 'I' for Inactive)
REMARK    1  A    between atoms: N1_2  and  C2_4 
REMARK    2  A    between atoms: C3_7  and  O1_8 
REMARK    3  A    between atoms: C4_10  and  C5_11 
REMARK    4  A    between atoms: C5_11  and  C6_12 
ROOT
HETATM    1  C5  UNL     1      -9.990  69.992   3.644  1.00  0.00     0.088 C 
ENDROOT
BRANCH   1   2
HETATM    2  C4  UNL     1     -10.106  70.265   2.197  1.00  0.00    -0.002 A 
HETATM    3  C3  UNL     1      -9.782  71.475   1.630  1.00  0.00     0.148 A 
HETATM    4  N2  UNL     1      -9.923  71.628   0.302  1.00  0.00    -0.323 N 
HETATM    5  C2  UNL     1     -10.375  70.634  -0.506  1.00  0.00     0.108 A 
ATOM      6  H2  UNL     1      -9.682  72.526  -0.116  1.00  0.00     0.169 HD
HETATM    7  C17 UNL     1     -10.716  69.395   0.018  1.00  0.00    -0.018 A 
HETATM    8  C16 UNL     1     -10.565  69.251   1.382  1.00  0.00     0.022 A 
HETATM    9  C18 UNL     1     -11.203  68.333  -0.882  1.00  0.00     0.052 C 
BRANCH   3  10
HETATM   10  O1  UNL     1      -9.312  72.528   2.421  1.00  0.00    -0.346 OA
ATOM     11  H1  UNL     1      -9.898  72.990   3.008  1.00  0.00     0.219 HD
ENDBRANCH   3  10
BRANCH   5  12
HETATM   12  N1  UNL     1     -10.505  70.802  -1.785  1.00  0.00    -0.380 N 
HETATM   13  C1  UNL     1     -10.905  72.103  -2.278  1.00  0.00     0.147 C 
ATOM     14  H1  UNL     1     -10.329  70.032  -2.431  1.00  0.00     0.160 HD
ENDBRANCH   5  12
ENDBRANCH   1   2
BRANCH   1  15
HETATM   15  C6  UNL     1     -11.192  70.322   4.419  1.00  0.00     0.027 A 
HETATM   16  C7  UNL     1     -11.993  69.445   4.997  1.00  0.00     0.004 A 
HETATM   17  C8  UNL     1     -11.945  68.045   5.041  1.00  0.00     0.021 A 
HETATM   18  C14 UNL     1     -13.018  70.111   5.632  1.00  0.00     0.052 A 
HETATM   19  C9  UNL     1     -12.888  67.292   5.702  1.00  0.00    -0.061 A 
HETATM   20  C10 UNL     1     -12.812  65.796   5.733  1.00  0.00     0.048 C 
HETATM   21  C11 UNL     1     -13.907  67.973   6.332  1.00  0.00     0.015 A 
HETATM   22  C12 UNL     1     -13.963  69.348   6.294  1.00  0.00    -0.034 A 
HETATM   23  C13 UNL     1     -15.084  70.036   6.992  1.00  0.00     0.050 C 
HETATM   24  N3  UNL     1     -12.917  71.397   5.490  1.00  0.00    -0.322 N 
HETATM   25  C15 UNL     1     -11.746  71.631   4.707  1.00  0.00     0.253 A 
ATOM     26  H3  UNL     1     -13.550  72.103   5.865  1.00  0.00     0.169 HD
HETATM   27  O2  UNL     1     -11.239  72.711   4.311  1.00  0.00    -0.268 OA
ENDBRANCH   1  15
TORSDOF 4
ENDMDL
MODEL 2
REMARK VINA RESULT: -8.217956565      1.629      2.514
REMARK  4 active torsions:
REMARK  status: ('A' for Active; 'I' for Inactive)
REMARK    1  A    between atoms: N1_2  and  C2_4 
REMARK    2  A    between atoms: C3_7  and  O1_8 
REMARK    3  A    between atoms: C4_10  and  C5_11 
REMARK    4  A    between atoms: C5_11  and  C6_12 
ROOT
HETATM    1  C5  UNL     1     -10.082  71.655   2.979  1.00  0.00     0.088 C 
ENDROOT
BRANCH   1   2
HETATM    2  C4  UNL     1     -10.091  71.443   1.518  1.00  0.00    -0.002 A 
HETATM    3  C3  UNL     1      -9.634  72.378   0.619  1.00  0.00     0.148 A 
HETATM    4  N2  UNL     1      -9.685  72.095  -0.694  1.00  0.00    -0.323 N 
HETATM    5  C2  UNL     1     -10.172  70.920  -1.172  1.00  0.00     0.108 A 
ATOM      6  H2  UNL     1      -9.345  72.790  -1.358  1.00  0.00     0.169 HD
HETATM    7  C17 UNL     1     -10.646  69.945  -0.305  1.00  0.00    -0.018 A 
HETATM    8  C16 UNL     1     -10.587  70.248   1.039  1.00  0.00     0.022 A 
HETATM    9  C18 UNL     1     -11.168  68.679  -0.851  1.00  0.00     0.052 C 
BRANCH   3  10
HETATM   10  O1  UNL     1      -9.123  73.601   1.063  1.00  0.00    -0.346 OA
ATOM     11  H1  UNL     1      -9.700  74.264   1.423  1.00  0.00     0.219 HD
ENDBRANCH   3  10
BRANCH   5  12
HETATM   12  N1  UNL     1     -10.213  70.666  -2.443  1.00  0.00    -0.380 N 
HETATM   13  C1  UNL     1     -11.199  71.348  -3.255  1.00  0.00     0.147 C 
ATOM     14  H1  UNL     1      -9.565  70.000  -2.861  1.00  0.00     0.160 HD
ENDBRANCH   5  12
ENDBRANCH   1   2
BRANCH   1  15
HETATM   15  C6  UNL     1     -10.524  70.493   3.760  1.00  0.00     0.027 A 
HETATM   16  C7  UNL     1     -11.772  70.242   4.117  1.00  0.00     0.004 A 
HETATM   17  C8  UNL     1     -12.956  70.952   3.880  1.00  0.00     0.021 A 
HETATM   18  C14 UNL     1     -11.813  69.072   4.842  1.00  0.00     0.052 A 
HETATM   19  C9  UNL     1     -14.180  70.526   4.345  1.00  0.00    -0.061 A 
HETATM   20  C10 UNL     1     -15.431  71.306   4.077  1.00  0.00     0.048 C 
HETATM   21  C11 UNL     1     -14.205  69.354   5.067  1.00  0.00     0.015 A 
HETATM   22  C12 UNL     1     -13.046  68.650   5.306  1.00  0.00    -0.034 A 
HETATM   23  C13 UNL     1     -13.127  67.388   6.092  1.00  0.00     0.050 C 
HETATM   24  N3  UNL     1     -10.633  68.545   4.973  1.00  0.00    -0.322 N 
HETATM   25  C15 UNL     1      -9.722  69.409   4.294  1.00  0.00     0.253 A 
ATOM     26  H3  UNL     1     -10.403  67.681   5.465  1.00  0.00     0.169 HD
HETATM   27  O2  UNL     1      -8.477  69.318   4.147  1.00  0.00    -0.268 OA
ENDBRANCH   1  15
TORSDOF 4
ENDMDL
MODEL 3
REMARK VINA RESULT: -8.207003912      4.660      6.074
REMARK  4 active torsions:
REMARK  status: ('A' for Active; 'I' for Inactive)
REMARK    1  A    between atoms: N1_2  and  C2_4 
REMARK    2  A    between atoms: C3_7  and  O1_8 
REMARK    3  A    between atoms: C4_10  and  C5_11 
REMARK    4  A    between atoms: C5_11  and  C6_12 
ROOT
HETATM    1  C5  UNL     1      -9.279  73.436   1.391  1.00  0.00     0.088 C 
ENDROOT
BRANCH   1   2
HETATM    2  C4  UNL     1      -9.674  72.588   0.248  1.00  0.00    -0.002 A 
HETATM    3  C3  UNL     1      -9.758  73.055  -1.043  1.00  0.00     0.148 A 
HETATM    4  N2  UNL     1     -10.129  72.206  -2.017  1.00  0.00    -0.323 N 
HETATM    5  C2  UNL     1     -10.426  70.902  -1.778  1.00  0.00     0.108 A 
ATOM      6  H2  UNL     1     -10.190  72.555  -2.973  1.00  0.00     0.169 HD
HETATM    7  C17 UNL     1     -10.357  70.383  -0.493  1.00  0.00    -0.018 A 
HETATM    8  C16 UNL     1      -9.974  71.264   0.497  1.00  0.00     0.022 A 
HETATM    9  C18 UNL     1     -10.684  68.964  -0.263  1.00  0.00     0.052 C 
BRANCH   3  10
HETATM   10  O1  UNL     1      -9.462  74.389  -1.337  1.00  0.00    -0.346 OA
ATOM     11  H1  UNL     1      -9.360  75.026  -0.640  1.00  0.00     0.219 HD
ENDBRANCH   3  10
BRANCH   5  12
HETATM   12  N1  UNL     1     -10.783  70.099  -2.732  1.00  0.00    -0.380 N 
HETATM   13  C1  UNL     1     -11.236  70.666  -3.984  1.00  0.00     0.147 C 
ATOM     14  H1  UNL     1     -10.745  69.088  -2.602  1.00  0.00     0.160 HD
ENDBRANCH   5  12
ENDBRANCH   1   2
BRANCH   1  15
HETATM   15  C6  UNL     1      -7.838  73.437   1.672  1.00  0.00     0.027 A 
HETATM   16  C7  UNL     1      -7.267  72.900   2.736  1.00  0.00     0.004 A 
HETATM   17  C8  UNL     1      -7.817  72.223   3.832  1.00  0.00     0.021 A 
HETATM   18  C14 UNL     1      -5.905  73.093   2.669  1.00  0.00     0.052 A 
HETATM   19  C9  UNL     1      -7.047  71.732   4.862  1.00  0.00    -0.061 A 
HETATM   20  C10 UNL     1      -7.662  71.011   6.022  1.00  0.00     0.048 C 
HETATM   21  C11 UNL     1      -5.686  71.932   4.780  1.00  0.00     0.015 A 
HETATM   22  C12 UNL     1      -5.137  72.597   3.707  1.00  0.00    -0.034 A 
HETATM   23  C13 UNL     1      -3.661  72.788   3.666  1.00  0.00     0.050 C 
HETATM   24  N3  UNL     1      -5.562  73.740   1.596  1.00  0.00    -0.322 N 
HETATM   25  C15 UNL     1      -6.767  74.008   0.879  1.00  0.00     0.253 A 
ATOM     26  H3  UNL     1      -4.616  74.004   1.320  1.00  0.00     0.169 HD
HETATM   27  O2  UNL     1      -6.943  74.605  -0.213  1.00  0.00    -0.268 OA
ENDBRANCH   1  15
TORSDOF 4
ENDMDL
MODEL 4
REMARK VINA RESULT: -8.009249138      1.835      2.705
REMARK  4 active torsions:
REMARK  status: ('A' for Active; 'I' for Inactive)
REMARK    1  A    between atoms: N1_2  and  C2_4 
REMARK    2  A    between atoms: C3_7  and  O1_8 
REMARK    3  A    between atoms: C4_10  and  C5_11 
REMARK    4  A    between atoms: C5_11  and  C6_12 
ROOT
HETATM    1  C5  UNL     1     -11.568  71.168   4.528  1.00  0.00     0.088 C 
ENDROOT
BRANCH   1   2
HETATM    2  C4  UNL     1     -10.997  71.366   3.180  1.00  0.00    -0.002 A 
HETATM    3  C3  UNL     1      -9.857  72.098   2.945  1.00  0.00     0.148 A 
HETATM    4  N2  UNL     1      -9.416  72.224   1.681  1.00  0.00    -0.323 N 
HETATM    5  C2  UNL     1     -10.052  71.657   0.624  1.00  0.00     0.108 A 
ATOM      6  H2  UNL     1      -8.570  72.767   1.510  1.00  0.00     0.169 HD
HETATM    7  C17 UNL     1     -11.206  70.910   0.809  1.00  0.00    -0.018 A 
HETATM    8  C16 UNL     1     -11.648  70.788   2.110  1.00  0.00     0.022 A 
HETATM    9  C18 UNL     1     -11.876  70.304  -0.357  1.00  0.00     0.052 C 
BRANCH   3  10
HETATM   10  O1  UNL     1      -9.168  72.700   4.002  1.00  0.00    -0.346 OA
ATOM     11  H1  UNL     1      -8.509  72.217   4.487  1.00  0.00     0.219 HD
ENDBRANCH   3  10
BRANCH   5  12
HETATM   12  N1  UNL     1      -9.610  71.790  -0.588  1.00  0.00    -0.380 N 
HETATM   13  C1  UNL     1      -9.507  73.122  -1.146  1.00  0.00     0.147 C 
ATOM     14  H1  UNL     1      -9.342  70.974  -1.137  1.00  0.00     0.160 HD
ENDBRANCH   5  12
ENDBRANCH   1   2
BRANCH   1  15
HETATM   15  C6  UNL     1     -11.875  69.770   4.854  1.00  0.00     0.027 A 
HETATM   16  C7  UNL     1     -13.081  69.290   5.099  1.00  0.00     0.004 A 
HETATM   17  C8  UNL     1     -14.333  69.918   5.121  1.00  0.00     0.021 A 
HETATM   18  C14 UNL     1     -12.990  67.943   5.370  1.00  0.00     0.052 A 
HETATM   19  C9  UNL     1     -15.497  69.239   5.406  1.00  0.00    -0.061 A 
HETATM   20  C10 UNL     1     -16.823  69.936   5.423  1.00  0.00     0.048 C 
HETATM   21  C11 UNL     1     -15.389  67.892   5.674  1.00  0.00     0.015 A 
HETATM   22  C12 UNL     1     -14.163  67.267   5.655  1.00  0.00    -0.034 A 
HETATM   23  C13 UNL     1     -14.101  65.809   5.952  1.00  0.00     0.050 C 
HETATM   24  N3  UNL     1     -11.763  67.522   5.312  1.00  0.00    -0.322 N 
HETATM   25  C15 UNL     1     -10.958  68.653   4.979  1.00  0.00     0.253 A 
ATOM     26  H3  UNL     1     -11.438  66.568   5.473  1.00  0.00     0.169 HD
HETATM   27  O2  UNL     1      -9.716  68.742   4.812  1.00  0.00    -0.268 OA
ENDBRANCH   1  15
TORSDOF 4
ENDMDL
MODEL 5
REMARK VINA RESULT: -7.951238387      1.687      6.190
REMARK  4 active torsions:
REMARK  status: ('A' for Active; 'I' for Inactive)
REMARK    1  A    between atoms: N1_2  and  C2_4 
REMARK    2  A    between atoms: C3_7  and  O1_8 
REMARK    3  A    between atoms: C4_10  and  C5_11 
REMARK    4  A    between atoms: C5_11  and  C6_12 
ROOT
HETATM    1  C5  UNL     1      -9.623  69.519   4.467  1.00  0.00     0.088 C 
ENDROOT
BRANCH   1   2
HETATM    2  C4  UNL     1     -10.957  69.482   5.100  1.00  0.00    -0.002 A 
HETATM    3  C3  UNL     1     -11.504  70.554   5.766  1.00  0.00     0.148 A 
HETATM    4  N2  UNL     1     -12.726  70.423   6.311  1.00  0.00    -0.323 N 
HETATM    5  C2  UNL     1     -13.444  69.273   6.232  1.00  0.00     0.108 A 
ATOM      6  H2  UNL     1     -13.129  71.219   6.804  1.00  0.00     0.169 HD
HETATM    7  C17 UNL     1     -12.935  68.164   5.572  1.00  0.00    -0.018 A 
HETATM    8  C16 UNL     1     -11.681  68.311   5.016  1.00  0.00     0.022 A 
HETATM    9  C18 UNL     1     -13.737  66.928   5.501  1.00  0.00     0.052 C 
BRANCH   3  10
HETATM   10  O1  UNL     1     -10.803  71.758   5.872  1.00  0.00    -0.346 OA
ATOM     11  H1  UNL     1     -11.253  72.589   5.780  1.00  0.00     0.219 HD
ENDBRANCH   3  10
BRANCH   5  12
HETATM   12  N1  UNL     1     -14.621  69.167   6.766  1.00  0.00    -0.380 N 
HETATM   13  C1  UNL     1     -15.372  70.374   7.037  1.00  0.00     0.147 C 
ATOM     14  H1  UNL     1     -15.009  68.251   6.990  1.00  0.00     0.160 HD
ENDBRANCH   5  12
ENDBRANCH   1   2
BRANCH   1  15
HETATM   15  C6  UNL     1      -9.414  70.656   3.563  1.00  0.00     0.027 A 
HETATM   16  C7  UNL     1      -9.816  70.717   2.305  1.00  0.00     0.004 A 
HETATM   17  C8  UNL     1     -10.506  69.788   1.515  1.00  0.00     0.021 A 
HETATM   18  C14 UNL     1      -9.446  71.928   1.765  1.00  0.00     0.052 A 
HETATM   19  C9  UNL     1     -10.838  70.034   0.202  1.00  0.00    -0.061 A 
HETATM   20  C10 UNL     1     -11.575  69.023  -0.621  1.00  0.00     0.048 C 
HETATM   21  C11 UNL     1     -10.461  71.251  -0.324  1.00  0.00     0.015 A 
HETATM   22  C12 UNL     1      -9.782  72.169   0.445  1.00  0.00    -0.034 A 
HETATM   23  C13 UNL     1      -9.398  73.470  -0.171  1.00  0.00     0.050 C 
HETATM   24  N3  UNL     1      -8.814  72.667   2.626  1.00  0.00    -0.322 N 
HETATM   25  C15 UNL     1      -8.746  71.914   3.837  1.00  0.00     0.253 A 
ATOM     26  H3  UNL     1      -8.440  73.602   2.468  1.00  0.00     0.169 HD
HETATM   27  O2  UNL     1      -8.232  72.209   4.946  1.00  0.00    -0.268 OA
ENDBRANCH   1  15
TORSDOF 4
ENDMDL
