MODEL 1
REMARK VINA RESULT: -7.999742202      0.000      0.000
REMARK  2 active torsions:
REMARK  status: ('A' for Active; 'I' for Inactive)
REMARK    1  A    between atoms: C1_2  and  C2_3 
REMARK       I    between atoms: C1_2  and  N3_13 
REMARK    2  A    between atoms: C2_3  and  N1_4 
ROOT
HETATM    1  O1  UNL     1     -12.471  70.690   1.037  1.00  0.00    -0.272 OA
HETATM    2  C1  UNL     1     -11.260  71.018   1.094  1.00  0.00     0.237 C 
HETATM    3  N3  UNL     1     -10.684  71.342   2.329  1.00  0.00    -0.351 N 
HETATM    4  C8  UNL     1     -11.438  71.316   3.567  1.00  0.00     0.126 C 
HETATM    5  C9  UNL     1     -10.612  70.652   4.650  1.00  0.00     0.029 C 
HETATM    6  C10 UNL     1      -9.391  71.472   4.912  1.00  0.00    -0.034 C 
HETATM    7  C11 UNL     1      -9.680  72.428   6.077  1.00  0.00     0.037 C 
HETATM    8  C12 UNL     1      -8.342  72.705   6.734  1.00  0.00     0.233 C 
HETATM    9  N4  UNL     1      -7.982  71.523   7.494  1.00  0.00    -0.075 N 
ATOM     10  H41 UNL     1      -8.390  71.541   8.428  1.00  0.00     0.277 HD
ATOM     11  H42 UNL     1      -6.995  71.532   7.754  1.00  0.00     0.277 HD
HETATM   12  C13 UNL     1      -8.335  70.310   6.782  1.00  0.00     0.233 C 
HETATM   13  C14 UNL     1      -8.221  70.587   5.310  1.00  0.00     0.037 C 
HETATM   14  C15 UNL     1      -8.951  72.313   3.757  1.00  0.00     0.029 C 
HETATM   15  C16 UNL     1      -9.290  71.723   2.413  1.00  0.00     0.126 C 
ENDROOT
BRANCH   2  16
HETATM   16  C2  UNL     1     -10.465  71.054  -0.152  1.00  0.00     0.230 C 
BRANCH  16  17
HETATM   17  N1  UNL     1     -11.198  70.569  -1.304  1.00  0.00    -0.326 N 
HETATM   18  C3  UNL     1     -12.032  71.548  -1.951  1.00  0.00     0.128 C 
HETATM   19  C4  UNL     1     -12.568  71.158  -3.280  1.00  0.00     0.022 C 
HETATM   20  C5  UNL     1     -11.571  70.459  -4.157  1.00  0.00     0.021 C 
HETATM   21  C6  UNL     1     -11.735  68.957  -4.131  1.00  0.00     0.124 C 
HETATM   22  N2  UNL     1     -11.482  68.512  -2.777  1.00  0.00    -0.343 N 
HETATM   23  C7  UNL     1     -11.002  69.208  -1.635  1.00  0.00     0.318 C 
ATOM     24  H2  UNL     1     -11.684  67.525  -2.614  1.00  0.00     0.164 HD
HETATM   25  O2  UNL     1     -10.305  68.515  -0.805  1.00  0.00    -0.247 OA
ENDBRANCH  16  17
ENDBRANCH   2  16
TORSDOF 2
ENDMDL
MODEL 2
REMARK VINA RESULT: -7.956060844      4.971      8.374
REMARK  2 active torsions:
REMARK  status: ('A' for Active; 'I' for Inactive)
REMARK    1  A    between atoms: C1_2  and  C2_3 
REMARK       I    between atoms: C1_2  and  N3_13 
REMARK    2  A    between atoms: C2_3  and  N1_4 
ROOT
HETATM    1  O1  UNL     1     -12.676  70.443   6.773  1.00  0.00    -0.272 OA
HETATM    2  C1  UNL     1     -13.063  70.549   5.583  1.00  0.00     0.237 C 
HETATM    3  N3  UNL     1     -14.434  70.575   5.297  1.00  0.00    -0.351 N 
HETATM    4  C8  UNL     1     -15.445  70.481   6.332  1.00  0.00     0.126 C 
HETATM    5  C9  UNL     1     -16.537  71.498   6.069  1.00  0.00     0.029 C 
HETATM    6  C10 UNL     1     -17.216  71.171   4.779  1.00  0.00    -0.034 C 
HETATM    7  C11 UNL     1     -18.448  70.306   5.078  1.00  0.00     0.037 C 
HETATM    8  C12 UNL     1     -19.427  70.568   3.950  1.00  0.00     0.233 C 
HETATM    9  N4  UNL     1     -20.007  71.878   4.178  1.00  0.00    -0.075 N 
ATOM     10  H41 UNL     1     -20.813  71.826   4.801  1.00  0.00     0.277 HD
ATOM     11  H42 UNL     1     -20.477  72.230   3.344  1.00  0.00     0.277 HD
HETATM   12  C13 UNL     1     -19.015  72.816   4.668  1.00  0.00     0.233 C 
HETATM   13  C14 UNL     1     -17.687  72.434   4.080  1.00  0.00     0.037 C 
HETATM   14  C15 UNL     1     -16.371  70.405   3.812  1.00  0.00     0.029 C 
HETATM   15  C16 UNL     1     -14.898  70.697   3.932  1.00  0.00     0.126 C 
ENDROOT
BRANCH   2  16
HETATM   16  C2  UNL     1     -12.056  70.647   4.505  1.00  0.00     0.230 C 
BRANCH  16  17
HETATM   17  N1  UNL     1     -10.732  70.972   4.998  1.00  0.00    -0.326 N 
HETATM   18  C3  UNL     1     -10.512  72.368   5.274  1.00  0.00     0.128 C 
HETATM   19  C4  UNL     1      -9.276  72.684   6.034  1.00  0.00     0.022 C 
HETATM   20  C5  UNL     1      -8.996  71.737   7.164  1.00  0.00     0.021 C 
HETATM   21  C6  UNL     1      -7.980  70.682   6.792  1.00  0.00     0.124 C 
HETATM   22  N2  UNL     1      -8.542  69.892   5.717  1.00  0.00    -0.343 N 
HETATM   23  C7  UNL     1      -9.839  69.884   5.138  1.00  0.00     0.318 C 
ATOM     24  H2  UNL     1      -7.891  69.225   5.302  1.00  0.00     0.164 HD
HETATM   25  O2  UNL     1     -10.248  68.750   4.687  1.00  0.00    -0.247 OA
ENDBRANCH  16  17
ENDBRANCH   2  16
TORSDOF 2
ENDMDL
MODEL 3
REMARK VINA RESULT: -7.939081711      4.498      7.726
REMARK  2 active torsions:
REMARK  status: ('A' for Active; 'I' for Inactive)
REMARK    1  A    between atoms: C1_2  and  C2_3 
REMARK       I    between atoms: C1_2  and  N3_13 
REMARK    2  A    between atoms: C2_3  and  N1_4 
ROOT
HETATM    1  O1  UNL     1     -11.712  68.661   5.466  1.00  0.00    -0.272 OA
HETATM    2  C1  UNL     1     -12.216  69.556   4.742  1.00  0.00     0.237 C 
HETATM    3  N3  UNL     1     -13.591  69.810   4.806  1.00  0.00    -0.351 N 
HETATM    4  C8  UNL     1     -14.477  69.074   5.686  1.00  0.00     0.126 C 
HETATM    5  C9  UNL     1     -15.429  70.035   6.368  1.00  0.00     0.029 C 
HETATM    6  C10 UNL     1     -16.295  70.686   5.340  1.00  0.00    -0.034 C 
HETATM    7  C11 UNL     1     -17.598  69.886   5.217  1.00  0.00     0.037 C 
HETATM    8  C12 UNL     1     -18.653  70.872   4.751  1.00  0.00     0.233 C 
HETATM    9  N4  UNL     1     -19.001  71.700   5.890  1.00  0.00    -0.075 N 
ATOM     10  H41 UNL     1     -19.727  71.266   6.459  1.00  0.00     0.277 HD
ATOM     11  H42 UNL     1     -19.507  72.538   5.602  1.00  0.00     0.277 HD
HETATM   12  C13 UNL     1     -17.830  72.030   6.680  1.00  0.00     0.233 C 
HETATM   13  C14 UNL     1     -16.651  72.104   5.752  1.00  0.00     0.037 C 
HETATM   14  C15 UNL     1     -15.692  70.749   3.974  1.00  0.00     0.029 C 
HETATM   15  C16 UNL     1     -14.188  70.837   3.978  1.00  0.00     0.126 C 
ENDROOT
BRANCH   2  16
HETATM   16  C2  UNL     1     -11.338  70.324   3.834  1.00  0.00     0.230 C 
BRANCH  16  17
HETATM   17  N1  UNL     1     -10.185  70.889   4.507  1.00  0.00    -0.326 N 
HETATM   18  C3  UNL     1     -10.435  72.121   5.210  1.00  0.00     0.128 C 
HETATM   19  C4  UNL     1      -9.355  72.565   6.128  1.00  0.00     0.022 C 
HETATM   20  C5  UNL     1      -8.748  71.457   6.937  1.00  0.00     0.021 C 
HETATM   21  C6  UNL     1      -7.449  70.960   6.346  1.00  0.00     0.124 C 
HETATM   22  N2  UNL     1      -7.742  70.409   5.040  1.00  0.00    -0.343 N 
HETATM   23  C7  UNL     1      -8.978  70.163   4.383  1.00  0.00     0.318 C 
ATOM     24  H2  UNL     1      -6.918  70.154   4.497  1.00  0.00     0.164 HD
HETATM   25  O2  UNL     1      -8.997  69.159   3.578  1.00  0.00    -0.247 OA
ENDBRANCH  16  17
ENDBRANCH   2  16
TORSDOF 2
ENDMDL
MODEL 4
REMARK VINA RESULT: -7.920209932      1.258      1.916
REMARK  2 active torsions:
REMARK  status: ('A' for Active; 'I' for Inactive)
REMARK    1  A    between atoms: C1_2  and  C2_3 
REMARK       I    between atoms: C1_2  and  N3_13 
REMARK    2  A    between atoms: C2_3  and  N1_4 
ROOT
HETATM    1  O1  UNL     1     -10.474  72.212  -1.008  1.00  0.00    -0.272 OA
HETATM    2  C1  UNL     1     -10.887  71.431  -0.115  1.00  0.00     0.237 C 
HETATM    3  N3  UNL     1     -10.248  71.398   1.131  1.00  0.00    -0.351 N 
HETATM    4  C8  UNL     1      -9.109  72.239   1.442  1.00  0.00     0.126 C 
HETATM    5  C9  UNL     1      -9.278  72.830   2.827  1.00  0.00     0.029 C 
HETATM    6  C10 UNL     1      -9.283  71.729   3.836  1.00  0.00    -0.034 C 
HETATM    7  C11 UNL     1      -7.856  71.544   4.369  1.00  0.00     0.037 C 
HETATM    8  C12 UNL     1      -8.001  70.983   5.770  1.00  0.00     0.233 C 
HETATM    9  N4  UNL     1      -8.424  72.072   6.629  1.00  0.00    -0.075 N 
ATOM     10  H41 UNL     1      -7.628  72.605   6.977  1.00  0.00     0.277 HD
ATOM     11  H42 UNL     1      -8.784  71.728   7.520  1.00  0.00     0.277 HD
HETATM   12  C13 UNL     1      -9.387  72.927   5.961  1.00  0.00     0.233 C 
HETATM   13  C14 UNL     1     -10.181  72.076   5.011  1.00  0.00     0.037 C 
HETATM   14  C15 UNL     1      -9.724  70.404   3.304  1.00  0.00     0.029 C 
HETATM   15  C16 UNL     1     -10.711  70.504   2.171  1.00  0.00     0.126 C 
ENDROOT
BRANCH   2  16
HETATM   16  C2  UNL     1     -12.047  70.560  -0.402  1.00  0.00     0.230 C 
BRANCH  16  17
HETATM   17  N1  UNL     1     -12.202  70.273  -1.814  1.00  0.00    -0.326 N 
HETATM   18  C3  UNL     1     -13.034  71.201  -2.536  1.00  0.00     0.128 C 
HETATM   19  C4  UNL     1     -12.980  71.093  -4.016  1.00  0.00     0.022 C 
HETATM   20  C5  UNL     1     -11.599  70.884  -4.563  1.00  0.00     0.021 C 
HETATM   21  C6  UNL     1     -11.319  69.434  -4.879  1.00  0.00     0.124 C 
HETATM   22  N2  UNL     1     -11.391  68.692  -3.637  1.00  0.00    -0.343 N 
HETATM   23  C7  UNL     1     -11.523  69.128  -2.292  1.00  0.00     0.318 C 
ATOM     24  H2  UNL     1     -11.338  67.679  -3.749  1.00  0.00     0.164 HD
HETATM   25  O2  UNL     1     -10.957  68.390  -1.403  1.00  0.00    -0.247 OA
ENDBRANCH  16  17
ENDBRANCH   2  16
TORSDOF 2
ENDMDL
MODEL 5
REMARK VINA RESULT: -7.796160141      1.631      2.052
REMARK  2 active torsions:
REMARK  status: ('A' for Active; 'I' for Inactive)
REMARK    1  A    between atoms: C1_2  and  C2_3 
REMARK       I    between atoms: C1_2  and  N3_13 
REMARK    2  A    between atoms: C2_3  and  N1_4 
ROOT
HETATM    1  O1  UNL     1     -10.673  68.784   0.248  1.00  0.00    -0.272 OA
HETATM    2  C1  UNL     1     -10.533  69.977   0.617  1.00  0.00     0.237 C 
HETATM    3  N3  UNL     1     -10.208  70.260   1.949  1.00  0.00    -0.351 N 
HETATM    4  C8  UNL     1     -10.023  69.219   2.941  1.00  0.00     0.126 C 
HETATM    5  C9  UNL     1      -8.796  69.525   3.776  1.00  0.00     0.029 C 
HETATM    6  C10 UNL     1      -9.016  70.797   4.529  1.00  0.00    -0.034 C 
HETATM    7  C11 UNL     1      -9.563  70.456   5.921  1.00  0.00     0.037 C 
HETATM    8  C12 UNL     1      -9.134  71.592   6.830  1.00  0.00     0.233 C 
HETATM    9  N4  UNL     1      -7.718  71.421   7.093  1.00  0.00    -0.075 N 
ATOM     10  H41 UNL     1      -7.557  70.794   7.881  1.00  0.00     0.277 HD
ATOM     11  H42 UNL     1      -7.305  72.269   7.481  1.00  0.00     0.277 HD
HETATM   12  C13 UNL     1      -7.010  70.978   5.907  1.00  0.00     0.233 C 
HETATM   13  C14 UNL     1      -7.710  71.552   4.709  1.00  0.00     0.037 C 
HETATM   14  C15 UNL     1      -9.996  71.730   3.893  1.00  0.00     0.029 C 
HETATM   15  C16 UNL     1     -10.044  71.628   2.391  1.00  0.00     0.126 C 
ENDROOT
BRANCH   2  16
HETATM   16  C2  UNL     1     -10.715  71.061  -0.372  1.00  0.00     0.230 C 
BRANCH  16  17
HETATM   17  N1  UNL     1     -11.946  70.936  -1.126  1.00  0.00    -0.326 N 
HETATM   18  C3  UNL     1     -13.152  71.094  -0.354  1.00  0.00     0.128 C 
HETATM   19  C4  UNL     1     -14.402  71.249  -1.141  1.00  0.00     0.022 C 
HETATM   20  C5  UNL     1     -14.263  72.145  -2.336  1.00  0.00     0.021 C 
HETATM   21  C6  UNL     1     -14.064  71.369  -3.617  1.00  0.00     0.124 C 
HETATM   22  N2  UNL     1     -12.820  70.638  -3.499  1.00  0.00    -0.343 N 
HETATM   23  C7  UNL     1     -11.802  70.674  -2.509  1.00  0.00     0.318 C 
ATOM     24  H2  UNL     1     -12.644  69.981  -4.260  1.00  0.00     0.164 HD
HETATM   25  O2  UNL     1     -10.606  70.441  -2.922  1.00  0.00    -0.247 OA
ENDBRANCH  16  17
ENDBRANCH   2  16
TORSDOF 2
ENDMDL
