MODEL 1
REMARK VINA RESULT: -5.754771805      0.000      0.000
REMARK  8 active torsions:
REMARK  status: ('A' for Active; 'I' for Inactive)
REMARK    1  A    between atoms: N1_1  and  N2_4 
REMARK       I    between atoms: N2_4  and  C1_6 
REMARK    2  A    between atoms: C1_6  and  C2_8 
REMARK    3  A    between atoms: C2_8  and  N3_9 
REMARK    4  A    between atoms: N3_9  and  C3_11 
REMARK    5  A    between atoms: C3_11  and  O2_12 
REMARK    6  A    between atoms: C7_21  and  S1_22 
REMARK    7  A    between atoms: C8_26  and  O7_27 
REMARK    8  A    between atoms: N5_29  and  O8_30 
ROOT
HETATM    1  C3  UNL     1     -21.707  16.597  22.574  1.00  0.00     0.340 C 
HETATM    2  O3  UNL     1     -22.143  15.396  23.225  1.00  0.00    -0.321 OA
HETATM    3  C4  UNL     1     -22.933  14.790  22.257  1.00  0.00     0.207 C 
HETATM    4  C5  UNL     1     -22.057  14.934  21.048  1.00  0.00     0.120 C 
HETATM    5  C6  UNL     1     -22.758  14.574  19.775  1.00  0.00     0.266 C 
HETATM    6  N4  UNL     1     -22.508  13.178  19.517  1.00  0.00    -0.050 N 
ATOM      7  H41 UNL     1     -22.079  13.012  18.607  1.00  0.00     0.279 HD
ATOM      8  H42 UNL     1     -23.362  12.643  19.362  1.00  0.00     0.279 HD
HETATM    9  C7  UNL     1     -21.728  12.678  20.599  1.00  0.00     0.358 C 
HETATM   10  C8  UNL     1     -20.964  13.885  21.082  1.00  0.00     0.195 C 
HETATM   11  N5  UNL     1     -21.571  16.256  21.169  1.00  0.00    -0.104 NA
ENDROOT
BRANCH   1  12
HETATM   12  N3  UNL     1     -22.722  17.545  22.834  1.00  0.00    -0.325 N 
ATOM     13  H3  UNL     1     -23.294  17.899  22.067  1.00  0.00     0.165 HD
BRANCH  12  14
HETATM   14  C2  UNL     1     -22.946  18.001  24.145  1.00  0.00     0.165 C 
BRANCH  14  15
HETATM   15  C1  UNL     1     -22.178  19.232  24.471  1.00  0.00     0.274 C 
HETATM   16  N2  UNL     1     -20.988  19.163  25.262  1.00  0.00    -0.272 N 
ATOM     17  H2  UNL     1     -20.649  18.269  25.617  1.00  0.00     0.189 HD
HETATM   18  O1  UNL     1     -22.532  20.375  24.075  1.00  0.00    -0.265 OA
BRANCH  16  19
HETATM   19  N1  UNL     1     -20.306  20.339  25.533  1.00  0.00    -0.342 N 
ATOM     20  H12 UNL     1     -19.389  20.502  25.117  1.00  0.00     0.176 HD
ATOM     21  H11 UNL     1     -20.743  21.023  26.151  1.00  0.00     0.176 HD
ENDBRANCH  16  19
ENDBRANCH  14  15
ENDBRANCH  12  14
ENDBRANCH   1  12
BRANCH   1  22
HETATM   22  O2  UNL     1     -20.460  16.814  23.095  1.00  0.00    -0.334 OA
ATOM     23  H2  UNL     1     -19.756  16.223  22.854  1.00  0.00     0.216 HD
ENDBRANCH   1  22
BRANCH  11  24
HETATM   24  O8  UNL     1     -22.101  17.139  20.327  1.00  0.00    -0.306 OA
ATOM     25  H8  UNL     1     -22.380  16.777  19.495  1.00  0.00     0.237 HD
ENDBRANCH  11  24
BRANCH  10  26
HETATM   26  O7  UNL     1     -20.396  13.726  22.326  1.00  0.00    -0.390 OA
ATOM     27  H7  UNL     1     -20.036  12.858  22.469  1.00  0.00     0.210 HD
ENDBRANCH  10  26
BRANCH   9  28
HETATM   28  S1  UNL     1     -20.595  11.400  20.103  1.00  0.00     0.136 S 
HETATM   29  O4  UNL     1     -19.202  11.747  20.453  1.00  0.00    -0.593 OA
HETATM   30  O5  UNL     1     -20.746  11.258  18.593  1.00  0.00    -0.593 OA
HETATM   31  O6  UNL     1     -21.129   9.952  20.759  1.00  0.00    -0.593 OA
ENDBRANCH   9  28
TORSDOF 8
ENDMDL
MODEL 2
REMARK VINA RESULT: -5.595919961      1.544      2.047
REMARK  8 active torsions:
REMARK  status: ('A' for Active; 'I' for Inactive)
REMARK    1  A    between atoms: N1_1  and  N2_4 
REMARK       I    between atoms: N2_4  and  C1_6 
REMARK    2  A    between atoms: C1_6  and  C2_8 
REMARK    3  A    between atoms: C2_8  and  N3_9 
REMARK    4  A    between atoms: N3_9  and  C3_11 
REMARK    5  A    between atoms: C3_11  and  O2_12 
REMARK    6  A    between atoms: C7_21  and  S1_22 
REMARK    7  A    between atoms: C8_26  and  O7_27 
REMARK    8  A    between atoms: N5_29  and  O8_30 
ROOT
HETATM    1  C3  UNL     1     -21.863  16.316  23.092  1.00  0.00     0.340 C 
HETATM    2  O3  UNL     1     -20.680  15.539  23.326  1.00  0.00    -0.321 OA
HETATM    3  C4  UNL     1     -21.191  14.303  23.698  1.00  0.00     0.207 C 
HETATM    4  C5  UNL     1     -22.246  14.108  22.649  1.00  0.00     0.120 C 
HETATM    5  C6  UNL     1     -23.144  12.943  22.936  1.00  0.00     0.266 C 
HETATM    6  N4  UNL     1     -22.587  11.790  22.277  1.00  0.00    -0.050 N 
ATOM      7  H41 UNL     1     -23.241  11.346  21.631  1.00  0.00     0.279 HD
ATOM      8  H42 UNL     1     -22.459  10.996  22.904  1.00  0.00     0.279 HD
HETATM    9  C7  UNL     1     -21.378  12.201  21.647  1.00  0.00     0.358 C 
HETATM   10  C8  UNL     1     -21.601  13.663  21.353  1.00  0.00     0.195 C 
HETATM   11  N5  UNL     1     -22.847  15.385  22.569  1.00  0.00    -0.104 NA
ENDROOT
BRANCH   1  12
HETATM   12  N3  UNL     1     -22.204  16.855  24.352  1.00  0.00    -0.325 N 
ATOM     13  H3  UNL     1     -22.229  16.250  25.174  1.00  0.00     0.165 HD
BRANCH  12  14
HETATM   14  C2  UNL     1     -22.510  18.221  24.479  1.00  0.00     0.165 C 
BRANCH  14  15
HETATM   15  C1  UNL     1     -21.349  19.038  24.926  1.00  0.00     0.274 C 
HETATM   16  N2  UNL     1     -21.543  20.193  25.749  1.00  0.00    -0.272 N 
ATOM     17  H2  UNL     1     -22.478  20.476  26.038  1.00  0.00     0.189 HD
HETATM   18  O1  UNL     1     -20.163  18.758  24.608  1.00  0.00    -0.265 OA
BRANCH  16  19
HETATM   19  N1  UNL     1     -20.427  20.916  26.143  1.00  0.00    -0.342 N 
ATOM     20  H12 UNL     1     -19.495  20.599  25.875  1.00  0.00     0.176 HD
ATOM     21  H11 UNL     1     -20.568  21.760  26.698  1.00  0.00     0.176 HD
ENDBRANCH  16  19
ENDBRANCH  14  15
ENDBRANCH  12  14
ENDBRANCH   1  12
BRANCH   1  22
HETATM   22  O2  UNL     1     -21.494  17.174  22.091  1.00  0.00    -0.334 OA
ATOM     23  H2  UNL     1     -21.960  17.135  21.264  1.00  0.00     0.216 HD
ENDBRANCH   1  22
BRANCH  11  24
HETATM   24  O8  UNL     1     -24.055  15.484  23.117  1.00  0.00    -0.306 OA
ATOM     25  H8  UNL     1     -24.674  14.820  22.839  1.00  0.00     0.237 HD
ENDBRANCH  11  24
BRANCH  10  26
HETATM   26  O7  UNL     1     -20.450  14.354  21.048  1.00  0.00    -0.390 OA
ATOM     27  H7  UNL     1     -20.596  15.101  20.481  1.00  0.00     0.210 HD
ENDBRANCH  10  26
BRANCH   9  28
HETATM   28  S1  UNL     1     -21.049  11.321  20.137  1.00  0.00     0.136 S 
HETATM   29  O4  UNL     1     -21.186   9.861  20.321  1.00  0.00    -0.593 OA
HETATM   30  O5  UNL     1     -19.622  11.676  19.736  1.00  0.00    -0.593 OA
HETATM   31  O6  UNL     1     -22.037  11.958  18.941  1.00  0.00    -0.593 OA
ENDBRANCH   9  28
TORSDOF 8
ENDMDL
MODEL 3
REMARK VINA RESULT: -5.579196046      1.171      1.475
REMARK  8 active torsions:
REMARK  status: ('A' for Active; 'I' for Inactive)
REMARK    1  A    between atoms: N1_1  and  N2_4 
REMARK       I    between atoms: N2_4  and  C1_6 
REMARK    2  A    between atoms: C1_6  and  C2_8 
REMARK    3  A    between atoms: C2_8  and  N3_9 
REMARK    4  A    between atoms: N3_9  and  C3_11 
REMARK    5  A    between atoms: C3_11  and  O2_12 
REMARK    6  A    between atoms: C7_21  and  S1_22 
REMARK    7  A    between atoms: C8_26  and  O7_27 
REMARK    8  A    between atoms: N5_29  and  O8_30 
ROOT
HETATM    1  C3  UNL     1     -21.903  15.681  23.552  1.00  0.00     0.340 C 
HETATM    2  O3  UNL     1     -22.842  14.597  23.535  1.00  0.00    -0.321 OA
HETATM    3  C4  UNL     1     -23.283  14.591  22.219  1.00  0.00     0.207 C 
HETATM    4  C5  UNL     1     -21.980  14.710  21.485  1.00  0.00     0.120 C 
HETATM    5  C6  UNL     1     -22.159  14.970  20.021  1.00  0.00     0.266 C 
HETATM    6  N4  UNL     1     -22.168  13.695  19.349  1.00  0.00    -0.050 N 
ATOM      7  H41 UNL     1     -21.455  13.623  18.622  1.00  0.00     0.279 HD
ATOM      8  H42 UNL     1     -22.983  13.567  18.750  1.00  0.00     0.279 HD
HETATM    9  C7  UNL     1     -22.047  12.686  20.347  1.00  0.00     0.358 C 
HETATM   10  C8  UNL     1     -21.285  13.364  21.457  1.00  0.00     0.195 C 
HETATM   11  N5  UNL     1     -21.286  15.686  22.237  1.00  0.00    -0.104 NA
ENDROOT
BRANCH   1  12
HETATM   12  N3  UNL     1     -22.674  16.832  23.822  1.00  0.00    -0.325 N 
ATOM     13  H3  UNL     1     -23.384  17.136  23.156  1.00  0.00     0.165 HD
BRANCH  12  14
HETATM   14  C2  UNL     1     -22.468  17.561  25.007  1.00  0.00     0.165 C 
BRANCH  14  15
HETATM   15  C1  UNL     1     -21.351  18.538  24.901  1.00  0.00     0.274 C 
HETATM   16  N2  UNL     1     -21.402  19.784  25.603  1.00  0.00    -0.272 N 
ATOM     17  H2  UNL     1     -22.205  20.023  26.183  1.00  0.00     0.189 HD
HETATM   18  O1  UNL     1     -20.326  18.321  24.201  1.00  0.00    -0.265 OA
BRANCH  16  19
HETATM   19  N1  UNL     1     -20.333  20.658  25.475  1.00  0.00    -0.342 N 
ATOM     20  H12 UNL     1     -19.590  20.657  26.174  1.00  0.00     0.176 HD
ATOM     21  H11 UNL     1     -20.315  21.289  24.674  1.00  0.00     0.176 HD
ENDBRANCH  16  19
ENDBRANCH  14  15
ENDBRANCH  12  14
ENDBRANCH   1  12
BRANCH   1  22
HETATM   22  O2  UNL     1     -20.969  15.286  24.473  1.00  0.00    -0.334 OA
ATOM     23  H2  UNL     1     -21.031  15.626  25.358  1.00  0.00     0.216 HD
ENDBRANCH   1  22
BRANCH  11  24
HETATM   24  O8  UNL     1     -21.193  16.885  21.670  1.00  0.00    -0.306 OA
ATOM     25  H8  UNL     1     -21.976  17.171  21.214  1.00  0.00     0.237 HD
ENDBRANCH  11  24
BRANCH  10  26
HETATM   26  O7  UNL     1     -21.337  12.696  22.660  1.00  0.00    -0.390 OA
ATOM     27  H7  UNL     1     -22.183  12.300  22.836  1.00  0.00     0.210 HD
ENDBRANCH  10  26
BRANCH   9  28
HETATM   28  S1  UNL     1     -21.154  11.256  19.782  1.00  0.00     0.136 S 
HETATM   29  O4  UNL     1     -21.330  10.111  20.698  1.00  0.00    -0.593 OA
HETATM   30  O5  UNL     1     -19.687  11.666  19.717  1.00  0.00    -0.593 OA
HETATM   31  O6  UNL     1     -21.617  10.949  18.199  1.00  0.00    -0.593 OA
ENDBRANCH   9  28
TORSDOF 8
ENDMDL
MODEL 4
REMARK VINA RESULT: -5.552264895      3.361      5.684
REMARK  8 active torsions:
REMARK  status: ('A' for Active; 'I' for Inactive)
REMARK    1  A    between atoms: N1_1  and  N2_4 
REMARK       I    between atoms: N2_4  and  C1_6 
REMARK    2  A    between atoms: C1_6  and  C2_8 
REMARK    3  A    between atoms: C2_8  and  N3_9 
REMARK    4  A    between atoms: N3_9  and  C3_11 
REMARK    5  A    between atoms: C3_11  and  O2_12 
REMARK    6  A    between atoms: C7_21  and  S1_22 
REMARK    7  A    between atoms: C8_26  and  O7_27 
REMARK    8  A    between atoms: N5_29  and  O8_30 
ROOT
HETATM    1  C3  UNL     1     -21.800  15.919  19.124  1.00  0.00     0.340 C 
HETATM    2  O3  UNL     1     -22.412  17.017  19.814  1.00  0.00    -0.321 OA
HETATM    3  C4  UNL     1     -23.399  16.398  20.568  1.00  0.00     0.207 C 
HETATM    4  C5  UNL     1     -22.633  15.243  21.142  1.00  0.00     0.120 C 
HETATM    5  C6  UNL     1     -23.513  14.242  21.825  1.00  0.00     0.266 C 
HETATM    6  N4  UNL     1     -23.584  14.602  23.218  1.00  0.00    -0.050 N 
ATOM      7  H41 UNL     1     -23.288  13.849  23.840  1.00  0.00     0.279 HD
ATOM      8  H42 UNL     1     -24.541  14.688  23.559  1.00  0.00     0.279 HD
HETATM    9  C7  UNL     1     -22.824  15.795  23.390  1.00  0.00     0.358 C 
HETATM   10  C8  UNL     1     -21.783  15.720  22.301  1.00  0.00     0.195 C 
HETATM   11  N5  UNL     1     -21.874  14.791  20.037  1.00  0.00    -0.104 NA
ENDROOT
BRANCH   1  12
HETATM   12  N3  UNL     1     -22.566  15.750  17.950  1.00  0.00    -0.325 N 
ATOM     13  H3  UNL     1     -23.161  14.928  17.845  1.00  0.00     0.165 HD
BRANCH  12  14
HETATM   14  C2  UNL     1     -22.512  16.711  16.925  1.00  0.00     0.165 C 
BRANCH  14  15
HETATM   15  C1  UNL     1     -23.583  17.737  17.033  1.00  0.00     0.274 C 
HETATM   16  N2  UNL     1     -23.346  18.970  17.720  1.00  0.00    -0.272 N 
ATOM     17  H2  UNL     1     -22.442  19.163  18.149  1.00  0.00     0.189 HD
HETATM   18  O1  UNL     1     -24.728  17.575  16.535  1.00  0.00    -0.265 OA
BRANCH  16  19
HETATM   19  N1  UNL     1     -24.376  19.896  17.787  1.00  0.00    -0.342 N 
ATOM     20  H12 UNL     1     -24.183  20.849  18.096  1.00  0.00     0.176 HD
ATOM     21  H11 UNL     1     -25.315  19.598  17.522  1.00  0.00     0.176 HD
ENDBRANCH  16  19
ENDBRANCH  14  15
ENDBRANCH  12  14
ENDBRANCH   1  12
BRANCH   1  22
HETATM   22  O2  UNL     1     -20.491  16.300  19.003  1.00  0.00    -0.334 OA
ATOM     23  H2  UNL     1     -19.969  15.922  18.304  1.00  0.00     0.216 HD
ENDBRANCH   1  22
BRANCH  11  24
HETATM   24  O8  UNL     1     -22.287  13.654  19.486  1.00  0.00    -0.306 OA
ATOM     25  H8  UNL     1     -21.843  12.876  19.800  1.00  0.00     0.237 HD
ENDBRANCH  11  24
BRANCH  10  26
HETATM   26  O7  UNL     1     -21.144  16.915  22.057  1.00  0.00    -0.390 OA
ATOM     27  H7  UNL     1     -20.556  17.179  22.755  1.00  0.00     0.210 HD
ENDBRANCH  10  26
BRANCH   9  28
HETATM   28  S1  UNL     1     -22.034  15.890  24.980  1.00  0.00     0.136 S 
HETATM   29  O4  UNL     1     -21.403  14.606  25.348  1.00  0.00    -0.593 OA
HETATM   30  O5  UNL     1     -23.128  16.252  25.980  1.00  0.00    -0.593 OA
HETATM   31  O6  UNL     1     -20.979  17.193  24.958  1.00  0.00    -0.593 OA
ENDBRANCH   9  28
TORSDOF 8
ENDMDL
MODEL 5
REMARK VINA RESULT: -5.548966929      1.739      2.199
REMARK  8 active torsions:
REMARK  status: ('A' for Active; 'I' for Inactive)
REMARK    1  A    between atoms: N1_1  and  N2_4 
REMARK       I    between atoms: N2_4  and  C1_6 
REMARK    2  A    between atoms: C1_6  and  C2_8 
REMARK    3  A    between atoms: C2_8  and  N3_9 
REMARK    4  A    between atoms: N3_9  and  C3_11 
REMARK    5  A    between atoms: C3_11  and  O2_12 
REMARK    6  A    between atoms: C7_21  and  S1_22 
REMARK    7  A    between atoms: C8_26  and  O7_27 
REMARK    8  A    between atoms: N5_29  and  O8_30 
ROOT
HETATM    1  C3  UNL     1     -21.402  17.487  23.799  1.00  0.00     0.340 C 
HETATM    2  O3  UNL     1     -21.183  16.225  24.444  1.00  0.00    -0.321 OA
HETATM    3  C4  UNL     1     -22.261  15.465  24.011  1.00  0.00     0.207 C 
HETATM    4  C5  UNL     1     -22.256  15.779  22.544  1.00  0.00     0.120 C 
HETATM    5  C6  UNL     1     -23.477  15.276  21.837  1.00  0.00     0.266 C 
HETATM    6  N4  UNL     1     -23.178  13.961  21.332  1.00  0.00    -0.050 N 
ATOM      7  H41 UNL     1     -23.314  13.881  20.324  1.00  0.00     0.279 HD
ATOM      8  H42 UNL     1     -23.864  13.260  21.614  1.00  0.00     0.279 HD
HETATM    9  C7  UNL     1     -21.853  13.637  21.741  1.00  0.00     0.358 C 
HETATM   10  C8  UNL     1     -21.172  14.977  21.854  1.00  0.00     0.195 C 
HETATM   11  N5  UNL     1     -22.023  17.174  22.524  1.00  0.00    -0.104 NA
ENDROOT
BRANCH   1  12
HETATM   12  N3  UNL     1     -22.241  18.207  24.677  1.00  0.00    -0.325 N 
ATOM     13  H3  UNL     1     -23.162  17.839  24.916  1.00  0.00     0.165 HD
BRANCH  12  14
HETATM   14  C2  UNL     1     -21.812  19.430  25.223  1.00  0.00     0.165 C 
BRANCH  14  15
HETATM   15  C1  UNL     1     -22.462  20.609  24.591  1.00  0.00     0.274 C 
HETATM   16  N2  UNL     1     -22.685  21.809  25.340  1.00  0.00    -0.272 N 
ATOM     17  H2  UNL     1     -22.405  21.873  26.318  1.00  0.00     0.189 HD
HETATM   18  O1  UNL     1     -22.843  20.609  23.390  1.00  0.00    -0.265 OA
BRANCH  16  19
HETATM   19  N1  UNL     1     -23.290  22.881  24.702  1.00  0.00    -0.342 N 
ATOM     20  H12 UNL     1     -24.288  23.051  24.831  1.00  0.00     0.176 HD
ATOM     21  H11 UNL     1     -22.715  23.483  24.112  1.00  0.00     0.176 HD
ENDBRANCH  16  19
ENDBRANCH  14  15
ENDBRANCH  12  14
ENDBRANCH   1  12
BRANCH   1  22
HETATM   22  O2  UNL     1     -20.138  17.958  23.567  1.00  0.00    -0.334 OA
ATOM     23  H2  UNL     1     -19.414  17.342  23.580  1.00  0.00     0.216 HD
ENDBRANCH   1  22
BRANCH  11  24
HETATM   24  O8  UNL     1     -23.077  17.925  22.217  1.00  0.00    -0.306 OA
ATOM     25  H8  UNL     1     -23.043  18.813  22.552  1.00  0.00     0.237 HD
ENDBRANCH  11  24
BRANCH  10  26
HETATM   26  O7  UNL     1     -19.986  14.944  22.553  1.00  0.00    -0.390 OA
ATOM     27  H7  UNL     1     -19.626  15.805  22.729  1.00  0.00     0.210 HD
ENDBRANCH  10  26
BRANCH   9  28
HETATM   28  S1  UNL     1     -20.995  12.616  20.565  1.00  0.00     0.136 S 
HETATM   29  O4  UNL     1     -21.817  12.367  19.364  1.00  0.00    -0.593 OA
HETATM   30  O5  UNL     1     -20.686  11.306  21.281  1.00  0.00    -0.593 OA
HETATM   31  O6  UNL     1     -19.511  13.329  20.246  1.00  0.00    -0.593 OA
ENDBRANCH   9  28
TORSDOF 8
ENDMDL
