MODEL 1
REMARK VINA RESULT: -12.200282788      0.000      0.000
REMARK  5 active torsions:
REMARK  status: ('A' for Active; 'I' for Inactive)
REMARK    1  A    between atoms: C4_4  and  C5_5 
REMARK    2  A    between atoms: C9_9  and  C10_10 
REMARK    3  A    between atoms: C10_10  and  C11_11 
REMARK    4  A    between atoms: C14_14  and  C15_15 
REMARK    5  A    between atoms: N1_21  and  C21_22 
ROOT
HETATM    1  C11 UNL     1      18.899 -10.910   7.214  1.00  0.00     0.021 A 
HETATM    2  C12 UNL     1      17.552 -10.750   7.348  1.00  0.00     0.028 A 
HETATM    3  C13 UNL     1      17.081 -11.939   7.836  1.00  0.00     0.033 A 
HETATM    4  C14 UNL     1      18.169 -12.818   7.992  1.00  0.00     0.050 A 
HETATM    5  N1  UNL     1      19.268 -12.181   7.610  1.00  0.00    -0.315 N 
ENDROOT
BRANCH   1   6
HETATM    6  C10 UNL     1      19.798  -9.881   6.687  1.00  0.00     0.096 C 
BRANCH   6   7
HETATM    7  C9  UNL     1      19.630  -9.584   5.244  1.00  0.00    -0.052 A 
HETATM    8  C8  UNL     1      18.714 -10.386   4.553  1.00  0.00     0.007 A 
HETATM    9  C7  UNL     1      18.539 -10.153   3.215  1.00  0.00     0.001 A 
HETATM   10  C6  UNL     1      19.233  -9.165   2.559  1.00  0.00     0.012 A 
HETATM   11  C5  UNL     1      20.146  -8.350   3.206  1.00  0.00    -0.025 A 
HETATM   12  C27 UNL     1      20.308  -8.605   4.558  1.00  0.00     0.019 A 
BRANCH  11  13
HETATM   13  C4  UNL     1      20.879  -7.303   2.503  1.00  0.00    -0.026 A 
HETATM   14  C3  UNL     1      21.608  -7.558   1.357  1.00  0.00     0.012 A 
HETATM   15  C2  UNL     1      22.302  -6.549   0.697  1.00  0.00     0.001 A 
HETATM   16  C1  UNL     1      22.271  -5.253   1.187  1.00  0.00     0.000 A 
HETATM   17  C29 UNL     1      21.551  -4.975   2.328  1.00  0.00     0.001 A 
HETATM   18  C28 UNL     1      20.880  -5.994   2.951  1.00  0.00     0.012 A 
ENDBRANCH  11  13
ENDBRANCH   6   7
ENDBRANCH   1   6
BRANCH   5  19
HETATM   19  C21 UNL     1      20.595 -12.654   7.548  1.00  0.00     0.039 A 
HETATM   20  C22 UNL     1      21.429 -12.643   8.678  1.00  0.00     0.030 A 
HETATM   21  C23 UNL     1      22.699 -13.126   8.675  1.00  0.00     0.002 A 
HETATM   22  C24 UNL     1      23.219 -13.662   7.509  1.00  0.00     0.000 A 
HETATM   23  C25 UNL     1      22.445 -13.699   6.374  1.00  0.00     0.002 A 
HETATM   24  C26 UNL     1      21.163 -13.205   6.394  1.00  0.00     0.030 A 
ENDBRANCH   5  19
BRANCH   4  25
HETATM   25  C15 UNL     1      17.920 -14.202   8.466  1.00  0.00    -0.009 A 
HETATM   26  C16 UNL     1      17.767 -14.531   9.789  1.00  0.00     0.014 A 
HETATM   27  C17 UNL     1      17.585 -15.866  10.180  1.00  0.00     0.001 A 
HETATM   28  C18 UNL     1      17.557 -16.860   9.238  1.00  0.00     0.000 A 
HETATM   29  C19 UNL     1      17.710 -16.527   7.911  1.00  0.00     0.001 A 
HETATM   30  C20 UNL     1      17.888 -15.228   7.534  1.00  0.00     0.014 A 
ENDBRANCH   4  25
TORSDOF 5
ENDMDL
MODEL 2
REMARK VINA RESULT: -12.042613962      0.056      1.226
REMARK  5 active torsions:
REMARK  status: ('A' for Active; 'I' for Inactive)
REMARK    1  A    between atoms: C4_4  and  C5_5 
REMARK    2  A    between atoms: C9_9  and  C10_10 
REMARK    3  A    between atoms: C10_10  and  C11_11 
REMARK    4  A    between atoms: C14_14  and  C15_15 
REMARK    5  A    between atoms: N1_21  and  C21_22 
ROOT
HETATM    1  C11 UNL     1      18.912 -10.952   7.216  1.00  0.00     0.021 A 
HETATM    2  C12 UNL     1      17.563 -10.787   7.323  1.00  0.00     0.028 A 
HETATM    3  C13 UNL     1      17.080 -11.967   7.819  1.00  0.00     0.033 A 
HETATM    4  C14 UNL     1      18.163 -12.847   8.008  1.00  0.00     0.050 A 
HETATM    5  N1  UNL     1      19.270 -12.217   7.639  1.00  0.00    -0.315 N 
ENDROOT
BRANCH   1   6
HETATM    6  C10 UNL     1      19.824  -9.932   6.692  1.00  0.00     0.096 C 
BRANCH   6   7
HETATM    7  C9  UNL     1      19.643  -9.613   5.254  1.00  0.00    -0.052 A 
HETATM    8  C8  UNL     1      18.726 -10.409   4.558  1.00  0.00     0.007 A 
HETATM    9  C7  UNL     1      18.539 -10.155   3.225  1.00  0.00     0.001 A 
HETATM   10  C6  UNL     1      19.223  -9.153   2.580  1.00  0.00     0.012 A 
HETATM   11  C5  UNL     1      20.138  -8.345   3.233  1.00  0.00    -0.025 A 
HETATM   12  C27 UNL     1      20.311  -8.620   4.580  1.00  0.00     0.019 A 
BRANCH  11  13
HETATM   13  C4  UNL     1      20.860  -7.284   2.540  1.00  0.00    -0.026 A 
HETATM   14  C3  UNL     1      20.886  -5.984   3.009  1.00  0.00     0.012 A 
HETATM   15  C2  UNL     1      21.579  -4.982   2.338  1.00  0.00     0.001 A 
HETATM   16  C1  UNL     1      22.265  -5.278   1.171  1.00  0.00     0.000 A 
HETATM   17  C29 UNL     1      22.254  -6.567   0.684  1.00  0.00     0.001 A 
HETATM   18  C28 UNL     1      21.560  -7.527   1.371  1.00  0.00     0.012 A 
ENDBRANCH  11  13
ENDBRANCH   6   7
ENDBRANCH   1   6
BRANCH   5  19
HETATM   19  C21 UNL     1      20.598 -12.694   7.608  1.00  0.00     0.039 A 
HETATM   20  C22 UNL     1      21.145 -13.256   6.443  1.00  0.00     0.030 A 
HETATM   21  C23 UNL     1      22.430 -13.690   6.355  1.00  0.00     0.002 A 
HETATM   22  C24 UNL     1      23.260 -13.583   7.458  1.00  0.00     0.000 A 
HETATM   23  C25 UNL     1      22.775 -13.040   8.623  1.00  0.00     0.002 A 
HETATM   24  C26 UNL     1      21.473 -12.607   8.695  1.00  0.00     0.030 A 
ENDBRANCH   5  19
BRANCH   4  25
HETATM   25  C15 UNL     1      17.902 -14.223   8.499  1.00  0.00    -0.009 A 
HETATM   26  C16 UNL     1      17.745 -14.535   9.825  1.00  0.00     0.014 A 
HETATM   27  C17 UNL     1      17.551 -15.864  10.231  1.00  0.00     0.001 A 
HETATM   28  C18 UNL     1      17.515 -16.868   9.301  1.00  0.00     0.000 A 
HETATM   29  C19 UNL     1      17.672 -16.552   7.970  1.00  0.00     0.001 A 
HETATM   30  C20 UNL     1      17.861 -15.259   7.578  1.00  0.00     0.014 A 
ENDBRANCH   4  25
TORSDOF 5
ENDMDL
MODEL 3
REMARK VINA RESULT: -10.394366312      2.062      4.404
REMARK  5 active torsions:
REMARK  status: ('A' for Active; 'I' for Inactive)
REMARK    1  A    between atoms: C4_4  and  C5_5 
REMARK    2  A    between atoms: C9_9  and  C10_10 
REMARK    3  A    between atoms: C10_10  and  C11_11 
REMARK    4  A    between atoms: C14_14  and  C15_15 
REMARK    5  A    between atoms: N1_21  and  C21_22 
ROOT
HETATM    1  C11 UNL     1      21.158 -13.319   7.343  1.00  0.00     0.021 A 
HETATM    2  C12 UNL     1      22.375 -12.716   7.226  1.00  0.00     0.028 A 
HETATM    3  C13 UNL     1      22.964 -12.822   8.457  1.00  0.00     0.033 A 
HETATM    4  C14 UNL     1      22.079 -13.500   9.317  1.00  0.00     0.050 A 
HETATM    5  N1  UNL     1      20.986 -13.796   8.627  1.00  0.00    -0.315 N 
ENDROOT
BRANCH   1   6
HETATM    6  C10 UNL     1      20.178 -13.403   6.257  1.00  0.00     0.096 C 
BRANCH   6   7
HETATM    7  C9  UNL     1      19.656 -12.097   5.785  1.00  0.00    -0.052 A 
HETATM    8  C8  UNL     1      18.440 -11.683   6.339  1.00  0.00     0.007 A 
HETATM    9  C7  UNL     1      17.917 -10.488   5.920  1.00  0.00     0.001 A 
HETATM   10  C6  UNL     1      18.558  -9.710   4.987  1.00  0.00     0.012 A 
HETATM   11  C5  UNL     1      19.763 -10.083   4.415  1.00  0.00    -0.025 A 
HETATM   12  C27 UNL     1      20.271 -11.295   4.854  1.00  0.00     0.019 A 
BRANCH  11  13
HETATM   13  C4  UNL     1      20.437  -9.252   3.425  1.00  0.00    -0.026 A 
HETATM   14  C3  UNL     1      21.315  -9.778   2.496  1.00  0.00     0.012 A 
HETATM   15  C2  UNL     1      21.950  -8.972   1.558  1.00  0.00     0.001 A 
HETATM   16  C1  UNL     1      21.708  -7.608   1.540  1.00  0.00     0.000 A 
HETATM   17  C29 UNL     1      20.836  -7.060   2.455  1.00  0.00     0.001 A 
HETATM   18  C28 UNL     1      20.229  -7.884   3.365  1.00  0.00     0.012 A 
ENDBRANCH  11  13
ENDBRANCH   6   7
ENDBRANCH   1   6
BRANCH   5  19
HETATM   19  C21 UNL     1      19.805 -14.435   9.061  1.00  0.00     0.039 A 
HETATM   20  C22 UNL     1      19.692 -15.835   9.066  1.00  0.00     0.030 A 
HETATM   21  C23 UNL     1      18.592 -16.495   9.513  1.00  0.00     0.002 A 
HETATM   22  C24 UNL     1      17.514 -15.771   9.994  1.00  0.00     0.000 A 
HETATM   23  C25 UNL     1      17.573 -14.398  10.013  1.00  0.00     0.002 A 
HETATM   24  C26 UNL     1      18.693 -13.747   9.556  1.00  0.00     0.030 A 
ENDBRANCH   5  19
BRANCH   4  25
HETATM   25  C15 UNL     1      22.463 -13.706  10.736  1.00  0.00    -0.009 A 
HETATM   26  C16 UNL     1      21.611 -14.217  11.682  1.00  0.00     0.014 A 
HETATM   27  C17 UNL     1      22.016 -14.340  13.019  1.00  0.00     0.001 A 
HETATM   28  C18 UNL     1      23.273 -13.950  13.395  1.00  0.00     0.000 A 
HETATM   29  C19 UNL     1      24.126 -13.437  12.444  1.00  0.00     0.001 A 
HETATM   30  C20 UNL     1      23.730 -13.318  11.144  1.00  0.00     0.014 A 
ENDBRANCH   4  25
TORSDOF 5
ENDMDL
MODEL 4
REMARK VINA RESULT: -10.110759179      2.087      4.386
REMARK  5 active torsions:
REMARK  status: ('A' for Active; 'I' for Inactive)
REMARK    1  A    between atoms: C4_4  and  C5_5 
REMARK    2  A    between atoms: C9_9  and  C10_10 
REMARK    3  A    between atoms: C10_10  and  C11_11 
REMARK    4  A    between atoms: C14_14  and  C15_15 
REMARK    5  A    between atoms: N1_21  and  C21_22 
ROOT
HETATM    1  C11 UNL     1      21.174 -13.259   7.404  1.00  0.00     0.021 A 
HETATM    2  C12 UNL     1      22.364 -12.609   7.270  1.00  0.00     0.028 A 
HETATM    3  C13 UNL     1      22.973 -12.690   8.493  1.00  0.00     0.033 A 
HETATM    4  C14 UNL     1      22.127 -13.400   9.366  1.00  0.00     0.050 A 
HETATM    5  N1  UNL     1      21.037 -13.740   8.691  1.00  0.00    -0.315 N 
ENDROOT
BRANCH   1   6
HETATM    6  C10 UNL     1      20.183 -13.383   6.332  1.00  0.00     0.096 C 
BRANCH   6   7
HETATM    7  C9  UNL     1      19.645 -12.097   5.827  1.00  0.00    -0.052 A 
HETATM    8  C8  UNL     1      18.410 -11.698   6.350  1.00  0.00     0.007 A 
HETATM    9  C7  UNL     1      17.872 -10.521   5.900  1.00  0.00     0.001 A 
HETATM   10  C6  UNL     1      18.516  -9.747   4.966  1.00  0.00     0.012 A 
HETATM   11  C5  UNL     1      19.739 -10.105   4.424  1.00  0.00    -0.025 A 
HETATM   12  C27 UNL     1      20.263 -11.299   4.894  1.00  0.00     0.019 A 
BRANCH  11  13
HETATM   13  C4  UNL     1      20.415  -9.277   3.432  1.00  0.00    -0.026 A 
HETATM   14  C3  UNL     1      21.257  -9.813   2.477  1.00  0.00     0.012 A 
HETATM   15  C2  UNL     1      21.896  -9.010   1.538  1.00  0.00     0.001 A 
HETATM   16  C1  UNL     1      21.693  -7.640   1.547  1.00  0.00     0.000 A 
HETATM   17  C29 UNL     1      20.858  -7.082   2.490  1.00  0.00     0.001 A 
HETATM   18  C28 UNL     1      20.247  -7.904   3.399  1.00  0.00     0.012 A 
ENDBRANCH  11  13
ENDBRANCH   6   7
ENDBRANCH   1   6
BRANCH   5  19
HETATM   19  C21 UNL     1      19.889 -14.424   9.142  1.00  0.00     0.039 A 
HETATM   20  C22 UNL     1      18.742 -13.730   9.562  1.00  0.00     0.030 A 
HETATM   21  C23 UNL     1      17.600 -14.347   9.964  1.00  0.00     0.002 A 
HETATM   22  C24 UNL     1      17.541 -15.730   9.969  1.00  0.00     0.000 A 
HETATM   23  C25 UNL     1      18.635 -16.458   9.566  1.00  0.00     0.002 A 
HETATM   24  C26 UNL     1      19.782 -15.819   9.163  1.00  0.00     0.030 A 
ENDBRANCH   5  19
BRANCH   4  25
HETATM   25  C15 UNL     1      22.538 -13.588  10.780  1.00  0.00    -0.009 A 
HETATM   26  C16 UNL     1      23.796 -13.304  11.245  1.00  0.00     0.014 A 
HETATM   27  C17 UNL     1      24.140 -13.551  12.582  1.00  0.00     0.001 A 
HETATM   28  C18 UNL     1      23.215 -14.082  13.442  1.00  0.00     0.000 A 
HETATM   29  C19 UNL     1      21.952 -14.365  12.973  1.00  0.00     0.001 A 
HETATM   30  C20 UNL     1      21.622 -14.124  11.672  1.00  0.00     0.014 A 
ENDBRANCH   4  25
TORSDOF 5
ENDMDL
MODEL 5
REMARK VINA RESULT: -10.107426521      1.208      2.879
REMARK  5 active torsions:
REMARK  status: ('A' for Active; 'I' for Inactive)
REMARK    1  A    between atoms: C4_4  and  C5_5 
REMARK    2  A    between atoms: C9_9  and  C10_10 
REMARK    3  A    between atoms: C10_10  and  C11_11 
REMARK    4  A    between atoms: C14_14  and  C15_15 
REMARK    5  A    between atoms: N1_21  and  C21_22 
ROOT
HETATM    1  C11 UNL     1      21.635 -12.047   6.202  1.00  0.00     0.021 A 
HETATM    2  C12 UNL     1      22.319 -13.225   6.158  1.00  0.00     0.028 A 
HETATM    3  C13 UNL     1      21.543 -14.133   6.826  1.00  0.00     0.033 A 
HETATM    4  C14 UNL     1      20.379 -13.480   7.273  1.00  0.00     0.050 A 
HETATM    5  N1  UNL     1      20.448 -12.213   6.887  1.00  0.00    -0.315 N 
ENDROOT
BRANCH   1   6
HETATM    6  C10 UNL     1      22.127 -10.791   5.629  1.00  0.00     0.096 C 
BRANCH   6   7
HETATM    7  C9  UNL     1      21.304 -10.246   4.522  1.00  0.00    -0.052 A 
HETATM    8  C8  UNL     1      20.173 -10.991   4.171  1.00  0.00     0.007 A 
HETATM    9  C7  UNL     1      19.393 -10.528   3.144  1.00  0.00     0.001 A 
HETATM   10  C6  UNL     1      19.700  -9.370   2.473  1.00  0.00     0.012 A 
HETATM   11  C5  UNL     1      20.809  -8.604   2.790  1.00  0.00    -0.025 A 
HETATM   12  C27 UNL     1      21.583  -9.092   3.831  1.00  0.00     0.019 A 
BRANCH  11  13
HETATM   13  C4  UNL     1      21.129  -7.375   2.072  1.00  0.00    -0.026 A 
HETATM   14  C3  UNL     1      21.699  -7.385   0.813  1.00  0.00     0.012 A 
HETATM   15  C2  UNL     1      21.998  -6.205   0.141  1.00  0.00     0.001 A 
HETATM   16  C1  UNL     1      21.723  -4.983   0.733  1.00  0.00     0.000 A 
HETATM   17  C29 UNL     1      21.155  -4.947   1.988  1.00  0.00     0.001 A 
HETATM   18  C28 UNL     1      20.875  -6.130   2.619  1.00  0.00     0.012 A 
ENDBRANCH  11  13
ENDBRANCH   6   7
ENDBRANCH   1   6
BRANCH   5  19
HETATM   19  C21 UNL     1      19.542 -11.158   7.130  1.00  0.00     0.039 A 
HETATM   20  C22 UNL     1      19.918 -10.032   7.881  1.00  0.00     0.030 A 
HETATM   21  C23 UNL     1      19.094  -8.975   8.105  1.00  0.00     0.002 A 
HETATM   22  C24 UNL     1      17.815  -8.986   7.576  1.00  0.00     0.000 A 
HETATM   23  C25 UNL     1      17.397 -10.064   6.832  1.00  0.00     0.002 A 
HETATM   24  C26 UNL     1      18.242 -11.125   6.616  1.00  0.00     0.030 A 
ENDBRANCH   5  19
BRANCH   4  25
HETATM   25  C15 UNL     1      19.385 -14.238   8.072  1.00  0.00    -0.009 A 
HETATM   26  C16 UNL     1      19.140 -13.997   9.400  1.00  0.00     0.014 A 
HETATM   27  C17 UNL     1      18.224 -14.782  10.115  1.00  0.00     0.001 A 
HETATM   28  C18 UNL     1      17.560 -15.804   9.491  1.00  0.00     0.000 A 
HETATM   29  C19 UNL     1      17.807 -16.044   8.158  1.00  0.00     0.001 A 
HETATM   30  C20 UNL     1      18.699 -15.279   7.465  1.00  0.00     0.014 A 
ENDBRANCH   4  25
TORSDOF 5
ENDMDL
