MODEL 1
REMARK VINA RESULT: -10.001214486      0.000      0.000
REMARK  5 active torsions:
REMARK  status: ('A' for Active; 'I' for Inactive)
REMARK    1  A    between atoms: C1_1  and  C24_25 
REMARK    2  A    between atoms: C2_2  and  C3_3 
REMARK    3  A    between atoms: N1_5  and  C5_6 
REMARK    4  A    between atoms: C5_6  and  C6_7 
REMARK    5  A    between atoms: C5_6  and  C12_13 
ROOT
HETATM    1  C3  UNL     1      21.306 -10.941   5.697  1.00  0.00    -0.008 A 
HETATM    2  C4  UNL     1      21.668 -12.247   5.974  1.00  0.00     0.104 A 
HETATM    3  N1  UNL     1      21.188 -12.603   7.190  1.00  0.00    -0.342 N 
HETATM    4  C18 UNL     1      20.529 -11.534   7.677  1.00  0.00     0.046 A 
HETATM    5  C19 UNL     1      19.847 -11.335   8.869  1.00  0.00     0.030 A 
HETATM    6  C20 UNL     1      19.236 -10.155   9.180  1.00  0.00     0.002 A 
HETATM    7  C21 UNL     1      19.295  -9.116   8.276  1.00  0.00     0.001 A 
HETATM    8  C22 UNL     1      19.966  -9.284   7.082  1.00  0.00     0.014 A 
HETATM    9  C23 UNL     1      20.585 -10.500   6.785  1.00  0.00     0.002 A 
ENDROOT
BRANCH   3  10
HETATM   10  C5  UNL     1      21.358 -13.894   7.833  1.00  0.00     0.155 C 
BRANCH  10  11
HETATM   11  C6  UNL     1      22.091 -13.754   9.114  1.00  0.00    -0.031 A 
HETATM   12  C7  UNL     1      23.404 -13.281   9.150  1.00  0.00     0.009 A 
HETATM   13  C8  UNL     1      24.129 -13.106  10.292  1.00  0.00     0.001 A 
HETATM   14  C9  UNL     1      23.530 -13.416  11.504  1.00  0.00     0.000 A 
HETATM   15  C10 UNL     1      22.230 -13.891  11.531  1.00  0.00     0.001 A 
HETATM   16  C11 UNL     1      21.540 -14.049  10.349  1.00  0.00     0.009 A 
ENDBRANCH  10  11
BRANCH  10  17
HETATM   17  C12 UNL     1      20.099 -14.638   7.946  1.00  0.00    -0.031 A 
HETATM   18  C13 UNL     1      19.992 -15.643   8.887  1.00  0.00     0.009 A 
HETATM   19  C14 UNL     1      18.838 -16.379   9.067  1.00  0.00     0.001 A 
HETATM   20  C15 UNL     1      17.732 -16.115   8.286  1.00  0.00     0.000 A 
HETATM   21  C16 UNL     1      17.818 -15.114   7.342  1.00  0.00     0.001 A 
HETATM   22  C17 UNL     1      19.004 -14.378   7.175  1.00  0.00     0.009 A 
ENDBRANCH  10  17
ENDBRANCH   3  10
BRANCH   1  23
HETATM   23  C2  UNL     1      21.616 -10.163   4.483  1.00  0.00     0.014 C 
HETATM   24  C1  UNL     1      20.751  -9.286   4.037  1.00  0.00     0.012 C 
BRANCH  24  25
HETATM   25  C24 UNL     1      21.009  -8.499   2.854  1.00  0.00    -0.036 A 
HETATM   26  C25 UNL     1      21.962  -8.808   1.927  1.00  0.00     0.011 A 
HETATM   27  C26 UNL     1      22.176  -8.008   0.797  1.00  0.00     0.001 A 
HETATM   28  C27 UNL     1      21.424  -6.876   0.588  1.00  0.00     0.000 A 
HETATM   29  C28 UNL     1      20.462  -6.566   1.526  1.00  0.00     0.001 A 
HETATM   30  C29 UNL     1      20.255  -7.348   2.624  1.00  0.00     0.011 A 
ENDBRANCH  24  25
ENDBRANCH   1  23
TORSDOF 5
ENDMDL
MODEL 2
REMARK VINA RESULT: -9.849859723      0.280      1.251
REMARK  5 active torsions:
REMARK  status: ('A' for Active; 'I' for Inactive)
REMARK    1  A    between atoms: C1_1  and  C24_25 
REMARK    2  A    between atoms: C2_2  and  C3_3 
REMARK    3  A    between atoms: N1_5  and  C5_6 
REMARK    4  A    between atoms: C5_6  and  C6_7 
REMARK    5  A    between atoms: C5_6  and  C12_13 
ROOT
HETATM    1  C3  UNL     1      21.279 -11.142   5.863  1.00  0.00    -0.008 A 
HETATM    2  C4  UNL     1      21.667 -12.431   6.181  1.00  0.00     0.104 A 
HETATM    3  N1  UNL     1      21.176 -12.766   7.399  1.00  0.00    -0.342 N 
HETATM    4  C18 UNL     1      20.483 -11.700   7.845  1.00  0.00     0.046 A 
HETATM    5  C19 UNL     1      19.776 -11.485   9.021  1.00  0.00     0.030 A 
HETATM    6  C20 UNL     1      19.132 -10.313   9.289  1.00  0.00     0.002 A 
HETATM    7  C21 UNL     1      19.181  -9.298   8.358  1.00  0.00     0.001 A 
HETATM    8  C22 UNL     1      19.876  -9.482   7.179  1.00  0.00     0.014 A 
HETATM    9  C23 UNL     1      20.529 -10.689   6.926  1.00  0.00     0.002 A 
ENDROOT
BRANCH   3  10
HETATM   10  C5  UNL     1      21.366 -14.034   8.080  1.00  0.00     0.155 C 
BRANCH  10  11
HETATM   11  C6  UNL     1      22.056 -13.839   9.377  1.00  0.00    -0.031 A 
HETATM   12  C7  UNL     1      21.440 -14.174  10.584  1.00  0.00     0.009 A 
HETATM   13  C8  UNL     1      22.023 -14.042  11.809  1.00  0.00     0.001 A 
HETATM   14  C9  UNL     1      23.317 -13.544  11.871  1.00  0.00     0.000 A 
HETATM   15  C10 UNL     1      23.979 -13.194  10.707  1.00  0.00     0.001 A 
HETATM   16  C11 UNL     1      23.344 -13.347   9.493  1.00  0.00     0.009 A 
ENDBRANCH  10  11
BRANCH  10  17
HETATM   17  C12 UNL     1      20.128 -14.814   8.175  1.00  0.00    -0.031 A 
HETATM   18  C13 UNL     1      19.050 -14.464   7.386  1.00  0.00     0.009 A 
HETATM   19  C14 UNL     1      17.855 -15.155   7.403  1.00  0.00     0.001 A 
HETATM   20  C15 UNL     1      17.710 -16.247   8.235  1.00  0.00     0.000 A 
HETATM   21  C16 UNL     1      18.776 -16.613   9.029  1.00  0.00     0.001 A 
HETATM   22  C17 UNL     1      19.983 -15.894   8.996  1.00  0.00     0.009 A 
ENDBRANCH  10  17
ENDBRANCH   3  10
BRANCH   1  23
HETATM   23  C2  UNL     1      21.591 -10.390   4.633  1.00  0.00     0.014 C 
HETATM   24  C1  UNL     1      20.784  -9.438   4.234  1.00  0.00     0.012 C 
BRANCH  24  25
HETATM   25  C24 UNL     1      21.046  -8.672   3.038  1.00  0.00    -0.036 A 
HETATM   26  C25 UNL     1      21.925  -9.055   2.067  1.00  0.00     0.011 A 
HETATM   27  C26 UNL     1      22.148  -8.273   0.925  1.00  0.00     0.001 A 
HETATM   28  C27 UNL     1      21.479  -7.084   0.751  1.00  0.00     0.000 A 
HETATM   29  C28 UNL     1      20.591  -6.699   1.733  1.00  0.00     0.001 A 
HETATM   30  C29 UNL     1      20.377  -7.464   2.842  1.00  0.00     0.011 A 
ENDBRANCH  24  25
ENDBRANCH   1  23
TORSDOF 5
ENDMDL
MODEL 3
REMARK VINA RESULT: -8.876460072      1.991      3.940
REMARK  5 active torsions:
REMARK  status: ('A' for Active; 'I' for Inactive)
REMARK    1  A    between atoms: C1_1  and  C24_25 
REMARK    2  A    between atoms: C2_2  and  C3_3 
REMARK    3  A    between atoms: N1_5  and  C5_6 
REMARK    4  A    between atoms: C5_6  and  C6_7 
REMARK    5  A    between atoms: C5_6  and  C12_13 
ROOT
HETATM    1  C3  UNL     1      20.410  -9.334   4.486  1.00  0.00    -0.008 A 
HETATM    2  C4  UNL     1      21.193  -9.786   5.532  1.00  0.00     0.104 A 
HETATM    3  N1  UNL     1      20.723 -10.979   5.969  1.00  0.00    -0.342 N 
HETATM    4  C18 UNL     1      19.654 -11.279   5.206  1.00  0.00     0.046 A 
HETATM    5  C19 UNL     1      18.794 -12.369   5.210  1.00  0.00     0.030 A 
HETATM    6  C20 UNL     1      17.750 -12.486   4.339  1.00  0.00     0.002 A 
HETATM    7  C21 UNL     1      17.537 -11.485   3.416  1.00  0.00     0.001 A 
HETATM    8  C22 UNL     1      18.376 -10.389   3.388  1.00  0.00     0.014 A 
HETATM    9  C23 UNL     1      19.437 -10.289   4.289  1.00  0.00     0.002 A 
ENDROOT
BRANCH   3  10
HETATM   10  C5  UNL     1      21.275 -11.773   7.053  1.00  0.00     0.155 C 
BRANCH  10  11
HETATM   11  C6  UNL     1      20.206 -12.232   7.970  1.00  0.00    -0.031 A 
HETATM   12  C7  UNL     1      19.737 -13.547   7.939  1.00  0.00     0.009 A 
HETATM   13  C8  UNL     1      18.774 -14.041   8.768  1.00  0.00     0.001 A 
HETATM   14  C9  UNL     1      18.216 -13.189   9.709  1.00  0.00     0.000 A 
HETATM   15  C10 UNL     1      18.640 -11.873   9.787  1.00  0.00     0.001 A 
HETATM   16  C11 UNL     1      19.617 -11.423   8.927  1.00  0.00     0.009 A 
ENDBRANCH  10  11
BRANCH  10  17
HETATM   17  C12 UNL     1      22.152 -12.847   6.574  1.00  0.00    -0.031 A 
HETATM   18  C13 UNL     1      22.562 -12.844   5.255  1.00  0.00     0.009 A 
HETATM   19  C14 UNL     1      23.398 -13.809   4.731  1.00  0.00     0.001 A 
HETATM   20  C15 UNL     1      23.858 -14.827   5.540  1.00  0.00     0.000 A 
HETATM   21  C16 UNL     1      23.461 -14.847   6.860  1.00  0.00     0.001 A 
HETATM   22  C17 UNL     1      22.608 -13.855   7.373  1.00  0.00     0.009 A 
ENDBRANCH  10  17
ENDBRANCH   3  10
BRANCH   1  23
HETATM   23  C2  UNL     1      20.573  -8.085   3.719  1.00  0.00     0.014 C 
HETATM   24  C1  UNL     1      21.272  -8.092   2.610  1.00  0.00     0.012 C 
BRANCH  24  25
HETATM   25  C24 UNL     1      21.459  -6.896   1.823  1.00  0.00    -0.036 A 
HETATM   26  C25 UNL     1      21.839  -6.899   0.512  1.00  0.00     0.011 A 
HETATM   27  C26 UNL     1      22.013  -5.709  -0.207  1.00  0.00     0.001 A 
HETATM   28  C27 UNL     1      21.804  -4.491   0.396  1.00  0.00     0.000 A 
HETATM   29  C28 UNL     1      21.421  -4.490   1.720  1.00  0.00     0.001 A 
HETATM   30  C29 UNL     1      21.252  -5.651   2.416  1.00  0.00     0.011 A 
ENDBRANCH  24  25
ENDBRANCH   1  23
TORSDOF 5
ENDMDL
MODEL 4
REMARK VINA RESULT: -8.769160234      4.341      8.188
REMARK  5 active torsions:
REMARK  status: ('A' for Active; 'I' for Inactive)
REMARK    1  A    between atoms: C1_1  and  C24_25 
REMARK    2  A    between atoms: C2_2  and  C3_3 
REMARK    3  A    between atoms: N1_5  and  C5_6 
REMARK    4  A    between atoms: C5_6  and  C6_7 
REMARK    5  A    between atoms: C5_6  and  C12_13 
ROOT
HETATM    1  C3  UNL     1      18.170 -16.818   8.347  1.00  0.00    -0.008 A 
HETATM    2  C4  UNL     1      17.739 -18.002   7.776  1.00  0.00     0.104 A 
HETATM    3  N1  UNL     1      18.267 -19.051   8.452  1.00  0.00    -0.342 N 
HETATM    4  C18 UNL     1      19.024 -18.536   9.441  1.00  0.00     0.046 A 
HETATM    5  C19 UNL     1      19.789 -19.141  10.428  1.00  0.00     0.030 A 
HETATM    6  C20 UNL     1      20.496 -18.428  11.353  1.00  0.00     0.002 A 
HETATM    7  C21 UNL     1      20.451 -17.052  11.308  1.00  0.00     0.001 A 
HETATM    8  C22 UNL     1      19.699 -16.421  10.337  1.00  0.00     0.014 A 
HETATM    9  C23 UNL     1      18.985 -17.170   9.401  1.00  0.00     0.002 A 
ENDROOT
BRANCH   3  10
HETATM   10  C5  UNL     1      18.051 -20.457   8.157  1.00  0.00     0.155 C 
BRANCH  10  11
HETATM   11  C6  UNL     1      16.606 -20.784   8.175  1.00  0.00    -0.031 A 
HETATM   12  C7  UNL     1      15.888 -20.831   9.371  1.00  0.00     0.009 A 
HETATM   13  C8  UNL     1      14.554 -21.103   9.459  1.00  0.00     0.001 A 
HETATM   14  C9  UNL     1      13.855 -21.351   8.287  1.00  0.00     0.000 A 
HETATM   15  C10 UNL     1      14.515 -21.320   7.070  1.00  0.00     0.001 A 
HETATM   16  C11 UNL     1      15.863 -21.039   7.035  1.00  0.00     0.009 A 
ENDBRANCH  10  11
BRANCH  10  17
HETATM   17  C12 UNL     1      18.746 -20.890   6.941  1.00  0.00    -0.031 A 
HETATM   18  C13 UNL     1      20.093 -21.188   7.005  1.00  0.00     0.009 A 
HETATM   19  C14 UNL     1      20.816 -21.618   5.911  1.00  0.00     0.001 A 
HETATM   20  C15 UNL     1      20.186 -21.766   4.692  1.00  0.00     0.000 A 
HETATM   21  C16 UNL     1      18.841 -21.475   4.608  1.00  0.00     0.001 A 
HETATM   22  C17 UNL     1      18.125 -21.038   5.735  1.00  0.00     0.009 A 
ENDBRANCH  10  17
ENDBRANCH   3  10
BRANCH   1  23
HETATM   23  C2  UNL     1      17.831 -15.446   7.929  1.00  0.00     0.014 C 
HETATM   24  C1  UNL     1      18.694 -14.748   7.231  1.00  0.00     0.012 C 
BRANCH  24  25
HETATM   25  C24 UNL     1      18.408 -13.401   6.797  1.00  0.00    -0.036 A 
HETATM   26  C25 UNL     1      18.615 -12.951   5.525  1.00  0.00     0.011 A 
HETATM   27  C26 UNL     1      18.326 -11.631   5.155  1.00  0.00     0.001 A 
HETATM   28  C27 UNL     1      17.819 -10.742   6.074  1.00  0.00     0.000 A 
HETATM   29  C28 UNL     1      17.611 -11.198   7.358  1.00  0.00     0.001 A 
HETATM   30  C29 UNL     1      17.893 -12.485   7.714  1.00  0.00     0.011 A 
ENDBRANCH  24  25
ENDBRANCH   1  23
TORSDOF 5
ENDMDL
MODEL 5
REMARK VINA RESULT: -8.756773780      2.011      3.859
REMARK  5 active torsions:
REMARK  status: ('A' for Active; 'I' for Inactive)
REMARK    1  A    between atoms: C1_1  and  C24_25 
REMARK    2  A    between atoms: C2_2  and  C3_3 
REMARK    3  A    between atoms: N1_5  and  C5_6 
REMARK    4  A    between atoms: C5_6  and  C6_7 
REMARK    5  A    between atoms: C5_6  and  C12_13 
ROOT
HETATM    1  C3  UNL     1      20.452  -9.339   4.436  1.00  0.00    -0.008 A 
HETATM    2  C4  UNL     1      21.264  -9.808   5.452  1.00  0.00     0.104 A 
HETATM    3  N1  UNL     1      20.798 -11.003   5.890  1.00  0.00    -0.342 N 
HETATM    4  C18 UNL     1      19.704 -11.287   5.158  1.00  0.00     0.046 A 
HETATM    5  C19 UNL     1      18.836 -12.370   5.177  1.00  0.00     0.030 A 
HETATM    6  C20 UNL     1      17.764 -12.470   4.338  1.00  0.00     0.002 A 
HETATM    7  C21 UNL     1      17.531 -11.458   3.433  1.00  0.00     0.001 A 
HETATM    8  C22 UNL     1      18.376 -10.367   3.391  1.00  0.00     0.014 A 
HETATM    9  C23 UNL     1      19.466 -10.285   4.259  1.00  0.00     0.002 A 
ENDROOT
BRANCH   3  10
HETATM   10  C5  UNL     1      21.378 -11.813   6.947  1.00  0.00     0.155 C 
BRANCH  10  11
HETATM   11  C6  UNL     1      20.330 -12.303   7.873  1.00  0.00    -0.031 A 
HETATM   12  C7  UNL     1      19.781 -11.474   8.852  1.00  0.00     0.009 A 
HETATM   13  C8  UNL     1      18.800 -11.852   9.721  1.00  0.00     0.001 A 
HETATM   14  C9  UNL     1      18.307 -13.145   9.632  1.00  0.00     0.000 A 
HETATM   15  C10 UNL     1      18.813 -14.014   8.681  1.00  0.00     0.001 A 
HETATM   16  C11 UNL     1      19.804 -13.583   7.827  1.00  0.00     0.009 A 
ENDBRANCH  10  11
BRANCH  10  17
HETATM   17  C12 UNL     1      22.259 -12.866   6.431  1.00  0.00    -0.031 A 
HETATM   18  C13 UNL     1      22.672 -13.874   7.280  1.00  0.00     0.009 A 
HETATM   19  C14 UNL     1      23.487 -14.909   6.870  1.00  0.00     0.001 A 
HETATM   20  C15 UNL     1      23.917 -14.961   5.560  1.00  0.00     0.000 A 
HETATM   21  C16 UNL     1      23.514 -13.965   4.696  1.00  0.00     0.001 A 
HETATM   22  C17 UNL     1      22.685 -12.919   5.137  1.00  0.00     0.009 A 
ENDBRANCH  10  17
ENDBRANCH   3  10
BRANCH   1  23
HETATM   23  C2  UNL     1      20.600  -8.083   3.677  1.00  0.00     0.014 C 
HETATM   24  C1  UNL     1      21.288  -8.076   2.562  1.00  0.00     0.012 C 
BRANCH  24  25
HETATM   25  C24 UNL     1      21.461  -6.873   1.783  1.00  0.00    -0.036 A 
HETATM   26  C25 UNL     1      21.790  -6.864   0.458  1.00  0.00     0.011 A 
HETATM   27  C26 UNL     1      21.952  -5.667  -0.252  1.00  0.00     0.001 A 
HETATM   28  C27 UNL     1      21.782  -4.454   0.373  1.00  0.00     0.000 A 
HETATM   29  C28 UNL     1      21.449  -4.465   1.711  1.00  0.00     0.001 A 
HETATM   30  C29 UNL     1      21.292  -5.633   2.399  1.00  0.00     0.011 A 
ENDBRANCH  24  25
ENDBRANCH   1  23
TORSDOF 5
ENDMDL
