MODEL 1
REMARK VINA RESULT: -10.977625122      0.000      0.000
REMARK  5 active torsions:
REMARK  status: ('A' for Active; 'I' for Inactive)
REMARK    1  A    between atoms: C4_4  and  C5_5 
REMARK    2  A    between atoms: C8_8  and  C9_9 
REMARK    3  A    between atoms: C13_13  and  O1_14 
REMARK    4  A    between atoms: O1_14  and  C14_15 
REMARK    5  A    between atoms: C14_15  and  C15_16 
ROOT
HETATM    1  C9  UNL     1      18.774 -10.877   5.002  1.00  0.00    -0.023 A 
HETATM    2  C10 UNL     1      18.402 -12.068   4.409  1.00  0.00     0.012 A 
HETATM    3  C11 UNL     1      17.861 -13.095   5.172  1.00  0.00     0.004 A 
HETATM    4  C12 UNL     1      17.683 -12.951   6.537  1.00  0.00     0.037 A 
HETATM    5  C13 UNL     1      18.049 -11.764   7.147  1.00  0.00     0.070 A 
HETATM    6  C25 UNL     1      18.579 -10.772   6.370  1.00  0.00     0.049 A 
ENDROOT
BRANCH   1   7
HETATM    7  C8  UNL     1      19.340  -9.798   4.210  1.00  0.00    -0.026 A 
HETATM    8  C7  UNL     1      20.302  -8.982   4.759  1.00  0.00     0.013 A 
HETATM    9  C6  UNL     1      20.874  -7.938   4.049  1.00  0.00     0.013 A 
HETATM   10  C5  UNL     1      20.496  -7.676   2.749  1.00  0.00    -0.026 A 
HETATM   11  C27 UNL     1      19.525  -8.494   2.185  1.00  0.00     0.013 A 
HETATM   12  C26 UNL     1      18.967  -9.529   2.912  1.00  0.00     0.013 A 
BRANCH  10  13
HETATM   13  C4  UNL     1      21.068  -6.595   1.967  1.00  0.00    -0.026 A 
HETATM   14  C3  UNL     1      21.261  -5.355   2.519  1.00  0.00     0.012 A 
HETATM   15  C2  UNL     1      21.810  -4.357   1.726  1.00  0.00     0.001 A 
HETATM   16  C1  UNL     1      22.171  -4.561   0.400  1.00  0.00     0.000 A 
HETATM   17  C29 UNL     1      21.968  -5.812  -0.131  1.00  0.00     0.001 A 
HETATM   18  C28 UNL     1      21.417  -6.817   0.660  1.00  0.00     0.012 A 
ENDBRANCH  10  13
ENDBRANCH   1   7
BRANCH   5  19
HETATM   19  O1  UNL     1      17.861 -11.643   8.517  1.00  0.00    -0.347 OA
BRANCH  19  20
HETATM   20  C14 UNL     1      18.920 -11.466   9.422  1.00  0.00     0.215 C 
BRANCH  20  21
HETATM   21  C15 UNL     1      19.951 -12.491   9.211  1.00  0.00    -0.023 A 
HETATM   22  C16 UNL     1      21.189 -12.125   8.735  1.00  0.00     0.010 A 
HETATM   23  C17 UNL     1      22.172 -13.044   8.526  1.00  0.00     0.002 A 
HETATM   24  C18 UNL     1      21.993 -14.378   8.775  1.00  0.00     0.012 A 
HETATM   25  C19 UNL     1      20.744 -14.762   9.257  1.00  0.00    -0.025 A 
HETATM   26  C20 UNL     1      20.481 -16.091   9.534  1.00  0.00     0.012 A 
HETATM   27  C24 UNL     1      19.748 -13.833   9.469  1.00  0.00    -0.018 A 
HETATM   28  C21 UNL     1      19.247 -16.481  10.013  1.00  0.00     0.001 A 
HETATM   29  C22 UNL     1      18.273 -15.528  10.214  1.00  0.00     0.001 A 
HETATM   30  C23 UNL     1      18.506 -14.202   9.947  1.00  0.00     0.013 A 
ENDBRANCH  20  21
ENDBRANCH  19  20
ENDBRANCH   5  19
TORSDOF 5
ENDMDL
MODEL 2
REMARK VINA RESULT: -10.970923989      1.210      2.678
REMARK  5 active torsions:
REMARK  status: ('A' for Active; 'I' for Inactive)
REMARK    1  A    between atoms: C4_4  and  C5_5 
REMARK    2  A    between atoms: C8_8  and  C9_9 
REMARK    3  A    between atoms: C13_13  and  O1_14 
REMARK    4  A    between atoms: O1_14  and  C14_15 
REMARK    5  A    between atoms: C14_15  and  C15_16 
ROOT
HETATM    1  C9  UNL     1      18.667 -10.352   5.633  1.00  0.00    -0.023 A 
HETATM    2  C10 UNL     1      18.167  -9.881   6.831  1.00  0.00     0.012 A 
HETATM    3  C11 UNL     1      17.589 -10.754   7.744  1.00  0.00     0.004 A 
HETATM    4  C12 UNL     1      17.499 -12.108   7.475  1.00  0.00     0.037 A 
HETATM    5  C13 UNL     1      17.995 -12.597   6.280  1.00  0.00     0.070 A 
HETATM    6  C25 UNL     1      18.558 -11.713   5.402  1.00  0.00     0.049 A 
ENDROOT
BRANCH   1   7
HETATM    7  C8  UNL     1      19.274  -9.444   4.673  1.00  0.00    -0.026 A 
HETATM    8  C7  UNL     1      20.217  -8.537   5.095  1.00  0.00     0.013 A 
HETATM    9  C6  UNL     1      20.827  -7.649   4.222  1.00  0.00     0.013 A 
HETATM   10  C5  UNL     1      20.507  -7.643   2.882  1.00  0.00    -0.026 A 
HETATM   11  C27 UNL     1      19.554  -8.556   2.444  1.00  0.00     0.013 A 
HETATM   12  C26 UNL     1      18.959  -9.432   3.332  1.00  0.00     0.013 A 
BRANCH  10  13
HETATM   13  C4  UNL     1      21.119  -6.733   1.931  1.00  0.00    -0.026 A 
HETATM   14  C3  UNL     1      21.441  -7.150   0.665  1.00  0.00     0.012 A 
HETATM   15  C2  UNL     1      22.025  -6.238  -0.202  1.00  0.00     0.001 A 
HETATM   16  C1  UNL     1      22.296  -4.924   0.155  1.00  0.00     0.000 A 
HETATM   17  C29 UNL     1      21.964  -4.528   1.429  1.00  0.00     0.001 A 
HETATM   18  C28 UNL     1      21.378  -5.439   2.305  1.00  0.00     0.012 A 
ENDBRANCH  10  13
ENDBRANCH   1   7
BRANCH   5  19
HETATM   19  O1  UNL     1      17.894 -13.959   6.033  1.00  0.00    -0.347 OA
BRANCH  19  20
HETATM   20  C14 UNL     1      18.917 -14.871   6.341  1.00  0.00     0.215 C 
BRANCH  20  21
HETATM   21  C15 UNL     1      18.916 -15.175   7.779  1.00  0.00    -0.023 A 
HETATM   22  C16 UNL     1      17.882 -15.904   8.321  1.00  0.00     0.010 A 
HETATM   23  C17 UNL     1      17.845 -16.208   9.648  1.00  0.00     0.002 A 
HETATM   24  C18 UNL     1      18.823 -15.812  10.519  1.00  0.00     0.012 A 
HETATM   25  C19 UNL     1      19.876 -15.073   9.983  1.00  0.00    -0.025 A 
HETATM   26  C20 UNL     1      20.906 -14.635  10.795  1.00  0.00     0.012 A 
HETATM   27  C24 UNL     1      19.916 -14.765   8.640  1.00  0.00    -0.018 A 
HETATM   28  C21 UNL     1      21.953 -13.903  10.273  1.00  0.00     0.001 A 
HETATM   29  C22 UNL     1      21.964 -13.612   8.927  1.00  0.00     0.001 A 
HETATM   30  C23 UNL     1      20.954 -14.034   8.098  1.00  0.00     0.013 A 
ENDBRANCH  20  21
ENDBRANCH  19  20
ENDBRANCH   5  19
TORSDOF 5
ENDMDL
MODEL 3
REMARK VINA RESULT: -10.937441803      1.345      1.897
REMARK  5 active torsions:
REMARK  status: ('A' for Active; 'I' for Inactive)
REMARK    1  A    between atoms: C4_4  and  C5_5 
REMARK    2  A    between atoms: C8_8  and  C9_9 
REMARK    3  A    between atoms: C13_13  and  O1_14 
REMARK    4  A    between atoms: O1_14  and  C14_15 
REMARK    5  A    between atoms: C14_15  and  C15_16 
ROOT
HETATM    1  C9  UNL     1      18.636 -10.675   5.606  1.00  0.00    -0.023 A 
HETATM    2  C10 UNL     1      17.713 -10.274   6.551  1.00  0.00     0.012 A 
HETATM    3  C11 UNL     1      17.163 -11.196   7.434  1.00  0.00     0.004 A 
HETATM    4  C12 UNL     1      17.526 -12.531   7.386  1.00  0.00     0.037 A 
HETATM    5  C13 UNL     1      18.450 -12.949   6.446  1.00  0.00     0.070 A 
HETATM    6  C25 UNL     1      18.973 -12.019   5.592  1.00  0.00     0.049 A 
ENDROOT
BRANCH   1   7
HETATM    7  C8  UNL     1      19.216  -9.717   4.680  1.00  0.00    -0.026 A 
HETATM    8  C7  UNL     1      20.193  -8.852   5.116  1.00  0.00     0.013 A 
HETATM    9  C6  UNL     1      20.779  -7.919   4.275  1.00  0.00     0.013 A 
HETATM   10  C5  UNL     1      20.400  -7.822   2.954  1.00  0.00    -0.026 A 
HETATM   11  C27 UNL     1      19.413  -8.690   2.502  1.00  0.00     0.013 A 
HETATM   12  C26 UNL     1      18.842  -9.612   3.358  1.00  0.00     0.013 A 
BRANCH  10  13
HETATM   13  C4  UNL     1      20.985  -6.860   2.037  1.00  0.00    -0.026 A 
HETATM   14  C3  UNL     1      21.111  -5.541   2.389  1.00  0.00     0.012 A 
HETATM   15  C2  UNL     1      21.676  -4.664   1.473  1.00  0.00     0.001 A 
HETATM   16  C1  UNL     1      22.120  -5.066   0.220  1.00  0.00     0.000 A 
HETATM   17  C29 UNL     1      21.983  -6.393  -0.111  1.00  0.00     0.001 A 
HETATM   18  C28 UNL     1      21.416  -7.277   0.804  1.00  0.00     0.012 A 
ENDBRANCH  10  13
ENDBRANCH   1   7
BRANCH   5  19
HETATM   19  O1  UNL     1      18.799 -14.293   6.418  1.00  0.00    -0.347 OA
BRANCH  19  20
HETATM   20  C14 UNL     1      19.303 -14.976   7.537  1.00  0.00     0.215 C 
BRANCH  20  21
HETATM   21  C15 UNL     1      20.537 -14.336   8.015  1.00  0.00    -0.023 A 
HETATM   22  C16 UNL     1      21.351 -13.675   7.124  1.00  0.00     0.010 A 
HETATM   23  C17 UNL     1      22.502 -13.068   7.527  1.00  0.00     0.002 A 
HETATM   24  C18 UNL     1      22.918 -13.077   8.831  1.00  0.00     0.012 A 
HETATM   25  C19 UNL     1      22.103 -13.744   9.743  1.00  0.00    -0.025 A 
HETATM   26  C20 UNL     1      22.451 -13.800  11.080  1.00  0.00     0.012 A 
HETATM   27  C24 UNL     1      20.937 -14.358   9.337  1.00  0.00    -0.018 A 
HETATM   28  C21 UNL     1      21.649 -14.458  11.991  1.00  0.00     0.001 A 
HETATM   29  C22 UNL     1      20.491 -15.061  11.553  1.00  0.00     0.001 A 
HETATM   30  C23 UNL     1      20.121 -15.021  10.232  1.00  0.00     0.013 A 
ENDBRANCH  20  21
ENDBRANCH  19  20
ENDBRANCH   5  19
TORSDOF 5
ENDMDL
MODEL 4
REMARK VINA RESULT: -10.925337641      0.948      1.210
REMARK  5 active torsions:
REMARK  status: ('A' for Active; 'I' for Inactive)
REMARK    1  A    between atoms: C4_4  and  C5_5 
REMARK    2  A    between atoms: C8_8  and  C9_9 
REMARK    3  A    between atoms: C13_13  and  O1_14 
REMARK    4  A    between atoms: O1_14  and  C14_15 
REMARK    5  A    between atoms: C14_15  and  C15_16 
ROOT
HETATM    1  C9  UNL     1      18.765 -11.165   5.031  1.00  0.00    -0.023 A 
HETATM    2  C10 UNL     1      18.407 -12.337   4.394  1.00  0.00     0.012 A 
HETATM    3  C11 UNL     1      17.867 -13.393   5.117  1.00  0.00     0.004 A 
HETATM    4  C12 UNL     1      17.678 -13.297   6.484  1.00  0.00     0.037 A 
HETATM    5  C13 UNL     1      18.032 -12.130   7.137  1.00  0.00     0.070 A 
HETATM    6  C25 UNL     1      18.560 -11.108   6.399  1.00  0.00     0.049 A 
ENDROOT
BRANCH   1   7
HETATM    7  C8  UNL     1      19.330 -10.054   4.281  1.00  0.00    -0.026 A 
HETATM    8  C7  UNL     1      20.280  -9.250   4.865  1.00  0.00     0.013 A 
HETATM    9  C6  UNL     1      20.850  -8.179   4.195  1.00  0.00     0.013 A 
HETATM   10  C5  UNL     1      20.481  -7.876   2.902  1.00  0.00    -0.026 A 
HETATM   11  C27 UNL     1      19.521  -8.681   2.303  1.00  0.00     0.013 A 
HETATM   12  C26 UNL     1      18.965  -9.744   2.988  1.00  0.00     0.013 A 
BRANCH  10  13
HETATM   13  C4  UNL     1      21.050  -6.764   2.162  1.00  0.00    -0.026 A 
HETATM   14  C3  UNL     1      21.206  -5.535   2.750  1.00  0.00     0.012 A 
HETATM   15  C2  UNL     1      21.755  -4.507   1.996  1.00  0.00     0.001 A 
HETATM   16  C1  UNL     1      22.152  -4.670   0.676  1.00  0.00     0.000 A 
HETATM   17  C29 UNL     1      21.986  -5.911   0.107  1.00  0.00     0.001 A 
HETATM   18  C28 UNL     1      21.436  -6.946   0.859  1.00  0.00     0.012 A 
ENDBRANCH  10  13
ENDBRANCH   1   7
BRANCH   5  19
HETATM   19  O1  UNL     1      17.833 -12.058   8.510  1.00  0.00    -0.347 OA
BRANCH  19  20
HETATM   20  C14 UNL     1      17.505 -13.175   9.296  1.00  0.00     0.215 C 
BRANCH  20  21
HETATM   21  C15 UNL     1      18.722 -13.888   9.706  1.00  0.00    -0.023 A 
HETATM   22  C16 UNL     1      19.834 -13.174  10.092  1.00  0.00     0.010 A 
HETATM   23  C17 UNL     1      20.981 -13.797  10.480  1.00  0.00     0.002 A 
HETATM   24  C18 UNL     1      21.101 -15.160  10.511  1.00  0.00     0.012 A 
HETATM   25  C19 UNL     1      19.983 -15.894  10.122  1.00  0.00    -0.025 A 
HETATM   26  C20 UNL     1      20.021 -17.277  10.124  1.00  0.00     0.012 A 
HETATM   27  C24 UNL     1      18.821 -15.266   9.730  1.00  0.00    -0.018 A 
HETATM   28  C21 UNL     1      18.918 -18.013   9.742  1.00  0.00     0.001 A 
HETATM   29  C22 UNL     1      17.772 -17.355   9.355  1.00  0.00     0.001 A 
HETATM   30  C23 UNL     1      17.707 -15.983   9.342  1.00  0.00     0.013 A 
ENDBRANCH  20  21
ENDBRANCH  19  20
ENDBRANCH   5  19
TORSDOF 5
ENDMDL
MODEL 5
REMARK VINA RESULT: -10.837537422      1.535      2.559
REMARK  5 active torsions:
REMARK  status: ('A' for Active; 'I' for Inactive)
REMARK    1  A    between atoms: C4_4  and  C5_5 
REMARK    2  A    between atoms: C8_8  and  C9_9 
REMARK    3  A    between atoms: C13_13  and  O1_14 
REMARK    4  A    between atoms: O1_14  and  C14_15 
REMARK    5  A    between atoms: C14_15  and  C15_16 
ROOT
HETATM    1  C9  UNL     1      18.638 -10.541   5.592  1.00  0.00    -0.023 A 
HETATM    2  C10 UNL     1      17.689 -10.113   6.499  1.00  0.00     0.012 A 
HETATM    3  C11 UNL     1      17.110 -11.010   7.387  1.00  0.00     0.004 A 
HETATM    4  C12 UNL     1      17.469 -12.347   7.385  1.00  0.00     0.037 A 
HETATM    5  C13 UNL     1      18.419 -12.792   6.483  1.00  0.00     0.070 A 
HETATM    6  C25 UNL     1      18.970 -11.885   5.621  1.00  0.00     0.049 A 
ENDROOT
BRANCH   1   7
HETATM    7  C8  UNL     1      19.249  -9.607   4.659  1.00  0.00    -0.026 A 
HETATM    8  C7  UNL     1      20.252  -8.771   5.090  1.00  0.00     0.013 A 
HETATM    9  C6  UNL     1      20.867  -7.863   4.243  1.00  0.00     0.013 A 
HETATM   10  C5  UNL     1      20.493  -7.763   2.920  1.00  0.00    -0.026 A 
HETATM   11  C27 UNL     1      19.480  -8.603   2.474  1.00  0.00     0.013 A 
HETATM   12  C26 UNL     1      18.880  -9.502   3.336  1.00  0.00     0.013 A 
BRANCH  10  13
HETATM   13  C4  UNL     1      21.109  -6.827   1.997  1.00  0.00    -0.026 A 
HETATM   14  C3  UNL     1      21.405  -7.201   0.711  1.00  0.00     0.012 A 
HETATM   15  C2  UNL     1      21.995  -6.267  -0.129  1.00  0.00     0.001 A 
HETATM   16  C1  UNL     1      22.295  -4.973   0.276  1.00  0.00     0.000 A 
HETATM   17  C29 UNL     1      21.988  -4.621   1.569  1.00  0.00     0.001 A 
HETATM   18  C28 UNL     1      21.398  -5.555   2.417  1.00  0.00     0.012 A 
ENDBRANCH  10  13
ENDBRANCH   1   7
BRANCH   5  19
HETATM   19  O1  UNL     1      18.763 -14.137   6.499  1.00  0.00    -0.347 OA
BRANCH  19  20
HETATM   20  C14 UNL     1      18.016 -15.109   7.185  1.00  0.00     0.215 C 
BRANCH  20  21
HETATM   21  C15 UNL     1      18.816 -15.702   8.265  1.00  0.00    -0.023 A 
HETATM   22  C16 UNL     1      19.768 -14.942   8.906  1.00  0.00     0.010 A 
HETATM   23  C17 UNL     1      20.529 -15.454   9.912  1.00  0.00     0.002 A 
HETATM   24  C18 UNL     1      20.398 -16.746  10.347  1.00  0.00     0.012 A 
HETATM   25  C19 UNL     1      19.438 -17.526   9.706  1.00  0.00    -0.025 A 
HETATM   26  C20 UNL     1      19.242 -18.842  10.085  1.00  0.00     0.012 A 
HETATM   27  C24 UNL     1      18.666 -17.010   8.688  1.00  0.00    -0.018 A 
HETATM   28  C21 UNL     1      18.293 -19.623   9.457  1.00  0.00     0.001 A 
HETATM   29  C22 UNL     1      17.538 -19.076   8.443  1.00  0.00     0.001 A 
HETATM   30  C23 UNL     1      17.712 -17.773   8.046  1.00  0.00     0.013 A 
ENDBRANCH  20  21
ENDBRANCH  19  20
ENDBRANCH   5  19
TORSDOF 5
ENDMDL
