MODEL 1
REMARK VINA RESULT: -10.423076021      0.000      0.000
REMARK  5 active torsions:
REMARK  status: ('A' for Active; 'I' for Inactive)
REMARK    1  A    between atoms: C4_4  and  C5_5 
REMARK    2  A    between atoms: C10_10  and  O1_11 
REMARK    3  A    between atoms: O1_11  and  C11_12 
REMARK    4  A    between atoms: C11_12  and  C12_13 
REMARK    5  A    between atoms: C15_16  and  C16_17 
ROOT
HETATM    1  C12 UNL     1      21.520 -11.645   7.345  1.00  0.00    -0.034 A 
HETATM    2  C13 UNL     1      21.999 -12.929   7.073  1.00  0.00     0.010 A 
HETATM    3  C14 UNL     1      21.804 -13.990   7.926  1.00  0.00     0.013 A 
HETATM    4  C15 UNL     1      21.103 -13.823   9.129  1.00  0.00    -0.025 A 
HETATM    5  C26 UNL     1      20.633 -12.554   9.390  1.00  0.00     0.013 A 
HETATM    6  C27 UNL     1      20.832 -11.494   8.531  1.00  0.00     0.010 A 
ENDROOT
BRANCH   1   7
HETATM    7  C11 UNL     1      21.747 -10.534   6.380  1.00  0.00     0.214 C 
BRANCH   7   8
HETATM    8  O1  UNL     1      20.614  -9.769   6.193  1.00  0.00    -0.346 OA
BRANCH   8   9
HETATM    9  C10 UNL     1      20.014  -9.579   4.981  1.00  0.00     0.080 A 
HETATM   10  C5  UNL     1      18.893 -10.344   4.696  1.00  0.00     0.007 A 
HETATM   11  C6  UNL     1      18.212 -10.237   3.505  1.00  0.00     0.015 A 
HETATM   12  C7  UNL     1      18.662  -9.327   2.551  1.00  0.00     0.001 A 
HETATM   13  C8  UNL     1      19.768  -8.551   2.795  1.00  0.00     0.003 A 
HETATM   14  C9  UNL     1      20.444  -8.679   4.014  1.00  0.00     0.037 A 
BRANCH  10  15
HETATM   15  C4  UNL     1      18.419 -11.293   5.693  1.00  0.00    -0.023 A 
HETATM   16  C3  UNL     1      17.765 -10.907   6.837  1.00  0.00     0.012 A 
HETATM   17  C2  UNL     1      17.335 -11.834   7.763  1.00  0.00     0.001 A 
HETATM   18  C1  UNL     1      17.568 -13.172   7.531  1.00  0.00     0.000 A 
HETATM   19  C29 UNL     1      18.217 -13.577   6.400  1.00  0.00     0.001 A 
HETATM   20  C28 UNL     1      18.637 -12.644   5.492  1.00  0.00     0.012 A 
ENDBRANCH  10  15
ENDBRANCH   8   9
ENDBRANCH   7   8
ENDBRANCH   1   7
BRANCH   4  21
HETATM   21  C16 UNL     1      20.858 -14.958  10.005  1.00  0.00    -0.015 A 
HETATM   22  C17 UNL     1      20.192 -16.058   9.449  1.00  0.00     0.013 A 
HETATM   23  C18 UNL     1      19.918 -17.115  10.282  1.00  0.00     0.002 A 
HETATM   24  C19 UNL     1      20.279 -17.105  11.608  1.00  0.00     0.012 A 
HETATM   25  C20 UNL     1      20.934 -16.002  12.110  1.00  0.00    -0.025 A 
HETATM   26  C21 UNL     1      21.317 -15.972  13.435  1.00  0.00     0.012 A 
HETATM   27  C25 UNL     1      21.233 -14.915  11.317  1.00  0.00    -0.015 A 
HETATM   28  C22 UNL     1      21.979 -14.898  13.964  1.00  0.00     0.001 A 
HETATM   29  C23 UNL     1      22.292 -13.805  13.203  1.00  0.00     0.001 A 
HETATM   30  C24 UNL     1      21.906 -13.831  11.863  1.00  0.00     0.013 A 
ENDBRANCH   4  21
TORSDOF 5
ENDMDL
MODEL 2
REMARK VINA RESULT: -10.261906538      1.454      3.332
REMARK  5 active torsions:
REMARK  status: ('A' for Active; 'I' for Inactive)
REMARK    1  A    between atoms: C4_4  and  C5_5 
REMARK    2  A    between atoms: C10_10  and  O1_11 
REMARK    3  A    between atoms: O1_11  and  C11_12 
REMARK    4  A    between atoms: C11_12  and  C12_13 
REMARK    5  A    between atoms: C15_16  and  C16_17 
ROOT
HETATM    1  C12 UNL     1      17.949 -11.396   5.395  1.00  0.00    -0.034 A 
HETATM    2  C13 UNL     1      18.546 -12.595   4.997  1.00  0.00     0.010 A 
HETATM    3  C14 UNL     1      18.742 -13.648   5.859  1.00  0.00     0.013 A 
HETATM    4  C15 UNL     1      18.345 -13.560   7.201  1.00  0.00    -0.025 A 
HETATM    5  C26 UNL     1      17.757 -12.374   7.586  1.00  0.00     0.013 A 
HETATM    6  C27 UNL     1      17.562 -11.322   6.716  1.00  0.00     0.010 A 
ENDROOT
BRANCH   1   7
HETATM    7  C11 UNL     1      17.747 -10.292   4.416  1.00  0.00     0.214 C 
BRANCH   7   8
HETATM    8  O1  UNL     1      18.767 -10.226   3.490  1.00  0.00    -0.346 OA
BRANCH   8   9
HETATM    9  C10 UNL     1      19.393  -9.067   3.127  1.00  0.00     0.080 A 
HETATM   10  C5  UNL     1      20.463  -8.649   3.903  1.00  0.00     0.007 A 
HETATM   11  C6  UNL     1      21.164  -7.497   3.631  1.00  0.00     0.015 A 
HETATM   12  C7  UNL     1      20.787  -6.721   2.538  1.00  0.00     0.001 A 
HETATM   13  C8  UNL     1      19.732  -7.100   1.744  1.00  0.00     0.003 A 
HETATM   14  C9  UNL     1      19.035  -8.276   2.042  1.00  0.00     0.037 A 
BRANCH  10  15
HETATM   15  C4  UNL     1      20.861  -9.461   5.045  1.00  0.00    -0.023 A 
HETATM   16  C3  UNL     1      20.515  -9.149   6.336  1.00  0.00     0.012 A 
HETATM   17  C2  UNL     1      20.915  -9.938   7.395  1.00  0.00     0.001 A 
HETATM   18  C1  UNL     1      21.675 -11.060   7.145  1.00  0.00     0.000 A 
HETATM   19  C29 UNL     1      22.028 -11.389   5.868  1.00  0.00     0.001 A 
HETATM   20  C28 UNL     1      21.624 -10.594   4.830  1.00  0.00     0.012 A 
ENDBRANCH  10  15
ENDBRANCH   8   9
ENDBRANCH   7   8
ENDBRANCH   1   7
BRANCH   4  21
HETATM   21  C16 UNL     1      18.512 -14.694   8.097  1.00  0.00    -0.015 A 
HETATM   22  C17 UNL     1      17.674 -15.797   7.887  1.00  0.00     0.013 A 
HETATM   23  C18 UNL     1      17.796 -16.853   8.757  1.00  0.00     0.002 A 
HETATM   24  C19 UNL     1      18.699 -16.838   9.794  1.00  0.00     0.012 A 
HETATM   25  C20 UNL     1      19.502 -15.731   9.959  1.00  0.00    -0.025 A 
HETATM   26  C21 UNL     1      20.424 -15.696  10.985  1.00  0.00     0.012 A 
HETATM   27  C25 UNL     1      19.420 -14.645   9.114  1.00  0.00    -0.015 A 
HETATM   28  C22 UNL     1      21.245 -14.618  11.172  1.00  0.00     0.001 A 
HETATM   29  C23 UNL     1      21.190 -13.526  10.349  1.00  0.00     0.001 A 
HETATM   30  C24 UNL     1      20.259 -13.557   9.311  1.00  0.00     0.013 A 
ENDBRANCH   4  21
TORSDOF 5
ENDMDL
MODEL 3
REMARK VINA RESULT: -10.235928267      0.943      2.615
REMARK  5 active torsions:
REMARK  status: ('A' for Active; 'I' for Inactive)
REMARK    1  A    between atoms: C4_4  and  C5_5 
REMARK    2  A    between atoms: C10_10  and  O1_11 
REMARK    3  A    between atoms: O1_11  and  C11_12 
REMARK    4  A    between atoms: C11_12  and  C12_13 
REMARK    5  A    between atoms: C15_16  and  C16_17 
ROOT
HETATM    1  C12 UNL     1      21.520 -11.338   7.121  1.00  0.00    -0.034 A 
HETATM    2  C13 UNL     1      20.765 -11.179   8.285  1.00  0.00     0.010 A 
HETATM    3  C14 UNL     1      20.453 -12.228   9.117  1.00  0.00     0.013 A 
HETATM    4  C15 UNL     1      20.887 -13.529   8.823  1.00  0.00    -0.025 A 
HETATM    5  C26 UNL     1      21.632 -13.678   7.672  1.00  0.00     0.013 A 
HETATM    6  C27 UNL     1      21.941 -12.621   6.843  1.00  0.00     0.010 A 
ENDROOT
BRANCH   1   7
HETATM    7  C11 UNL     1      21.843 -10.164   6.263  1.00  0.00     0.214 C 
BRANCH   7   8
HETATM    8  O1  UNL     1      20.737  -9.372   6.030  1.00  0.00    -0.346 OA
BRANCH   8   9
HETATM    9  C10 UNL     1      20.208  -9.150   4.790  1.00  0.00     0.080 A 
HETATM   10  C5  UNL     1      19.060  -9.849   4.450  1.00  0.00     0.007 A 
HETATM   11  C6  UNL     1      18.444  -9.705   3.228  1.00  0.00     0.015 A 
HETATM   12  C7  UNL     1      18.991  -8.825   2.298  1.00  0.00     0.001 A 
HETATM   13  C8  UNL     1      20.127  -8.113   2.595  1.00  0.00     0.003 A 
HETATM   14  C9  UNL     1      20.736  -8.278   3.845  1.00  0.00     0.037 A 
BRANCH  10  15
HETATM   15  C4  UNL     1      18.484 -10.767   5.423  1.00  0.00    -0.023 A 
HETATM   16  C3  UNL     1      17.791 -10.342   6.529  1.00  0.00     0.012 A 
HETATM   17  C2  UNL     1      17.265 -11.240   7.433  1.00  0.00     0.001 A 
HETATM   18  C1  UNL     1      17.439 -12.590   7.217  1.00  0.00     0.000 A 
HETATM   19  C29 UNL     1      18.124 -13.034   6.122  1.00  0.00     0.001 A 
HETATM   20  C28 UNL     1      18.641 -12.128   5.236  1.00  0.00     0.012 A 
ENDBRANCH  10  15
ENDBRANCH   8   9
ENDBRANCH   7   8
ENDBRANCH   1   7
BRANCH   4  21
HETATM   21  C16 UNL     1      20.595 -14.628   9.730  1.00  0.00    -0.015 A 
HETATM   22  C17 UNL     1      21.278 -14.641  10.953  1.00  0.00     0.013 A 
HETATM   23  C18 UNL     1      21.040 -15.700  11.795  1.00  0.00     0.002 A 
HETATM   24  C19 UNL     1      20.168 -16.710  11.462  1.00  0.00     0.012 A 
HETATM   25  C20 UNL     1      19.519 -16.653  10.248  1.00  0.00    -0.025 A 
HETATM   26  C21 UNL     1      18.631 -17.648   9.895  1.00  0.00     0.012 A 
HETATM   27  C25 UNL     1      19.722 -15.613   9.366  1.00  0.00    -0.015 A 
HETATM   28  C22 UNL     1      17.960 -17.618   8.703  1.00  0.00     0.001 A 
HETATM   29  C23 UNL     1      18.138 -16.598   7.808  1.00  0.00     0.001 A 
HETATM   30  C24 UNL     1      19.035 -15.590   8.161  1.00  0.00     0.013 A 
ENDBRANCH   4  21
TORSDOF 5
ENDMDL
MODEL 4
REMARK VINA RESULT: -9.879475448      1.352      2.724
REMARK  5 active torsions:
REMARK  status: ('A' for Active; 'I' for Inactive)
REMARK    1  A    between atoms: C4_4  and  C5_5 
REMARK    2  A    between atoms: C10_10  and  O1_11 
REMARK    3  A    between atoms: O1_11  and  C11_12 
REMARK    4  A    between atoms: C11_12  and  C12_13 
REMARK    5  A    between atoms: C15_16  and  C16_17 
ROOT
HETATM    1  C12 UNL     1      21.934 -11.535   6.476  1.00  0.00    -0.034 A 
HETATM    2  C13 UNL     1      22.065 -12.910   6.274  1.00  0.00     0.010 A 
HETATM    3  C14 UNL     1      21.703 -13.838   7.222  1.00  0.00     0.013 A 
HETATM    4  C15 UNL     1      21.178 -13.432   8.458  1.00  0.00    -0.025 A 
HETATM    5  C26 UNL     1      21.052 -12.073   8.650  1.00  0.00     0.013 A 
HETATM    6  C27 UNL     1      21.416 -11.148   7.694  1.00  0.00     0.010 A 
ENDROOT
BRANCH   1   7
HETATM    7  C11 UNL     1      22.328 -10.573   5.409  1.00  0.00     0.214 C 
BRANCH   7   8
HETATM    8  O1  UNL     1      21.683 -10.829   4.217  1.00  0.00    -0.346 OA
BRANCH   8   9
HETATM    9  C10 UNL     1      21.051  -9.874   3.472  1.00  0.00     0.080 A 
HETATM   10  C5  UNL     1      19.700  -9.671   3.709  1.00  0.00     0.007 A 
HETATM   11  C6  UNL     1      18.963  -8.739   3.016  1.00  0.00     0.015 A 
HETATM   12  C7  UNL     1      19.594  -7.970   2.041  1.00  0.00     0.001 A 
HETATM   13  C8  UNL     1      20.931  -8.140   1.776  1.00  0.00     0.003 A 
HETATM   14  C9  UNL     1      21.658  -9.096   2.495  1.00  0.00     0.037 A 
BRANCH  10  15
HETATM   15  C4  UNL     1      19.038 -10.472   4.730  1.00  0.00    -0.023 A 
HETATM   16  C3  UNL     1      18.515  -9.930   5.878  1.00  0.00     0.012 A 
HETATM   17  C2  UNL     1      17.900 -10.720   6.827  1.00  0.00     0.001 A 
HETATM   18  C1  UNL     1      17.811 -12.078   6.612  1.00  0.00     0.000 A 
HETATM   19  C29 UNL     1      18.323 -12.637   5.476  1.00  0.00     0.001 A 
HETATM   20  C28 UNL     1      18.931 -11.838   4.546  1.00  0.00     0.012 A 
ENDBRANCH  10  15
ENDBRANCH   8   9
ENDBRANCH   7   8
ENDBRANCH   1   7
BRANCH   4  21
HETATM   21  C16 UNL     1      20.752 -14.418   9.439  1.00  0.00    -0.015 A 
HETATM   22  C17 UNL     1      21.471 -14.469  10.640  1.00  0.00     0.013 A 
HETATM   23  C18 UNL     1      21.104 -15.427  11.554  1.00  0.00     0.002 A 
HETATM   24  C19 UNL     1      20.073 -16.304  11.309  1.00  0.00     0.012 A 
HETATM   25  C20 UNL     1      19.395 -16.215  10.113  1.00  0.00    -0.025 A 
HETATM   26  C21 UNL     1      18.350 -17.077   9.848  1.00  0.00     0.012 A 
HETATM   27  C25 UNL     1      19.724 -15.272   9.163  1.00  0.00    -0.015 A 
HETATM   28  C22 UNL     1      17.647 -17.008   8.676  1.00  0.00     0.001 A 
HETATM   29  C23 UNL     1      17.947 -16.083   7.715  1.00  0.00     0.001 A 
HETATM   30  C24 UNL     1      19.003 -15.210   7.978  1.00  0.00     0.013 A 
ENDBRANCH   4  21
TORSDOF 5
ENDMDL
MODEL 5
REMARK VINA RESULT: -9.817573480      2.874      8.722
REMARK  5 active torsions:
REMARK  status: ('A' for Active; 'I' for Inactive)
REMARK    1  A    between atoms: C4_4  and  C5_5 
REMARK    2  A    between atoms: C10_10  and  O1_11 
REMARK    3  A    between atoms: O1_11  and  C11_12 
REMARK    4  A    between atoms: C11_12  and  C12_13 
REMARK    5  A    between atoms: C15_16  and  C16_17 
ROOT
HETATM    1  C12 UNL     1      18.385 -10.011   6.153  1.00  0.00    -0.034 A 
HETATM    2  C13 UNL     1      18.201 -10.452   4.841  1.00  0.00     0.010 A 
HETATM    3  C14 UNL     1      18.938  -9.969   3.785  1.00  0.00     0.013 A 
HETATM    4  C15 UNL     1      19.924  -8.992   3.987  1.00  0.00    -0.025 A 
HETATM    5  C26 UNL     1      20.099  -8.562   5.285  1.00  0.00     0.013 A 
HETATM    6  C27 UNL     1      19.357  -9.051   6.339  1.00  0.00     0.010 A 
ENDROOT
BRANCH   1   7
HETATM    7  C11 UNL     1      17.569 -10.579   7.262  1.00  0.00     0.214 C 
BRANCH   7   8
HETATM    8  O1  UNL     1      18.341 -11.274   8.170  1.00  0.00    -0.346 OA
BRANCH   8   9
HETATM    9  C10 UNL     1      18.411 -12.637   8.225  1.00  0.00     0.080 A 
HETATM   10  C5  UNL     1      19.571 -13.237   7.760  1.00  0.00     0.007 A 
HETATM   11  C6  UNL     1      19.749 -14.601   7.766  1.00  0.00     0.015 A 
HETATM   12  C7  UNL     1      18.727 -15.411   8.255  1.00  0.00     0.001 A 
HETATM   13  C8  UNL     1      17.562 -14.857   8.725  1.00  0.00     0.003 A 
HETATM   14  C9  UNL     1      17.406 -13.466   8.708  1.00  0.00     0.037 A 
BRANCH  10  15
HETATM   15  C4  UNL     1      20.642 -12.391   7.251  1.00  0.00    -0.023 A 
HETATM   16  C3  UNL     1      21.362 -11.538   8.050  1.00  0.00     0.012 A 
HETATM   17  C2  UNL     1      22.365 -10.747   7.532  1.00  0.00     0.001 A 
HETATM   18  C1  UNL     1      22.648 -10.819   6.185  1.00  0.00     0.000 A 
HETATM   19  C29 UNL     1      21.945 -11.662   5.373  1.00  0.00     0.001 A 
HETATM   20  C28 UNL     1      20.951 -12.438   5.904  1.00  0.00     0.012 A 
ENDBRANCH  10  15
ENDBRANCH   8   9
ENDBRANCH   7   8
ENDBRANCH   1   7
BRANCH   4  21
HETATM   21  C16 UNL     1      20.733  -8.519   2.875  1.00  0.00    -0.015 A 
HETATM   22  C17 UNL     1      21.229  -9.488   1.993  1.00  0.00     0.013 A 
HETATM   23  C18 UNL     1      22.030  -9.052   0.965  1.00  0.00     0.002 A 
HETATM   24  C19 UNL     1      22.339  -7.722   0.801  1.00  0.00     0.012 A 
HETATM   25  C20 UNL     1      21.827  -6.806   1.694  1.00  0.00    -0.025 A 
HETATM   26  C21 UNL     1      22.113  -5.464   1.544  1.00  0.00     0.012 A 
HETATM   27  C25 UNL     1      21.018  -7.191   2.741  1.00  0.00    -0.015 A 
HETATM   28  C22 UNL     1      21.612  -4.526   2.404  1.00  0.00     0.001 A 
HETATM   29  C23 UNL     1      20.805  -4.875   3.452  1.00  0.00     0.001 A 
HETATM   30  C24 UNL     1      20.513  -6.231   3.608  1.00  0.00     0.013 A 
ENDBRANCH   4  21
TORSDOF 5
ENDMDL
