MODEL 1
REMARK VINA RESULT: -10.864565642      0.000      0.000
REMARK  5 active torsions:
REMARK  status: ('A' for Active; 'I' for Inactive)
REMARK    1  A    between atoms: C4_4  and  C5_5 
REMARK    2  A    between atoms: C5_5  and  O1_6 
REMARK    3  A    between atoms: O1_6  and  C6_7 
REMARK    4  A    between atoms: C9_10  and  C10_11 
REMARK    5  A    between atoms: C12_13  and  C13_14 
ROOT
HETATM    1  C10 UNL     1      19.600 -13.826   8.809  1.00  0.00    -0.014 A 
HETATM    2  C11 UNL     1      20.629 -13.469   9.692  1.00  0.00     0.025 A 
HETATM    3  C12 UNL     1      21.147 -14.355  10.609  1.00  0.00    -0.024 A 
HETATM    4  C19 UNL     1      20.611 -15.624  10.634  1.00  0.00     0.024 A 
HETATM    5  C20 UNL     1      19.590 -16.028   9.783  1.00  0.00    -0.024 A 
HETATM    6  C21 UNL     1      19.067 -17.291   9.834  1.00  0.00     0.012 A 
HETATM    7  C22 UNL     1      18.047 -17.688   8.999  1.00  0.00     0.001 A 
HETATM    8  C23 UNL     1      17.523 -16.807   8.080  1.00  0.00     0.001 A 
HETATM    9  C24 UNL     1      18.066 -15.526   8.040  1.00  0.00     0.013 A 
HETATM   10  C25 UNL     1      19.086 -15.095   8.857  1.00  0.00    -0.015 A 
ENDROOT
BRANCH   1  11
HETATM   11  C9  UNL     1      19.121 -12.864   7.829  1.00  0.00    -0.025 A 
HETATM   12  C8  UNL     1      18.245 -11.854   8.044  1.00  0.00     0.015 A 
HETATM   13  C7  UNL     1      17.869 -11.008   7.032  1.00  0.00     0.037 A 
HETATM   14  C6  UNL     1      18.354 -11.133   5.740  1.00  0.00     0.069 A 
HETATM   15  C27 UNL     1      19.247 -12.170   5.542  1.00  0.00     0.037 A 
HETATM   16  C26 UNL     1      19.631 -13.018   6.531  1.00  0.00     0.015 A 
BRANCH  14  17
HETATM   17  O1  UNL     1      17.941 -10.259   4.775  1.00  0.00    -0.347 OA
BRANCH  17  18
HETATM   18  C5  UNL     1      18.144 -10.422   3.404  1.00  0.00     0.214 C 
BRANCH  18  19
HETATM   19  C4  UNL     1      19.266  -9.570   2.919  1.00  0.00    -0.034 A 
HETATM   20  C3  UNL     1      19.029  -8.269   2.531  1.00  0.00     0.009 A 
HETATM   21  C2  UNL     1      20.021  -7.431   2.075  1.00  0.00     0.001 A 
HETATM   22  C1  UNL     1      21.316  -7.898   1.999  1.00  0.00     0.000 A 
HETATM   23  C29 UNL     1      21.583  -9.207   2.386  1.00  0.00     0.001 A 
HETATM   24  C28 UNL     1      20.572 -10.036   2.842  1.00  0.00     0.009 A 
ENDBRANCH  18  19
ENDBRANCH  17  18
ENDBRANCH  14  17
ENDBRANCH   1  11
BRANCH   3  25
HETATM   25  C13 UNL     1      22.222 -13.940  11.513  1.00  0.00    -0.026 A 
HETATM   26  C14 UNL     1      22.045 -14.051  12.876  1.00  0.00     0.012 A 
HETATM   27  C15 UNL     1      23.020 -13.678  13.782  1.00  0.00     0.001 A 
HETATM   28  C16 UNL     1      24.224 -13.170  13.343  1.00  0.00     0.000 A 
HETATM   29  C17 UNL     1      24.404 -13.057  11.981  1.00  0.00     0.001 A 
HETATM   30  C18 UNL     1      23.423 -13.434  11.065  1.00  0.00     0.012 A 
ENDBRANCH   3  25
TORSDOF 5
ENDMDL
MODEL 2
REMARK VINA RESULT: -10.612870827      1.149      1.541
REMARK  5 active torsions:
REMARK  status: ('A' for Active; 'I' for Inactive)
REMARK    1  A    between atoms: C4_4  and  C5_5 
REMARK    2  A    between atoms: C5_5  and  O1_6 
REMARK    3  A    between atoms: O1_6  and  C6_7 
REMARK    4  A    between atoms: C9_10  and  C10_11 
REMARK    5  A    between atoms: C12_13  and  C13_14 
ROOT
HETATM    1  C10 UNL     1      20.256 -13.249   8.842  1.00  0.00    -0.014 A 
HETATM    2  C11 UNL     1      21.164 -13.148   9.906  1.00  0.00     0.025 A 
HETATM    3  C12 UNL     1      21.264 -14.119  10.877  1.00  0.00    -0.024 A 
HETATM    4  C19 UNL     1      20.429 -15.208  10.771  1.00  0.00     0.024 A 
HETATM    5  C20 UNL     1      19.510 -15.356   9.739  1.00  0.00    -0.024 A 
HETATM    6  C21 UNL     1      18.682 -16.442   9.661  1.00  0.00     0.012 A 
HETATM    7  C22 UNL     1      17.763 -16.583   8.645  1.00  0.00     0.001 A 
HETATM    8  C23 UNL     1      17.656 -15.616   7.671  1.00  0.00     0.001 A 
HETATM    9  C24 UNL     1      18.505 -14.517   7.764  1.00  0.00     0.013 A 
HETATM   10  C25 UNL     1      19.435 -14.344   8.763  1.00  0.00    -0.015 A 
ENDROOT
BRANCH   1  11
HETATM   11  C9  UNL     1      20.222 -12.217   7.818  1.00  0.00    -0.025 A 
HETATM   12  C8  UNL     1      20.808 -12.265   6.598  1.00  0.00     0.015 A 
HETATM   13  C7  UNL     1      20.704 -11.222   5.715  1.00  0.00     0.037 A 
HETATM   14  C6  UNL     1      20.000 -10.065   6.011  1.00  0.00     0.069 A 
HETATM   15  C27 UNL     1      19.409 -10.036   7.261  1.00  0.00     0.037 A 
HETATM   16  C26 UNL     1      19.501 -11.059   8.149  1.00  0.00     0.015 A 
BRANCH  14  17
HETATM   17  O1  UNL     1      19.932  -9.059   5.088  1.00  0.00    -0.347 OA
BRANCH  17  18
HETATM   18  C5  UNL     1      19.447  -9.196   3.787  1.00  0.00     0.214 C 
BRANCH  18  19
HETATM   19  C4  UNL     1      20.295  -8.450   2.814  1.00  0.00    -0.034 A 
HETATM   20  C3  UNL     1      19.921  -7.193   2.392  1.00  0.00     0.009 A 
HETATM   21  C2  UNL     1      20.660  -6.454   1.497  1.00  0.00     0.001 A 
HETATM   22  C1  UNL     1      21.830  -6.980   0.991  1.00  0.00     0.000 A 
HETATM   23  C29 UNL     1      22.231  -8.247   1.402  1.00  0.00     0.001 A 
HETATM   24  C28 UNL     1      21.475  -8.977   2.303  1.00  0.00     0.009 A 
ENDBRANCH  18  19
ENDBRANCH  17  18
ENDBRANCH  14  17
ENDBRANCH   1  11
BRANCH   3  25
HETATM   25  C13 UNL     1      22.228 -13.973  11.970  1.00  0.00    -0.026 A 
HETATM   26  C14 UNL     1      21.881 -14.382  13.241  1.00  0.00     0.012 A 
HETATM   27  C15 UNL     1      22.743 -14.272  14.315  1.00  0.00     0.001 A 
HETATM   28  C16 UNL     1      24.003 -13.739  14.148  1.00  0.00     0.000 A 
HETATM   29  C17 UNL     1      24.354 -13.329  12.879  1.00  0.00     0.001 A 
HETATM   30  C18 UNL     1      23.487 -13.439  11.794  1.00  0.00     0.012 A 
ENDBRANCH   3  25
TORSDOF 5
ENDMDL
MODEL 3
REMARK VINA RESULT: -10.612494163      1.629      2.352
REMARK  5 active torsions:
REMARK  status: ('A' for Active; 'I' for Inactive)
REMARK    1  A    between atoms: C4_4  and  C5_5 
REMARK    2  A    between atoms: C5_5  and  O1_6 
REMARK    3  A    between atoms: O1_6  and  C6_7 
REMARK    4  A    between atoms: C9_10  and  C10_11 
REMARK    5  A    between atoms: C12_13  and  C13_14 
ROOT
HETATM    1  C10 UNL     1      20.476 -12.717   8.013  1.00  0.00    -0.014 A 
HETATM    2  C11 UNL     1      21.378 -12.720   9.088  1.00  0.00     0.025 A 
HETATM    3  C12 UNL     1      21.380 -13.715  10.038  1.00  0.00    -0.024 A 
HETATM    4  C19 UNL     1      20.452 -14.723   9.901  1.00  0.00     0.024 A 
HETATM    5  C20 UNL     1      19.536 -14.767   8.857  1.00  0.00    -0.024 A 
HETATM    6  C21 UNL     1      18.615 -15.774   8.747  1.00  0.00     0.012 A 
HETATM    7  C22 UNL     1      17.700 -15.811   7.720  1.00  0.00     0.001 A 
HETATM    8  C23 UNL     1      17.690 -14.819   6.765  1.00  0.00     0.001 A 
HETATM    9  C24 UNL     1      18.632 -13.802   6.891  1.00  0.00     0.013 A 
HETATM   10  C25 UNL     1      19.563 -13.733   7.902  1.00  0.00    -0.015 A 
ENDROOT
BRANCH   1  11
HETATM   11  C9  UNL     1      20.546 -11.666   7.011  1.00  0.00    -0.025 A 
HETATM   12  C8  UNL     1      21.303 -11.664   5.888  1.00  0.00     0.015 A 
HETATM   13  C7  UNL     1      21.282 -10.607   5.015  1.00  0.00     0.037 A 
HETATM   14  C6  UNL     1      20.496  -9.485   5.225  1.00  0.00     0.069 A 
HETATM   15  C27 UNL     1      19.731  -9.507   6.377  1.00  0.00     0.037 A 
HETATM   16  C26 UNL     1      19.738 -10.544   7.253  1.00  0.00     0.015 A 
BRANCH  14  17
HETATM   17  O1  UNL     1      20.519  -8.463   4.318  1.00  0.00    -0.347 OA
BRANCH  17  18
HETATM   18  C5  UNL     1      20.598  -8.621   2.934  1.00  0.00     0.214 C 
BRANCH  18  19
HETATM   19  C4  UNL     1      21.082  -7.375   2.276  1.00  0.00    -0.034 A 
HETATM   20  C3  UNL     1      20.794  -6.145   2.826  1.00  0.00     0.009 A 
HETATM   21  C2  UNL     1      21.212  -4.958   2.268  1.00  0.00     0.001 A 
HETATM   22  C1  UNL     1      21.955  -4.984   1.107  1.00  0.00     0.000 A 
HETATM   23  C29 UNL     1      22.262  -6.213   0.531  1.00  0.00     0.001 A 
HETATM   24  C28 UNL     1      21.832  -7.396   1.106  1.00  0.00     0.009 A 
ENDBRANCH  18  19
ENDBRANCH  17  18
ENDBRANCH  14  17
ENDBRANCH   1  11
BRANCH   3  25
HETATM   25  C13 UNL     1      22.340 -13.679  11.144  1.00  0.00    -0.026 A 
HETATM   26  C14 UNL     1      21.931 -14.039  12.411  1.00  0.00     0.012 A 
HETATM   27  C15 UNL     1      22.786 -14.026  13.496  1.00  0.00     0.001 A 
HETATM   28  C16 UNL     1      24.102 -13.644  13.345  1.00  0.00     0.000 A 
HETATM   29  C17 UNL     1      24.514 -13.284  12.079  1.00  0.00     0.001 A 
HETATM   30  C18 UNL     1      23.654 -13.296  10.983  1.00  0.00     0.012 A 
ENDBRANCH   3  25
TORSDOF 5
ENDMDL
MODEL 4
REMARK VINA RESULT: -9.825412310      1.268      4.762
REMARK  5 active torsions:
REMARK  status: ('A' for Active; 'I' for Inactive)
REMARK    1  A    between atoms: C4_4  and  C5_5 
REMARK    2  A    between atoms: C5_5  and  O1_6 
REMARK    3  A    between atoms: O1_6  and  C6_7 
REMARK    4  A    between atoms: C9_10  and  C10_11 
REMARK    5  A    between atoms: C12_13  and  C13_14 
ROOT
HETATM    1  C10 UNL     1      18.911 -14.722   8.282  1.00  0.00    -0.014 A 
HETATM    2  C11 UNL     1      18.296 -15.960   8.046  1.00  0.00     0.025 A 
HETATM    3  C12 UNL     1      18.525 -17.056   8.848  1.00  0.00    -0.024 A 
HETATM    4  C19 UNL     1      19.393 -16.896   9.904  1.00  0.00     0.024 A 
HETATM    5  C20 UNL     1      20.030 -15.692  10.181  1.00  0.00    -0.024 A 
HETATM    6  C21 UNL     1      20.898 -15.560  11.231  1.00  0.00     0.012 A 
HETATM    7  C22 UNL     1      21.538 -14.372  11.499  1.00  0.00     0.001 A 
HETATM    8  C23 UNL     1      21.316 -13.271  10.701  1.00  0.00     0.001 A 
HETATM    9  C24 UNL     1      20.430 -13.421   9.637  1.00  0.00     0.013 A 
HETATM   10  C25 UNL     1      19.772 -14.593   9.340  1.00  0.00    -0.015 A 
ENDROOT
BRANCH   1  11
HETATM   11  C9  UNL     1      18.600 -13.585   7.432  1.00  0.00    -0.025 A 
HETATM   12  C8  UNL     1      17.927 -12.465   7.789  1.00  0.00     0.015 A 
HETATM   13  C7  UNL     1      17.695 -11.455   6.890  1.00  0.00     0.037 A 
HETATM   14  C6  UNL     1      18.128 -11.516   5.575  1.00  0.00     0.069 A 
HETATM   15  C27 UNL     1      18.813 -12.667   5.232  1.00  0.00     0.037 A 
HETATM   16  C26 UNL     1      19.053 -13.678   6.107  1.00  0.00     0.015 A 
BRANCH  14  17
HETATM   17  O1  UNL     1      17.866 -10.477   4.727  1.00  0.00    -0.347 OA
BRANCH  17  18
HETATM   18  C5  UNL     1      18.041 -10.506   3.343  1.00  0.00     0.214 C 
BRANCH  18  19
HETATM   19  C4  UNL     1      19.191  -9.655   2.927  1.00  0.00    -0.034 A 
HETATM   20  C3  UNL     1      18.983  -8.343   2.559  1.00  0.00     0.009 A 
HETATM   21  C2  UNL     1      20.001  -7.505   2.166  1.00  0.00     0.001 A 
HETATM   22  C1  UNL     1      21.294  -7.983   2.135  1.00  0.00     0.000 A 
HETATM   23  C29 UNL     1      21.532  -9.303   2.502  1.00  0.00     0.001 A 
HETATM   24  C28 UNL     1      20.495 -10.132   2.895  1.00  0.00     0.009 A 
ENDBRANCH  18  19
ENDBRANCH  17  18
ENDBRANCH  14  17
ENDBRANCH   1  11
BRANCH   3  25
HETATM   25  C13 UNL     1      17.860 -18.330   8.564  1.00  0.00    -0.026 A 
HETATM   26  C14 UNL     1      17.028 -18.888   9.513  1.00  0.00     0.012 A 
HETATM   27  C15 UNL     1      16.372 -20.086   9.308  1.00  0.00     0.001 A 
HETATM   28  C16 UNL     1      16.531 -20.778   8.127  1.00  0.00     0.000 A 
HETATM   29  C17 UNL     1      17.363 -20.223   7.176  1.00  0.00     0.001 A 
HETATM   30  C18 UNL     1      18.025 -19.014   7.379  1.00  0.00     0.012 A 
ENDBRANCH   3  25
TORSDOF 5
ENDMDL
MODEL 5
REMARK VINA RESULT: -9.777794809      1.800      5.121
REMARK  5 active torsions:
REMARK  status: ('A' for Active; 'I' for Inactive)
REMARK    1  A    between atoms: C4_4  and  C5_5 
REMARK    2  A    between atoms: C5_5  and  O1_6 
REMARK    3  A    between atoms: O1_6  and  C6_7 
REMARK    4  A    between atoms: C9_10  and  C10_11 
REMARK    5  A    between atoms: C12_13  and  C13_14 
ROOT
HETATM    1  C10 UNL     1      20.924 -14.568  10.121  1.00  0.00    -0.014 A 
HETATM    2  C11 UNL     1      20.214 -15.673   9.630  1.00  0.00     0.025 A 
HETATM    3  C12 UNL     1      19.942 -16.773  10.411  1.00  0.00    -0.024 A 
HETATM    4  C19 UNL     1      20.398 -16.755  11.710  1.00  0.00     0.024 A 
HETATM    5  C20 UNL     1      21.106 -15.687  12.246  1.00  0.00    -0.024 A 
HETATM    6  C21 UNL     1      21.559 -15.696  13.537  1.00  0.00     0.012 A 
HETATM    7  C22 UNL     1      22.271 -14.643  14.064  1.00  0.00     0.001 A 
HETATM    8  C23 UNL     1      22.549 -13.539  13.289  1.00  0.00     0.001 A 
HETATM    9  C24 UNL     1      22.082 -13.545  11.977  1.00  0.00     0.013 A 
HETATM   10  C25 UNL     1      21.366 -14.578  11.418  1.00  0.00    -0.015 A 
ENDROOT
BRANCH   1  11
HETATM   11  C9  UNL     1      21.145 -13.411   9.267  1.00  0.00    -0.025 A 
HETATM   12  C8  UNL     1      22.238 -13.161   8.507  1.00  0.00     0.015 A 
HETATM   13  C7  UNL     1      22.329 -12.029   7.740  1.00  0.00     0.037 A 
HETATM   14  C6  UNL     1      21.321 -11.079   7.695  1.00  0.00     0.069 A 
HETATM   15  C27 UNL     1      20.215 -11.353   8.477  1.00  0.00     0.037 A 
HETATM   16  C26 UNL     1      20.106 -12.469   9.243  1.00  0.00     0.015 A 
BRANCH  14  17
HETATM   17  O1  UNL     1      21.471  -9.970   6.910  1.00  0.00    -0.347 OA
BRANCH  17  18
HETATM   18  C5  UNL     1      20.466  -9.044   6.628  1.00  0.00     0.214 C 
BRANCH  18  19
HETATM   19  C4  UNL     1      19.786  -9.361   5.340  1.00  0.00    -0.034 A 
HETATM   20  C3  UNL     1      18.628 -10.107   5.334  1.00  0.00     0.009 A 
HETATM   21  C2  UNL     1      17.953 -10.432   4.180  1.00  0.00     0.001 A 
HETATM   22  C1  UNL     1      18.444  -9.999   2.967  1.00  0.00     0.000 A 
HETATM   23  C29 UNL     1      19.611  -9.243   2.944  1.00  0.00     0.001 A 
HETATM   24  C28 UNL     1      20.277  -8.925   4.115  1.00  0.00     0.009 A 
ENDBRANCH  18  19
ENDBRANCH  17  18
ENDBRANCH  14  17
ENDBRANCH   1  11
BRANCH   3  25
HETATM   25  C13 UNL     1      19.196 -17.906   9.857  1.00  0.00    -0.026 A 
HETATM   26  C14 UNL     1      18.147 -17.672   8.992  1.00  0.00     0.012 A 
HETATM   27  C15 UNL     1      17.405 -18.695   8.436  1.00  0.00     0.001 A 
HETATM   28  C16 UNL     1      17.693 -20.010   8.732  1.00  0.00     0.000 A 
HETATM   29  C17 UNL     1      18.742 -20.248   9.596  1.00  0.00     0.001 A 
HETATM   30  C18 UNL     1      19.493 -19.218  10.158  1.00  0.00     0.012 A 
ENDBRANCH   3  25
TORSDOF 5
ENDMDL
