MODEL 1
REMARK VINA RESULT: -10.658045322      0.000      0.000
REMARK  4 active torsions:
REMARK  status: ('A' for Active; 'I' for Inactive)
REMARK    1  A    between atoms: C4_4  and  C5_5 
REMARK    2  A    between atoms: C5_5  and  C6_6 
REMARK    3  A    between atoms: C9_9  and  C10_10 
REMARK    4  A    between atoms: C20_20  and  C21_21 
ROOT
HETATM    1  C6  UNL     1      20.931  -9.694   2.679  1.00  0.00    -0.053 A 
HETATM    2  C7  UNL     1      19.583  -9.882   2.452  1.00  0.00     0.008 A 
HETATM    3  C8  UNL     1      18.776 -10.520   3.364  1.00  0.00     0.013 A 
HETATM    4  C9  UNL     1      19.316 -10.991   4.541  1.00  0.00    -0.015 A 
HETATM    5  C16 UNL     1      20.654 -10.831   4.816  1.00  0.00    -0.014 A 
HETATM    6  C17 UNL     1      21.295 -11.294   6.020  1.00  0.00    -0.025 A 
HETATM    7  C18 UNL     1      21.887 -10.404   6.875  1.00  0.00     0.013 A 
HETATM    8  C19 UNL     1      22.508 -10.861   8.038  1.00  0.00     0.013 A 
HETATM    9  C20 UNL     1      22.537 -12.196   8.346  1.00  0.00    -0.025 A 
HETATM   10  C26 UNL     1      21.943 -13.090   7.489  1.00  0.00     0.013 A 
HETATM   11  C27 UNL     1      21.322 -12.630   6.324  1.00  0.00     0.013 A 
HETATM   12  C28 UNL     1      21.443 -10.175   3.862  1.00  0.00     0.020 A 
ENDROOT
BRANCH   4  13
HETATM   13  C10 UNL     1      18.469 -11.676   5.529  1.00  0.00    -0.025 A 
HETATM   14  C11 UNL     1      17.934 -10.979   6.607  1.00  0.00     0.012 A 
HETATM   15  C12 UNL     1      17.141 -11.600   7.542  1.00  0.00     0.001 A 
HETATM   16  C13 UNL     1      16.842 -12.937   7.455  1.00  0.00     0.000 A 
HETATM   17  C14 UNL     1      17.368 -13.649   6.383  1.00  0.00     0.001 A 
HETATM   18  C15 UNL     1      18.166 -13.019   5.444  1.00  0.00     0.012 A 
ENDBRANCH   4  13
BRANCH   1  19
HETATM   19  C5  UNL     1      21.842  -9.019   1.741  1.00  0.00     0.077 C 
BRANCH  19  20
HETATM   20  C4  UNL     1      21.634  -7.581   1.624  1.00  0.00    -0.054 A 
HETATM   21  C3  UNL     1      21.069  -6.877   2.652  1.00  0.00     0.007 A 
HETATM   22  C2  UNL     1      20.866  -5.502   2.555  1.00  0.00     0.001 A 
HETATM   23  C1  UNL     1      21.257  -4.885   1.384  1.00  0.00     0.000 A 
HETATM   24  C30 UNL     1      21.830  -5.553   0.321  1.00  0.00     0.001 A 
HETATM   25  C29 UNL     1      22.003  -6.916   0.483  1.00  0.00     0.007 A 
ENDBRANCH  19  20
ENDBRANCH   1  19
BRANCH   9  26
HETATM   26  C21 UNL     1      23.191 -12.662   9.568  1.00  0.00    -0.011 A 
HETATM   27  C22 UNL     1      22.554 -13.416  10.529  1.00  0.00     0.015 A 
HETATM   28  C23 UNL     1      23.211 -13.842  11.681  1.00  0.00     0.018 A 
HETATM   29  C24 UNL     1      24.538 -13.473  11.821  1.00  0.00     0.087 A 
HETATM   30  N1  UNL     1      25.170 -12.733  10.883  1.00  0.00    -0.374 N 
HETATM   31  C25 UNL     1      24.527 -12.325   9.773  1.00  0.00     0.099 A 
ATOM     32  H1  UNL     1      26.148 -12.480  11.017  1.00  0.00     0.164 HD
ENDBRANCH   9  26
TORSDOF 4
ENDMDL
MODEL 2
REMARK VINA RESULT: -9.059319678      3.443     10.123
REMARK  4 active torsions:
REMARK  status: ('A' for Active; 'I' for Inactive)
REMARK    1  A    between atoms: C4_4  and  C5_5 
REMARK    2  A    between atoms: C5_5  and  C6_6 
REMARK    3  A    between atoms: C9_9  and  C10_10 
REMARK    4  A    between atoms: C20_20  and  C21_21 
ROOT
HETATM    1  C6  UNL     1      22.400 -14.284  13.685  1.00  0.00    -0.053 A 
HETATM    2  C7  UNL     1      21.688 -15.435  13.953  1.00  0.00     0.008 A 
HETATM    3  C8  UNL     1      20.862 -16.012  13.018  1.00  0.00     0.013 A 
HETATM    4  C9  UNL     1      20.732 -15.434  11.774  1.00  0.00    -0.015 A 
HETATM    5  C16 UNL     1      21.418 -14.286  11.454  1.00  0.00    -0.014 A 
HETATM    6  C17 UNL     1      21.336 -13.620  10.180  1.00  0.00    -0.025 A 
HETATM    7  C18 UNL     1      22.450 -13.485   9.397  1.00  0.00     0.013 A 
HETATM    8  C19 UNL     1      22.364 -12.838   8.164  1.00  0.00     0.013 A 
HETATM    9  C20 UNL     1      21.172 -12.328   7.716  1.00  0.00    -0.025 A 
HETATM   10  C26 UNL     1      20.053 -12.463   8.500  1.00  0.00     0.013 A 
HETATM   11  C27 UNL     1      20.143 -13.113   9.735  1.00  0.00     0.013 A 
HETATM   12  C28 UNL     1      22.250 -13.728  12.434  1.00  0.00     0.020 A 
ENDROOT
BRANCH   4  13
HETATM   13  C10 UNL     1      19.853 -16.036  10.760  1.00  0.00    -0.025 A 
HETATM   14  C11 UNL     1      18.570 -15.542  10.550  1.00  0.00     0.012 A 
HETATM   15  C12 UNL     1      17.734 -16.090   9.608  1.00  0.00     0.001 A 
HETATM   16  C13 UNL     1      18.126 -17.151   8.831  1.00  0.00     0.000 A 
HETATM   17  C14 UNL     1      19.405 -17.658   9.026  1.00  0.00     0.001 A 
HETATM   18  C15 UNL     1      20.244 -17.102   9.977  1.00  0.00     0.012 A 
ENDBRANCH   4  13
BRANCH   1  19
HETATM   19  C5  UNL     1      23.298 -13.623  14.645  1.00  0.00     0.077 C 
BRANCH  19  20
HETATM   20  C4  UNL     1      24.459 -14.414  15.032  1.00  0.00    -0.054 A 
HETATM   21  C3  UNL     1      25.336 -13.944  15.972  1.00  0.00     0.007 A 
HETATM   22  C2  UNL     1      26.449 -14.690  16.352  1.00  0.00     0.001 A 
HETATM   23  C1  UNL     1      26.629 -15.916  15.745  1.00  0.00     0.000 A 
HETATM   24  C30 UNL     1      25.773 -16.431  14.792  1.00  0.00     0.001 A 
HETATM   25  C29 UNL     1      24.688 -15.640  14.459  1.00  0.00     0.007 A 
ENDBRANCH  19  20
ENDBRANCH   1  19
BRANCH   9  26
HETATM   26  C21 UNL     1      21.094 -11.652   6.423  1.00  0.00    -0.011 A 
HETATM   27  C22 UNL     1      22.080 -10.817   5.942  1.00  0.00     0.015 A 
HETATM   28  C23 UNL     1      21.970 -10.190   4.703  1.00  0.00     0.018 A 
HETATM   29  C24 UNL     1      20.822 -10.441   3.971  1.00  0.00     0.087 A 
HETATM   30  N1  UNL     1      19.850 -11.258   4.436  1.00  0.00    -0.374 N 
HETATM   31  C25 UNL     1      19.965 -11.859   5.634  1.00  0.00     0.099 A 
ATOM     32  H1  UNL     1      19.018 -11.421   3.870  1.00  0.00     0.164 HD
ENDBRANCH   9  26
TORSDOF 4
ENDMDL
MODEL 3
REMARK VINA RESULT: -8.840735366      3.378     10.144
REMARK  4 active torsions:
REMARK  status: ('A' for Active; 'I' for Inactive)
REMARK    1  A    between atoms: C4_4  and  C5_5 
REMARK    2  A    between atoms: C5_5  and  C6_6 
REMARK    3  A    between atoms: C9_9  and  C10_10 
REMARK    4  A    between atoms: C20_20  and  C21_21 
ROOT
HETATM    1  C6  UNL     1      22.462 -14.361  13.688  1.00  0.00    -0.053 A 
HETATM    2  C7  UNL     1      21.748 -15.525  13.880  1.00  0.00     0.008 A 
HETATM    3  C8  UNL     1      20.897 -16.021  12.920  1.00  0.00     0.013 A 
HETATM    4  C9  UNL     1      20.744 -15.345  11.729  1.00  0.00    -0.015 A 
HETATM    5  C16 UNL     1      21.432 -14.178  11.487  1.00  0.00    -0.014 A 
HETATM    6  C17 UNL     1      21.327 -13.413  10.272  1.00  0.00    -0.025 A 
HETATM    7  C18 UNL     1      22.425 -13.221   9.478  1.00  0.00     0.013 A 
HETATM    8  C19 UNL     1      22.317 -12.477   8.303  1.00  0.00     0.013 A 
HETATM    9  C20 UNL     1      21.120 -11.926   7.924  1.00  0.00    -0.025 A 
HETATM   10  C26 UNL     1      20.017 -12.117   8.719  1.00  0.00     0.013 A 
HETATM   11  C27 UNL     1      20.129 -12.865   9.896  1.00  0.00     0.013 A 
HETATM   12  C28 UNL     1      22.289 -13.706  12.490  1.00  0.00     0.020 A 
ENDROOT
BRANCH   4  13
HETATM   13  C10 UNL     1      19.839 -15.859  10.690  1.00  0.00    -0.025 A 
HETATM   14  C11 UNL     1      18.545 -15.363  10.569  1.00  0.00     0.012 A 
HETATM   15  C12 UNL     1      17.685 -15.830   9.605  1.00  0.00     0.001 A 
HETATM   16  C13 UNL     1      18.061 -16.807   8.718  1.00  0.00     0.000 A 
HETATM   17  C14 UNL     1      19.352 -17.313   8.824  1.00  0.00     0.001 A 
HETATM   18  C15 UNL     1      20.215 -16.840   9.797  1.00  0.00     0.012 A 
ENDBRANCH   4  13
BRANCH   1  19
HETATM   19  C5  UNL     1      23.385 -13.784  14.678  1.00  0.00     0.077 C 
BRANCH  19  20
HETATM   20  C4  UNL     1      24.492 -14.655  15.053  1.00  0.00    -0.054 A 
HETATM   21  C3  UNL     1      24.512 -15.963  14.651  1.00  0.00     0.007 A 
HETATM   22  C2  UNL     1      25.564 -16.807  15.001  1.00  0.00     0.001 A 
HETATM   23  C1  UNL     1      26.579 -16.270  15.766  1.00  0.00     0.000 A 
HETATM   24  C30 UNL     1      26.602 -14.959  16.195  1.00  0.00     0.001 A 
HETATM   25  C29 UNL     1      25.528 -14.175  15.814  1.00  0.00     0.007 A 
ENDBRANCH  19  20
ENDBRANCH   1  19
BRANCH   9  26
HETATM   26  C21 UNL     1      21.019 -11.148   6.691  1.00  0.00    -0.011 A 
HETATM   27  C22 UNL     1      20.488  -9.878   6.637  1.00  0.00     0.015 A 
HETATM   28  C23 UNL     1      20.409  -9.166   5.441  1.00  0.00     0.018 A 
HETATM   29  C24 UNL     1      20.888  -9.793   4.304  1.00  0.00     0.087 A 
HETATM   30  N1  UNL     1      21.410 -11.039   4.348  1.00  0.00    -0.374 N 
HETATM   31  C25 UNL     1      21.482 -11.719   5.507  1.00  0.00     0.099 A 
ATOM     32  H1  UNL     1      21.755 -11.471   3.491  1.00  0.00     0.164 HD
ENDBRANCH   9  26
TORSDOF 4
ENDMDL
MODEL 4
REMARK VINA RESULT: -8.759041422      2.570      8.575
REMARK  4 active torsions:
REMARK  status: ('A' for Active; 'I' for Inactive)
REMARK    1  A    between atoms: C4_4  and  C5_5 
REMARK    2  A    between atoms: C5_5  and  C6_6 
REMARK    3  A    between atoms: C9_9  and  C10_10 
REMARK    4  A    between atoms: C20_20  and  C21_21 
ROOT
HETATM    1  C6  UNL     1      23.437 -12.791   9.556  1.00  0.00    -0.053 A 
HETATM    2  C7  UNL     1      22.560 -13.750  10.018  1.00  0.00     0.008 A 
HETATM    3  C8  UNL     1      21.309 -13.913   9.471  1.00  0.00     0.013 A 
HETATM    4  C9  UNL     1      20.907 -13.099   8.433  1.00  0.00    -0.015 A 
HETATM    5  C16 UNL     1      21.743 -12.127   7.936  1.00  0.00    -0.014 A 
HETATM    6  C17 UNL     1      21.400 -11.238   6.856  1.00  0.00    -0.025 A 
HETATM    7  C18 UNL     1      22.122 -11.250   5.694  1.00  0.00     0.013 A 
HETATM    8  C19 UNL     1      21.785 -10.384   4.653  1.00  0.00     0.013 A 
HETATM    9  C20 UNL     1      20.733  -9.512   4.771  1.00  0.00    -0.025 A 
HETATM   10  C26 UNL     1      20.008  -9.499   5.937  1.00  0.00     0.013 A 
HETATM   11  C27 UNL     1      20.348 -10.368   6.979  1.00  0.00     0.013 A 
HETATM   12  C28 UNL     1      23.010 -11.994   8.519  1.00  0.00     0.020 A 
ENDROOT
BRANCH   4  13
HETATM   13  C10 UNL     1      19.573 -13.257   7.835  1.00  0.00    -0.025 A 
HETATM   14  C11 UNL     1      19.429 -13.784   6.556  1.00  0.00     0.012 A 
HETATM   15  C12 UNL     1      18.192 -13.939   5.978  1.00  0.00     0.001 A 
HETATM   16  C13 UNL     1      17.042 -13.580   6.636  1.00  0.00     0.000 A 
HETATM   17  C14 UNL     1      17.168 -13.053   7.916  1.00  0.00     0.001 A 
HETATM   18  C15 UNL     1      18.417 -12.899   8.494  1.00  0.00     0.012 A 
ENDBRANCH   4  13
BRANCH   1  19
HETATM   19  C5  UNL     1      24.787 -12.573  10.101  1.00  0.00     0.077 C 
BRANCH  19  20
HETATM   20  C4  UNL     1      24.862 -12.586  11.557  1.00  0.00    -0.054 A 
HETATM   21  C3  UNL     1      25.654 -11.687  12.217  1.00  0.00     0.007 A 
HETATM   22  C2  UNL     1      25.734 -11.686  13.608  1.00  0.00     0.001 A 
HETATM   23  C1  UNL     1      24.985 -12.625  14.287  1.00  0.00     0.000 A 
HETATM   24  C30 UNL     1      24.173 -13.552  13.665  1.00  0.00     0.001 A 
HETATM   25  C29 UNL     1      24.139 -13.498  12.283  1.00  0.00     0.007 A 
ENDBRANCH  19  20
ENDBRANCH   1  19
BRANCH   9  26
HETATM   26  C21 UNL     1      20.390  -8.610   3.674  1.00  0.00    -0.011 A 
HETATM   27  C22 UNL     1      21.116  -7.481   3.365  1.00  0.00     0.015 A 
HETATM   28  C23 UNL     1      20.757  -6.644   2.309  1.00  0.00     0.018 A 
HETATM   29  C24 UNL     1      19.634  -6.998   1.581  1.00  0.00     0.087 A 
HETATM   30  N1  UNL     1      18.916  -8.104   1.879  1.00  0.00    -0.374 N 
HETATM   31  C25 UNL     1      19.270  -8.906   2.900  1.00  0.00     0.099 A 
ATOM     32  H1  UNL     1      18.095  -8.335   1.320  1.00  0.00     0.164 HD
ENDBRANCH   9  26
TORSDOF 4
ENDMDL
MODEL 5
REMARK VINA RESULT: -8.451015929      2.375      4.264
REMARK  4 active torsions:
REMARK  status: ('A' for Active; 'I' for Inactive)
REMARK    1  A    between atoms: C4_4  and  C5_5 
REMARK    2  A    between atoms: C5_5  and  C6_6 
REMARK    3  A    between atoms: C9_9  and  C10_10 
REMARK    4  A    between atoms: C20_20  and  C21_21 
ROOT
HETATM    1  C6  UNL     1      18.191 -11.571   6.101  1.00  0.00    -0.053 A 
HETATM    2  C7  UNL     1      17.317 -12.554   5.685  1.00  0.00     0.008 A 
HETATM    3  C8  UNL     1      17.259 -13.782   6.301  1.00  0.00     0.013 A 
HETATM    4  C9  UNL     1      18.093 -14.051   7.365  1.00  0.00    -0.015 A 
HETATM    5  C16 UNL     1      18.984 -13.107   7.819  1.00  0.00    -0.014 A 
HETATM    6  C17 UNL     1      19.888 -13.309   8.921  1.00  0.00    -0.025 A 
HETATM    7  C18 UNL     1      19.801 -12.527  10.040  1.00  0.00     0.013 A 
HETATM    8  C19 UNL     1      20.682 -12.728  11.103  1.00  0.00     0.013 A 
HETATM    9  C20 UNL     1      21.644 -13.704  11.050  1.00  0.00    -0.025 A 
HETATM   10  C26 UNL     1      21.732 -14.490   9.928  1.00  0.00     0.013 A 
HETATM   11  C27 UNL     1      20.847 -14.287   8.864  1.00  0.00     0.013 A 
HETATM   12  C28 UNL     1      19.012 -11.868   7.165  1.00  0.00     0.020 A 
ENDROOT
BRANCH   4  13
HETATM   13  C10 UNL     1      18.046 -15.358   8.037  1.00  0.00    -0.025 A 
HETATM   14  C11 UNL     1      17.606 -15.463   9.353  1.00  0.00     0.012 A 
HETATM   15  C12 UNL     1      17.555 -16.673   9.999  1.00  0.00     0.001 A 
HETATM   16  C13 UNL     1      17.937 -17.836   9.378  1.00  0.00     0.000 A 
HETATM   17  C14 UNL     1      18.380 -17.751   8.063  1.00  0.00     0.001 A 
HETATM   18  C15 UNL     1      18.429 -16.528   7.415  1.00  0.00     0.012 A 
ENDBRANCH   4  13
BRANCH   1  19
HETATM   19  C5  UNL     1      18.296 -10.241   5.481  1.00  0.00     0.077 C 
BRANCH  19  20
HETATM   20  C4  UNL     1      19.286 -10.145   4.416  1.00  0.00    -0.054 A 
HETATM   21  C3  UNL     1      18.892  -9.933   3.122  1.00  0.00     0.007 A 
HETATM   22  C2  UNL     1      19.828  -9.838   2.094  1.00  0.00     0.001 A 
HETATM   23  C1  UNL     1      21.159  -9.965   2.434  1.00  0.00     0.000 A 
HETATM   24  C30 UNL     1      21.603 -10.179   3.723  1.00  0.00     0.001 A 
HETATM   25  C29 UNL     1      20.623 -10.265   4.696  1.00  0.00     0.007 A 
ENDBRANCH  19  20
ENDBRANCH   1  19
BRANCH   9  26
HETATM   26  C21 UNL     1      22.561 -13.904  12.170  1.00  0.00    -0.011 A 
HETATM   27  C22 UNL     1      22.173 -14.428  13.384  1.00  0.00     0.015 A 
HETATM   28  C23 UNL     1      23.078 -14.605  14.429  1.00  0.00     0.018 A 
HETATM   29  C24 UNL     1      24.389 -14.229  14.195  1.00  0.00     0.087 A 
HETATM   30  N1  UNL     1      24.778 -13.714  13.007  1.00  0.00    -0.374 N 
HETATM   31  C25 UNL     1      23.897 -13.547  12.004  1.00  0.00     0.099 A 
ATOM     32  H1  UNL     1      25.752 -13.450  12.869  1.00  0.00     0.164 HD
ENDBRANCH   9  26
TORSDOF 4
ENDMDL
