MODEL 1
REMARK VINA RESULT: -10.380843300      0.000      0.000
REMARK  6 active torsions:
REMARK  status: ('A' for Active; 'I' for Inactive)
REMARK    1  A    between atoms: C2_2  and  C3_3 
REMARK    2  A    between atoms: C2_2  and  O1_11 
REMARK    3  A    between atoms: C4_4  and  C5_5 
REMARK    4  A    between atoms: O1_11  and  C11_12 
REMARK    5  A    between atoms: C11_12  and  C13_14 
REMARK    6  A    between atoms: C17_18  and  C18_19 
ROOT
HETATM    1  C13 UNL     1      20.861 -13.071   6.395  1.00  0.00    -0.002 A 
HETATM    2  C14 UNL     1      19.765 -13.947   6.353  1.00  0.00     0.014 A 
HETATM    3  C15 UNL     1      18.699 -13.717   5.557  1.00  0.00     0.002 A 
HETATM    4  C16 UNL     1      18.672 -12.595   4.756  1.00  0.00     0.012 A 
HETATM    5  C17 UNL     1      19.712 -11.697   4.750  1.00  0.00    -0.025 A 
HETATM    6  C28 UNL     1      20.791 -11.964   5.579  1.00  0.00     0.026 A 
ENDROOT
BRANCH   1   7
HETATM    7  C11 UNL     1      21.977 -13.379   7.270  1.00  0.00     0.077 C 
HETATM    8  C12 UNL     1      22.942 -14.168   6.867  1.00  0.00     0.052 C 
BRANCH   7   9
HETATM    9  O1  UNL     1      22.031 -12.842   8.537  1.00  0.00    -0.312 OA
BRANCH   9  10
HETATM   10  C2  UNL     1      21.295 -13.281   9.622  1.00  0.00     0.066 C 
HETATM   11  C1  UNL     1      22.072 -13.942  10.526  1.00  0.00     0.051 C 
BRANCH  10  12
HETATM   12  C3  UNL     1      19.895 -13.128   9.874  1.00  0.00     0.037 C 
HETATM   13  C4  UNL     1      18.892 -12.420   9.557  1.00  0.00     0.014 C 
BRANCH  13  14
HETATM   14  C5  UNL     1      18.636 -11.295   8.702  1.00  0.00    -0.036 A 
HETATM   15  C6  UNL     1      19.542 -10.208   8.693  1.00  0.00     0.011 A 
HETATM   16  C7  UNL     1      19.387  -9.131   7.862  1.00  0.00     0.001 A 
HETATM   17  C8  UNL     1      18.316  -9.099   7.006  1.00  0.00     0.000 A 
HETATM   18  C9  UNL     1      17.412 -10.127   6.977  1.00  0.00     0.001 A 
HETATM   19  C10 UNL     1      17.578 -11.228   7.830  1.00  0.00     0.011 A 
ENDBRANCH  13  14
ENDBRANCH  10  12
ENDBRANCH   9  10
ENDBRANCH   7   9
ENDBRANCH   1   7
BRANCH   5  20
HETATM   20  C18 UNL     1      19.698 -10.502   3.905  1.00  0.00    -0.025 A 
HETATM   21  C19 UNL     1      18.539  -9.834   3.608  1.00  0.00     0.013 A 
HETATM   22  C20 UNL     1      18.543  -8.701   2.806  1.00  0.00     0.013 A 
HETATM   23  C21 UNL     1      19.742  -8.249   2.306  1.00  0.00    -0.026 A 
HETATM   24  C22 UNL     1      19.727  -7.108   1.501  1.00  0.00     0.012 A 
HETATM   25  C26 UNL     1      20.930  -8.892   2.582  1.00  0.00    -0.025 A 
HETATM   26  C23 UNL     1      20.917  -6.636   0.987  1.00  0.00     0.001 A 
HETATM   27  C24 UNL     1      22.120  -7.258   1.246  1.00  0.00     0.001 A 
HETATM   28  C25 UNL     1      22.096  -8.387   2.049  1.00  0.00     0.012 A 
HETATM   29  C27 UNL     1      20.869 -10.011   3.382  1.00  0.00     0.024 A 
ENDBRANCH   5  20
TORSDOF 6
ENDMDL
MODEL 2
REMARK VINA RESULT: -10.326430337      1.720      3.547
REMARK  6 active torsions:
REMARK  status: ('A' for Active; 'I' for Inactive)
REMARK    1  A    between atoms: C2_2  and  C3_3 
REMARK    2  A    between atoms: C2_2  and  O1_11 
REMARK    3  A    between atoms: C4_4  and  C5_5 
REMARK    4  A    between atoms: O1_11  and  C11_12 
REMARK    5  A    between atoms: C11_12  and  C13_14 
REMARK    6  A    between atoms: C17_18  and  C18_19 
ROOT
HETATM    1  C13 UNL     1      20.068 -11.291   5.469  1.00  0.00    -0.002 A 
HETATM    2  C14 UNL     1      18.728 -11.602   5.187  1.00  0.00     0.014 A 
HETATM    3  C15 UNL     1      18.062 -11.020   4.167  1.00  0.00     0.002 A 
HETATM    4  C16 UNL     1      18.701 -10.095   3.370  1.00  0.00     0.012 A 
HETATM    5  C17 UNL     1      20.012  -9.746   3.592  1.00  0.00    -0.025 A 
HETATM    6  C28 UNL     1      20.667 -10.362   4.647  1.00  0.00     0.026 A 
ENDROOT
BRANCH   1   7
HETATM    7  C11 UNL     1      20.728 -11.956   6.578  1.00  0.00     0.077 C 
HETATM    8  C12 UNL     1      21.159 -13.186   6.456  1.00  0.00     0.052 C 
BRANCH   7   9
HETATM    9  O1  UNL     1      20.906 -11.294   7.773  1.00  0.00    -0.312 OA
BRANCH   9  10
HETATM   10  C2  UNL     1      19.891 -10.820   8.582  1.00  0.00     0.066 C 
HETATM   11  C1  UNL     1      19.576  -9.526   8.293  1.00  0.00     0.051 C 
BRANCH  10  12
HETATM   12  C3  UNL     1      19.187 -11.500   9.626  1.00  0.00     0.037 C 
HETATM   13  C4  UNL     1      18.605 -12.595   9.893  1.00  0.00     0.014 C 
BRANCH  13  14
HETATM   14  C5  UNL     1      18.329 -13.825   9.206  1.00  0.00    -0.036 A 
HETATM   15  C6  UNL     1      18.370 -15.046   9.921  1.00  0.00     0.011 A 
HETATM   16  C7  UNL     1      18.064 -16.248   9.340  1.00  0.00     0.001 A 
HETATM   17  C8  UNL     1      17.704 -16.275   8.017  1.00  0.00     0.000 A 
HETATM   18  C9  UNL     1      17.649 -15.120   7.282  1.00  0.00     0.001 A 
HETATM   19  C10 UNL     1      17.963 -13.893   7.884  1.00  0.00     0.011 A 
ENDBRANCH  13  14
ENDBRANCH  10  12
ENDBRANCH   9  10
ENDBRANCH   7   9
ENDBRANCH   1   7
BRANCH   5  20
HETATM   20  C18 UNL     1      20.704  -8.765   2.755  1.00  0.00    -0.025 A 
HETATM   21  C19 UNL     1      21.563  -9.139   1.755  1.00  0.00     0.013 A 
HETATM   22  C20 UNL     1      22.211  -8.195   0.969  1.00  0.00     0.013 A 
HETATM   23  C21 UNL     1      21.977  -6.861   1.209  1.00  0.00    -0.026 A 
HETATM   24  C22 UNL     1      22.638  -5.926   0.409  1.00  0.00     0.012 A 
HETATM   25  C26 UNL     1      21.120  -6.444   2.205  1.00  0.00    -0.025 A 
HETATM   26  C23 UNL     1      22.420  -4.583   0.631  1.00  0.00     0.001 A 
HETATM   27  C24 UNL     1      21.569  -4.136   1.620  1.00  0.00     0.001 A 
HETATM   28  C25 UNL     1      20.930  -5.092   2.393  1.00  0.00     0.012 A 
HETATM   29  C27 UNL     1      20.504  -7.421   2.955  1.00  0.00     0.024 A 
ENDBRANCH   5  20
TORSDOF 6
ENDMDL
MODEL 3
REMARK VINA RESULT: -10.290307299      1.646      3.387
REMARK  6 active torsions:
REMARK  status: ('A' for Active; 'I' for Inactive)
REMARK    1  A    between atoms: C2_2  and  C3_3 
REMARK    2  A    between atoms: C2_2  and  O1_11 
REMARK    3  A    between atoms: C4_4  and  C5_5 
REMARK    4  A    between atoms: O1_11  and  C11_12 
REMARK    5  A    between atoms: C11_12  and  C13_14 
REMARK    6  A    between atoms: C17_18  and  C18_19 
ROOT
HETATM    1  C13 UNL     1      18.209 -11.722   6.726  1.00  0.00    -0.002 A 
HETATM    2  C14 UNL     1      17.855 -10.783   7.706  1.00  0.00     0.014 A 
HETATM    3  C15 UNL     1      18.176  -9.476   7.589  1.00  0.00     0.002 A 
HETATM    4  C16 UNL     1      18.869  -9.038   6.481  1.00  0.00     0.012 A 
HETATM    5  C17 UNL     1      19.246  -9.907   5.485  1.00  0.00    -0.025 A 
HETATM    6  C28 UNL     1      18.901 -11.240   5.636  1.00  0.00     0.026 A 
ENDROOT
BRANCH   1   7
HETATM    7  C11 UNL     1      17.830 -13.112   6.911  1.00  0.00     0.077 C 
HETATM    8  C12 UNL     1      17.932 -13.966   5.925  1.00  0.00     0.052 C 
BRANCH   7   9
HETATM    9  O1  UNL     1      17.358 -13.543   8.131  1.00  0.00    -0.312 OA
BRANCH   9  10
HETATM   10  C2  UNL     1      18.132 -14.085   9.140  1.00  0.00     0.066 C 
HETATM   11  C1  UNL     1      17.678 -15.311   9.523  1.00  0.00     0.051 C 
BRANCH  10  12
HETATM   12  C3  UNL     1      19.280 -13.526   9.786  1.00  0.00     0.037 C 
HETATM   13  C4  UNL     1      20.396 -12.974   9.542  1.00  0.00     0.014 C 
BRANCH  13  14
HETATM   14  C5  UNL     1      21.144 -12.601   8.375  1.00  0.00    -0.036 A 
HETATM   15  C6  UNL     1      21.417 -13.574   7.383  1.00  0.00     0.011 A 
HETATM   16  C7  UNL     1      22.077 -13.272   6.222  1.00  0.00     0.001 A 
HETATM   17  C8  UNL     1      22.491 -11.983   6.007  1.00  0.00     0.000 A 
HETATM   18  C9  UNL     1      22.249 -11.005   6.936  1.00  0.00     0.001 A 
HETATM   19  C10 UNL     1      21.572 -11.321   8.123  1.00  0.00     0.011 A 
ENDBRANCH  13  14
ENDBRANCH  10  12
ENDBRANCH   9  10
ENDBRANCH   7   9
ENDBRANCH   1   7
BRANCH   5  20
HETATM   20  C18 UNL     1      19.981  -9.456   4.303  1.00  0.00    -0.025 A 
HETATM   21  C19 UNL     1      20.603 -10.334   3.453  1.00  0.00     0.013 A 
HETATM   22  C20 UNL     1      21.296  -9.890   2.335  1.00  0.00     0.013 A 
HETATM   23  C21 UNL     1      21.352  -8.538   2.085  1.00  0.00    -0.026 A 
HETATM   24  C22 UNL     1      22.054  -8.110   0.957  1.00  0.00     0.012 A 
HETATM   25  C26 UNL     1      20.741  -7.623   2.915  1.00  0.00    -0.025 A 
HETATM   26  C23 UNL     1      22.125  -6.760   0.686  1.00  0.00     0.001 A 
HETATM   27  C24 UNL     1      21.524  -5.821   1.497  1.00  0.00     0.001 A 
HETATM   28  C25 UNL     1      20.836  -6.283   2.608  1.00  0.00     0.012 A 
HETATM   29  C27 UNL     1      20.067  -8.116   4.010  1.00  0.00     0.024 A 
ENDBRANCH   5  20
TORSDOF 6
ENDMDL
MODEL 4
REMARK VINA RESULT: -10.258498560      1.197      1.857
REMARK  6 active torsions:
REMARK  status: ('A' for Active; 'I' for Inactive)
REMARK    1  A    between atoms: C2_2  and  C3_3 
REMARK    2  A    between atoms: C2_2  and  O1_11 
REMARK    3  A    between atoms: C4_4  and  C5_5 
REMARK    4  A    between atoms: O1_11  and  C11_12 
REMARK    5  A    between atoms: C11_12  and  C13_14 
REMARK    6  A    between atoms: C17_18  and  C18_19 
ROOT
HETATM    1  C13 UNL     1      20.044 -12.505   5.578  1.00  0.00    -0.002 A 
HETATM    2  C14 UNL     1      18.687 -12.786   5.359  1.00  0.00     0.014 A 
HETATM    3  C15 UNL     1      17.951 -12.090   4.467  1.00  0.00     0.002 A 
HETATM    4  C16 UNL     1      18.535 -11.072   3.743  1.00  0.00     0.012 A 
HETATM    5  C17 UNL     1      19.859 -10.746   3.910  1.00  0.00    -0.025 A 
HETATM    6  C28 UNL     1      20.586 -11.481   4.833  1.00  0.00     0.026 A 
ENDROOT
BRANCH   1   7
HETATM    7  C11 UNL     1      20.780 -13.295   6.549  1.00  0.00     0.077 C 
HETATM    8  C12 UNL     1      22.075 -13.152   6.679  1.00  0.00     0.052 C 
BRANCH   7   9
HETATM    9  O1  UNL     1      20.119 -14.205   7.344  1.00  0.00    -0.312 OA
BRANCH   9  10
HETATM   10  C2  UNL     1      20.119 -14.206   8.726  1.00  0.00     0.066 C 
HETATM   11  C1  UNL     1      20.617 -15.370   9.231  1.00  0.00     0.051 C 
BRANCH  10  12
HETATM   12  C3  UNL     1      19.676 -13.182   9.622  1.00  0.00     0.037 C 
HETATM   13  C4  UNL     1      19.254 -11.986   9.646  1.00  0.00     0.014 C 
BRANCH  13  14
HETATM   14  C5  UNL     1      18.991 -10.952   8.685  1.00  0.00    -0.036 A 
HETATM   15  C6  UNL     1      20.017 -10.039   8.346  1.00  0.00     0.011 A 
HETATM   16  C7  UNL     1      19.849  -9.065   7.398  1.00  0.00     0.001 A 
HETATM   17  C8  UNL     1      18.645  -8.966   6.751  1.00  0.00     0.000 A 
HETATM   18  C9  UNL     1      17.620  -9.828   7.043  1.00  0.00     0.001 A 
HETATM   19  C10 UNL     1      17.800 -10.824   8.014  1.00  0.00     0.011 A 
ENDBRANCH  13  14
ENDBRANCH  10  12
ENDBRANCH   9  10
ENDBRANCH   7   9
ENDBRANCH   1   7
BRANCH   5  20
HETATM   20  C18 UNL     1      20.493  -9.669   3.149  1.00  0.00    -0.025 A 
HETATM   21  C19 UNL     1      21.355  -9.918   2.112  1.00  0.00     0.013 A 
HETATM   22  C20 UNL     1      21.947  -8.884   1.400  1.00  0.00     0.013 A 
HETATM   23  C21 UNL     1      21.655  -7.587   1.751  1.00  0.00    -0.026 A 
HETATM   24  C22 UNL     1      22.259  -6.560   1.024  1.00  0.00     0.012 A 
HETATM   25  C26 UNL     1      20.793  -7.293   2.786  1.00  0.00    -0.025 A 
HETATM   26  C23 UNL     1      21.982  -5.250   1.357  1.00  0.00     0.001 A 
HETATM   27  C24 UNL     1      21.125  -4.927   2.388  1.00  0.00     0.001 A 
HETATM   28  C25 UNL     1      20.543  -5.972   3.087  1.00  0.00     0.012 A 
HETATM   29  C27 UNL     1      20.234  -8.356   3.461  1.00  0.00     0.024 A 
ENDBRANCH   5  20
TORSDOF 6
ENDMDL
MODEL 5
REMARK VINA RESULT: -10.072683374      1.347      2.326
REMARK  6 active torsions:
REMARK  status: ('A' for Active; 'I' for Inactive)
REMARK    1  A    between atoms: C2_2  and  C3_3 
REMARK    2  A    between atoms: C2_2  and  O1_11 
REMARK    3  A    between atoms: C4_4  and  C5_5 
REMARK    4  A    between atoms: O1_11  and  C11_12 
REMARK    5  A    between atoms: C11_12  and  C13_14 
REMARK    6  A    between atoms: C17_18  and  C18_19 
ROOT
HETATM    1  C13 UNL     1      19.964 -12.825   5.852  1.00  0.00    -0.002 A 
HETATM    2  C14 UNL     1      21.215 -12.868   6.486  1.00  0.00     0.014 A 
HETATM    3  C15 UNL     1      22.179 -11.959   6.224  1.00  0.00     0.002 A 
HETATM    4  C16 UNL     1      21.942 -10.954   5.311  1.00  0.00     0.012 A 
HETATM    5  C17 UNL     1      20.739 -10.855   4.654  1.00  0.00    -0.025 A 
HETATM    6  C28 UNL     1      19.772 -11.804   4.947  1.00  0.00     0.026 A 
ENDROOT
BRANCH   1   7
HETATM    7  C11 UNL     1      18.970 -13.830   6.182  1.00  0.00     0.077 C 
HETATM    8  C12 UNL     1      17.846 -13.899   5.514  1.00  0.00     0.052 C 
BRANCH   7   9
HETATM    9  O1  UNL     1      19.203 -14.722   7.205  1.00  0.00    -0.312 OA
BRANCH   9  10
HETATM   10  C2  UNL     1      18.600 -14.685   8.448  1.00  0.00     0.066 C 
HETATM   11  C1  UNL     1      17.880 -15.816   8.695  1.00  0.00     0.051 C 
BRANCH  10  12
HETATM   12  C3  UNL     1      18.646 -13.650   9.435  1.00  0.00     0.037 C 
HETATM   13  C4  UNL     1      18.688 -12.389   9.562  1.00  0.00     0.014 C 
BRANCH  13  14
HETATM   14  C5  UNL     1      18.722 -11.252   8.685  1.00  0.00    -0.036 A 
HETATM   15  C6  UNL     1      17.651 -11.034   7.787  1.00  0.00     0.011 A 
HETATM   16  C7  UNL     1      17.595  -9.941   6.964  1.00  0.00     0.001 A 
HETATM   17  C8  UNL     1      18.610  -9.022   7.007  1.00  0.00     0.000 A 
HETATM   18  C9  UNL     1      19.669  -9.187   7.861  1.00  0.00     0.001 A 
HETATM   19  C10 UNL     1      19.720 -10.309   8.702  1.00  0.00     0.011 A 
ENDBRANCH  13  14
ENDBRANCH  10  12
ENDBRANCH   9  10
ENDBRANCH   7   9
ENDBRANCH   1   7
BRANCH   5  20
HETATM   20  C18 UNL     1      20.472  -9.793   3.683  1.00  0.00    -0.025 A 
HETATM   21  C19 UNL     1      19.203  -9.346   3.422  1.00  0.00     0.013 A 
HETATM   22  C20 UNL     1      18.968  -8.338   2.497  1.00  0.00     0.013 A 
HETATM   23  C21 UNL     1      20.040  -7.783   1.836  1.00  0.00    -0.026 A 
HETATM   24  C22 UNL     1      19.784  -6.770   0.910  1.00  0.00     0.012 A 
HETATM   25  C26 UNL     1      21.331  -8.204   2.070  1.00  0.00    -0.025 A 
HETATM   26  C23 UNL     1      20.842  -6.198   0.235  1.00  0.00     0.001 A 
HETATM   27  C24 UNL     1      22.144  -6.599   0.448  1.00  0.00     0.001 A 
HETATM   28  C25 UNL     1      22.360  -7.607   1.374  1.00  0.00     0.012 A 
HETATM   29  C27 UNL     1      21.509  -9.208   2.997  1.00  0.00     0.024 A 
ENDBRANCH   5  20
TORSDOF 6
ENDMDL
