MODEL 1
REMARK VINA RESULT: -5.591632392      0.000      0.000
REMARK  5 active torsions:
REMARK  status: ('A' for Active; 'I' for Inactive)
REMARK    1  A    between atoms: N1_1  and  N2_4 
REMARK    2  A    between atoms: N2_4  and  C1_6 
REMARK    3  A    between atoms: N3_7  and  N4_9 
REMARK    4  A    between atoms: N4_9  and  N5_11 
REMARK    5  A    between atoms: N5_11  and  C2_13 
ROOT
HETATM    1  N4  UNL     1      95.191  41.097  48.646  1.00  0.00    -0.240 N 
ATOM      2  H4  UNL     1      96.136  40.997  49.020  1.00  0.00     0.208 HD
ENDROOT
BRANCH   1   3
HETATM    3  N3  UNL     1      94.341  41.844  49.291  1.00  0.00    -0.281 N 
HETATM    4  C1  UNL     1      93.478  42.661  49.426  1.00  0.00     0.214 C 
ATOM      5  H3  UNL     1      94.514  41.567  50.258  1.00  0.00     0.189 HD
BRANCH   4   6
HETATM    6  N2  UNL     1      92.991  42.964  50.766  1.00  0.00    -0.301 N 
ATOM      7  H2  UNL     1      93.493  43.598  51.388  1.00  0.00     0.187 HD
BRANCH   6   8
HETATM    8  N1  UNL     1      91.823  42.352  51.148  1.00  0.00    -0.344 N 
ATOM      9  H12 UNL     1      91.283  41.795  50.484  1.00  0.00     0.176 HD
ATOM     10  H11 UNL     1      91.533  42.485  52.117  1.00  0.00     0.176 HD
ENDBRANCH   6   8
ENDBRANCH   4   6
ENDBRANCH   1   3
BRANCH   1  11
HETATM   11  N5  UNL     1      94.866  40.426  47.467  1.00  0.00    -0.271 N 
ATOM     12  H5  UNL     1      94.286  39.587  47.472  1.00  0.00     0.190 HD
BRANCH  11  13
HETATM   13  C2  UNL     1      95.378  40.965  46.261  1.00  0.00     0.120 A 
HETATM   14  C3  UNL     1      94.688  41.872  45.490  1.00  0.00     0.050 A 
HETATM   15  C4  UNL     1      95.197  42.380  44.310  1.00  0.00     0.005 A 
HETATM   16  C5  UNL     1      96.443  41.975  43.869  1.00  0.00     0.017 A 
HETATM   17  C6  UNL     1      97.111  41.066  44.656  1.00  0.00     0.089 A 
HETATM   18  N6  UNL     1      96.590  40.583  45.810  1.00  0.00    -0.351 N 
ATOM     19  H6  UNL     1      97.131  39.910  46.354  1.00  0.00     0.166 HD
ENDBRANCH  11  13
ENDBRANCH   1  11
TORSDOF 5
ENDMDL
MODEL 2
REMARK VINA RESULT: -5.444596021      1.054      1.129
REMARK  5 active torsions:
REMARK  status: ('A' for Active; 'I' for Inactive)
REMARK    1  A    between atoms: N1_1  and  N2_4 
REMARK    2  A    between atoms: N2_4  and  C1_6 
REMARK    3  A    between atoms: N3_7  and  N4_9 
REMARK    4  A    between atoms: N4_9  and  N5_11 
REMARK    5  A    between atoms: N5_11  and  C2_13 
ROOT
HETATM    1  N4  UNL     1      94.938  41.806  49.278  1.00  0.00    -0.240 N 
ATOM      2  H4  UNL     1      95.828  42.270  49.463  1.00  0.00     0.208 HD
ENDROOT
BRANCH   1   3
HETATM    3  N3  UNL     1      93.854  42.303  49.804  1.00  0.00    -0.281 N 
HETATM    4  C1  UNL     1      92.815  42.895  49.826  1.00  0.00     0.214 C 
ATOM      5  H3  UNL     1      93.947  42.016  50.779  1.00  0.00     0.189 HD
BRANCH   4   6
HETATM    6  N2  UNL     1      92.085  43.001  51.083  1.00  0.00    -0.301 N 
ATOM      7  H2  UNL     1      92.118  43.847  51.652  1.00  0.00     0.187 HD
BRANCH   6   8
HETATM    8  N1  UNL     1      91.352  41.903  51.462  1.00  0.00    -0.344 N 
ATOM      9  H12 UNL     1      90.430  42.012  51.885  1.00  0.00     0.176 HD
ATOM     10  H11 UNL     1      91.778  40.992  51.297  1.00  0.00     0.176 HD
ENDBRANCH   6   8
ENDBRANCH   4   6
ENDBRANCH   1   3
BRANCH   1  11
HETATM   11  N5  UNL     1      94.933  40.667  48.473  1.00  0.00    -0.271 N 
ATOM     12  H5  UNL     1      94.918  39.729  48.875  1.00  0.00     0.190 HD
BRANCH  11  13
HETATM   13  C2  UNL     1      94.950  40.873  47.071  1.00  0.00     0.120 A 
HETATM   14  C3  UNL     1      94.240  41.875  46.450  1.00  0.00     0.050 A 
HETATM   15  C4  UNL     1      94.258  42.056  45.080  1.00  0.00     0.005 A 
HETATM   16  C5  UNL     1      95.011  41.210  44.285  1.00  0.00     0.017 A 
HETATM   17  C6  UNL     1      95.709  40.216  44.931  1.00  0.00     0.089 A 
HETATM   18  N6  UNL     1      95.675  40.060  46.276  1.00  0.00    -0.351 N 
ATOM     19  H6  UNL     1      96.214  39.305  46.701  1.00  0.00     0.166 HD
ENDBRANCH  11  13
ENDBRANCH   1  11
TORSDOF 5
ENDMDL
MODEL 3
REMARK VINA RESULT: -5.278831819      2.042      5.273
REMARK  5 active torsions:
REMARK  status: ('A' for Active; 'I' for Inactive)
REMARK    1  A    between atoms: N1_1  and  N2_4 
REMARK    2  A    between atoms: N2_4  and  C1_6 
REMARK    3  A    between atoms: N3_7  and  N4_9 
REMARK    4  A    between atoms: N4_9  and  N5_11 
REMARK    5  A    between atoms: N5_11  and  C2_13 
ROOT
HETATM    1  N4  UNL     1      96.677  40.546  45.843  1.00  0.00    -0.240 N 
ATOM      2  H4  UNL     1      97.424  40.114  46.388  1.00  0.00     0.208 HD
ENDROOT
BRANCH   1   3
HETATM    3  N3  UNL     1      96.999  41.338  44.860  1.00  0.00    -0.281 N 
HETATM    4  C1  UNL     1      97.658  41.747  43.949  1.00  0.00     0.214 C 
ATOM      5  H3  UNL     1      96.231  42.010  44.876  1.00  0.00     0.189 HD
BRANCH   4   6
HETATM    6  N2  UNL     1      97.209  42.929  43.224  1.00  0.00    -0.301 N 
ATOM      7  H2  UNL     1      97.827  43.436  42.590  1.00  0.00     0.187 HD
BRANCH   6   8
HETATM    8  N1  UNL     1      95.912  43.326  43.439  1.00  0.00    -0.344 N 
ATOM      9  H12 UNL     1      95.439  43.946  42.782  1.00  0.00     0.176 HD
ATOM     10  H11 UNL     1      95.459  42.968  44.280  1.00  0.00     0.176 HD
ENDBRANCH   6   8
ENDBRANCH   4   6
ENDBRANCH   1   3
BRANCH   1  11
HETATM   11  N5  UNL     1      95.353  40.263  46.183  1.00  0.00    -0.271 N 
ATOM     12  H5  UNL     1      94.851  39.480  45.766  1.00  0.00     0.190 HD
BRANCH  11  13
HETATM   13  C2  UNL     1      94.740  41.116  47.135  1.00  0.00     0.120 A 
HETATM   14  C3  UNL     1      93.783  42.047  46.803  1.00  0.00     0.050 A 
HETATM   15  C4  UNL     1      93.203  42.879  47.740  1.00  0.00     0.005 A 
HETATM   16  C5  UNL     1      93.583  42.789  49.067  1.00  0.00     0.017 A 
HETATM   17  C6  UNL     1      94.543  41.852  49.372  1.00  0.00     0.089 A 
HETATM   18  N6  UNL     1      95.097  41.047  48.433  1.00  0.00    -0.351 N 
ATOM     19  H6  UNL     1      95.804  40.370  48.717  1.00  0.00     0.166 HD
ENDBRANCH  11  13
ENDBRANCH   1  11
TORSDOF 5
ENDMDL
MODEL 4
REMARK VINA RESULT: -5.260922639      0.817      1.348
REMARK  5 active torsions:
REMARK  status: ('A' for Active; 'I' for Inactive)
REMARK    1  A    between atoms: N1_1  and  N2_4 
REMARK    2  A    between atoms: N2_4  and  C1_6 
REMARK    3  A    between atoms: N3_7  and  N4_9 
REMARK    4  A    between atoms: N4_9  and  N5_11 
REMARK    5  A    between atoms: N5_11  and  C2_13 
ROOT
HETATM    1  N4  UNL     1      95.197  41.101  48.590  1.00  0.00    -0.240 N 
ATOM      2  H4  UNL     1      96.163  41.052  48.914  1.00  0.00     0.208 HD
ENDROOT
BRANCH   1   3
HETATM    3  N3  UNL     1      94.352  41.837  49.255  1.00  0.00    -0.281 N 
HETATM    4  C1  UNL     1      93.489  42.650  49.412  1.00  0.00     0.214 C 
ATOM      5  H3  UNL     1      94.537  41.546  50.215  1.00  0.00     0.189 HD
BRANCH   4   6
HETATM    6  N2  UNL     1      93.017  42.932  50.762  1.00  0.00    -0.301 N 
ATOM      7  H2  UNL     1      93.542  43.531  51.400  1.00  0.00     0.187 HD
BRANCH   6   8
HETATM    8  N1  UNL     1      91.830  42.348  51.132  1.00  0.00    -0.344 N 
ATOM      9  H12 UNL     1      91.320  41.747  50.485  1.00  0.00     0.176 HD
ATOM     10  H11 UNL     1      91.498  42.548  52.075  1.00  0.00     0.176 HD
ENDBRANCH   6   8
ENDBRANCH   4   6
ENDBRANCH   1   3
BRANCH   1  11
HETATM   11  N5  UNL     1      94.837  40.378  47.452  1.00  0.00    -0.271 N 
ATOM     12  H5  UNL     1      94.288  39.521  47.516  1.00  0.00     0.190 HD
BRANCH  11  13
HETATM   13  C2  UNL     1      95.268  40.891  46.203  1.00  0.00     0.120 A 
HETATM   14  C3  UNL     1      96.328  40.366  45.501  1.00  0.00     0.050 A 
HETATM   15  C4  UNL     1      96.745  40.884  44.290  1.00  0.00     0.005 A 
HETATM   16  C5  UNL     1      96.086  41.971  43.745  1.00  0.00     0.017 A 
HETATM   17  C6  UNL     1      95.031  42.479  44.469  1.00  0.00     0.089 A 
HETATM   18  N6  UNL     1      94.642  41.952  45.654  1.00  0.00    -0.351 N 
ATOM     19  H6  UNL     1      93.852  42.370  46.146  1.00  0.00     0.166 HD
ENDBRANCH  11  13
ENDBRANCH   1  11
TORSDOF 5
ENDMDL
MODEL 5
REMARK VINA RESULT: -5.202466459      1.057      1.110
REMARK  5 active torsions:
REMARK  status: ('A' for Active; 'I' for Inactive)
REMARK    1  A    between atoms: N1_1  and  N2_4 
REMARK    2  A    between atoms: N2_4  and  C1_6 
REMARK    3  A    between atoms: N3_7  and  N4_9 
REMARK    4  A    between atoms: N4_9  and  N5_11 
REMARK    5  A    between atoms: N5_11  and  C2_13 
ROOT
HETATM    1  N4  UNL     1      93.762  42.344  47.713  1.00  0.00    -0.240 N 
ATOM      2  H4  UNL     1      93.475  42.913  46.916  1.00  0.00     0.208 HD
ENDROOT
BRANCH   1   3
HETATM    3  N3  UNL     1      93.303  42.647  48.894  1.00  0.00    -0.281 N 
HETATM    4  C1  UNL     1      92.738  43.305  49.718  1.00  0.00     0.214 C 
ATOM      5  H3  UNL     1      93.607  41.845  49.446  1.00  0.00     0.189 HD
BRANCH   4   6
HETATM    6  N2  UNL     1      92.657  42.811  51.087  1.00  0.00    -0.301 N 
ATOM      7  H2  UNL     1      93.422  42.940  51.749  1.00  0.00     0.187 HD
BRANCH   6   8
HETATM    8  N1  UNL     1      91.498  42.164  51.439  1.00  0.00    -0.344 N 
ATOM      9  H12 UNL     1      91.136  42.222  52.391  1.00  0.00     0.176 HD
ATOM     10  H11 UNL     1      91.032  41.632  50.705  1.00  0.00     0.176 HD
ENDBRANCH   6   8
ENDBRANCH   4   6
ENDBRANCH   1   3
BRANCH   1  11
HETATM   11  N5  UNL     1      94.629  41.273  47.492  1.00  0.00    -0.271 N 
ATOM     12  H5  UNL     1      94.941  40.673  48.254  1.00  0.00     0.190 HD
BRANCH  11  13
HETATM   13  C2  UNL     1      95.055  41.060  46.157  1.00  0.00     0.120 A 
HETATM   14  C3  UNL     1      94.545  41.755  45.085  1.00  0.00     0.050 A 
HETATM   15  C4  UNL     1      94.963  41.528  43.788  1.00  0.00     0.005 A 
HETATM   16  C5  UNL     1      95.928  40.570  43.535  1.00  0.00     0.017 A 
HETATM   17  C6  UNL     1      96.420  39.888  44.624  1.00  0.00     0.089 A 
HETATM   18  N6  UNL     1      95.994  40.130  45.887  1.00  0.00    -0.351 N 
ATOM     19  H6  UNL     1      96.395  39.594  46.656  1.00  0.00     0.166 HD
ENDBRANCH  11  13
ENDBRANCH   1  11
TORSDOF 5
ENDMDL
