MODEL 1
REMARK VINA RESULT: -6.073542891      0.000      0.000
REMARK  6 active torsions:
REMARK  status: ('A' for Active; 'I' for Inactive)
REMARK    1  A    between atoms: C2_2  and  C3_3 
REMARK    2  A    between atoms: C2_2  and  O1_8 
REMARK    3  A    between atoms: C3_3  and  C4_4 
REMARK    4  A    between atoms: O1_8  and  C5_9 
REMARK    5  A    between atoms: C8_15  and  C9_16 
REMARK    6  A    between atoms: C9_16  and  C10_17 
ROOT
HETATM    1  C5  UNL     1      33.360   9.542 106.814  1.00  0.00     0.154 C 
HETATM    2  C6  UNL     1      34.861   9.563 106.946  1.00  0.00     0.061 C 
HETATM    3  C7  UNL     1      35.227  11.003 107.231  1.00  0.00     0.235 C 
HETATM    4  N2  UNL     1      34.019  11.769 107.218  1.00  0.00    -0.068 N 
ATOM      5  H21 UNL     1      33.936  12.362 106.393  1.00  0.00     0.277 HD
ATOM      6  H22 UNL     1      34.014  12.511 107.919  1.00  0.00     0.277 HD
HETATM    7  C8  UNL     1      32.908  10.851 107.365  1.00  0.00     0.215 C 
ENDROOT
BRANCH   1   8
HETATM    8  O1  UNL     1      32.749   8.513 107.465  1.00  0.00    -0.379 OA
BRANCH   8   9
HETATM    9  C2  UNL     1      33.513   7.427 107.753  1.00  0.00     0.122 C 
HETATM   10  C1  UNL     1      33.030   6.139 107.138  1.00  0.00     0.040 C 
BRANCH   9  11
HETATM   11  C3  UNL     1      33.470   7.217 109.262  1.00  0.00     0.075 C 
BRANCH  11  12
HETATM   12  C4  UNL     1      34.794   7.459 109.890  1.00  0.00     0.055 C 
HETATM   13  N1  UNL     1      35.822   6.940 109.363  1.00  0.00    -0.411 N 
ATOM     14  H12 UNL     1      35.725   6.368 108.523  1.00  0.00     0.155 HD
ATOM     15  H11 UNL     1      36.731   7.107 109.794  1.00  0.00     0.155 HD
ENDBRANCH  11  12
ENDBRANCH   9  11
ENDBRANCH   8   9
ENDBRANCH   1   8
BRANCH   7  16
HETATM   16  C9  UNL     1      32.553  10.803 108.828  1.00  0.00     0.040 C 
BRANCH  16  17
HETATM   17  C10 UNL     1      32.215  12.203 109.295  1.00  0.00    -0.012 A 
HETATM   18  C11 UNL     1      30.884  12.796 109.032  1.00  0.00     0.005 A 
HETATM   19  C12 UNL     1      31.263  12.387 110.427  1.00  0.00     0.005 A 
ENDBRANCH  16  17
ENDBRANCH   7  16
TORSDOF 6
ENDMDL
MODEL 2
REMARK VINA RESULT: -6.070589754      1.968      5.452
REMARK  6 active torsions:
REMARK  status: ('A' for Active; 'I' for Inactive)
REMARK    1  A    between atoms: C2_2  and  C3_3 
REMARK    2  A    between atoms: C2_2  and  O1_8 
REMARK    3  A    between atoms: C3_3  and  C4_4 
REMARK    4  A    between atoms: O1_8  and  C5_9 
REMARK    5  A    between atoms: C8_15  and  C9_16 
REMARK    6  A    between atoms: C9_16  and  C10_17 
ROOT
HETATM    1  C5  UNL     1      32.488  11.794 107.752  1.00  0.00     0.154 C 
HETATM    2  C6  UNL     1      32.274  11.455 106.299  1.00  0.00     0.061 C 
HETATM    3  C7  UNL     1      33.392  10.507 105.931  1.00  0.00     0.235 C 
HETATM    4  N2  UNL     1      34.223  10.344 107.084  1.00  0.00    -0.068 N 
ATOM      5  H21 UNL     1      35.121  10.818 106.994  1.00  0.00     0.277 HD
ATOM      6  H22 UNL     1      34.581   9.394 107.183  1.00  0.00     0.277 HD
HETATM    7  C8  UNL     1      33.469  10.784 108.240  1.00  0.00     0.215 C 
ENDROOT
BRANCH   1   8
HETATM    8  O1  UNL     1      31.357  11.766 108.512  1.00  0.00    -0.379 OA
BRANCH   8   9
HETATM    9  C2  UNL     1      31.070  12.885 109.228  1.00  0.00     0.122 C 
HETATM   10  C1  UNL     1      31.442  12.809 110.686  1.00  0.00     0.040 C 
BRANCH   9  11
HETATM   11  C3  UNL     1      29.559  13.086 109.188  1.00  0.00     0.075 C 
BRANCH  11  12
HETATM   12  C4  UNL     1      29.132  13.809 107.963  1.00  0.00     0.055 C 
HETATM   13  N1  UNL     1      29.209  13.213 106.847  1.00  0.00    -0.411 N 
ATOM     14  H12 UNL     1      29.559  12.256 106.808  1.00  0.00     0.155 HD
ATOM     15  H11 UNL     1      28.915  13.710 106.006  1.00  0.00     0.155 HD
ENDBRANCH  11  12
ENDBRANCH   9  11
ENDBRANCH   8   9
ENDBRANCH   1   8
BRANCH   7  16
HETATM   16  C9  UNL     1      32.830   9.565 108.852  1.00  0.00     0.040 C 
BRANCH  16  17
HETATM   17  C10 UNL     1      33.701   8.360 108.563  1.00  0.00    -0.012 A 
HETATM   18  C11 UNL     1      34.385   7.630 109.655  1.00  0.00     0.005 A 
HETATM   19  C12 UNL     1      33.221   7.001 108.944  1.00  0.00     0.005 A 
ENDBRANCH  16  17
ENDBRANCH   7  16
TORSDOF 6
ENDMDL
MODEL 3
REMARK VINA RESULT: -6.055006865      1.607      3.761
REMARK  6 active torsions:
REMARK  status: ('A' for Active; 'I' for Inactive)
REMARK    1  A    between atoms: C2_2  and  C3_3 
REMARK    2  A    between atoms: C2_2  and  O1_8 
REMARK    3  A    between atoms: C3_3  and  C4_4 
REMARK    4  A    between atoms: O1_8  and  C5_9 
REMARK    5  A    between atoms: C8_15  and  C9_16 
REMARK    6  A    between atoms: C9_16  and  C10_17 
ROOT
HETATM    1  C5  UNL     1      33.423   9.874 109.010  1.00  0.00     0.154 C 
HETATM    2  C6  UNL     1      32.320  10.873 109.253  1.00  0.00     0.061 C 
HETATM    3  C7  UNL     1      32.877  12.210 108.820  1.00  0.00     0.235 C 
HETATM    4  N2  UNL     1      34.229  12.004 108.398  1.00  0.00    -0.068 N 
ATOM      5  H21 UNL     1      34.910  12.373 109.061  1.00  0.00     0.277 HD
ATOM      6  H22 UNL     1      34.487  12.584 107.600  1.00  0.00     0.277 HD
HETATM    7  C8  UNL     1      34.403  10.588 108.144  1.00  0.00     0.215 C 
ENDROOT
BRANCH   1   8
HETATM    8  O1  UNL     1      33.017   8.716 108.418  1.00  0.00    -0.379 OA
BRANCH   8   9
HETATM    9  C2  UNL     1      33.241   7.564 109.101  1.00  0.00     0.122 C 
HETATM   10  C1  UNL     1      34.551   7.517 109.843  1.00  0.00     0.040 C 
BRANCH   9  11
HETATM   11  C3  UNL     1      33.288   6.426 108.089  1.00  0.00     0.075 C 
BRANCH  11  12
HETATM   12  C4  UNL     1      33.036   6.907 106.706  1.00  0.00     0.055 C 
HETATM   13  N1  UNL     1      33.748   6.451 105.763  1.00  0.00    -0.411 N 
ATOM     14  H12 UNL     1      34.477   5.766 105.967  1.00  0.00     0.155 HD
ATOM     15  H11 UNL     1      33.575   6.781 104.814  1.00  0.00     0.155 HD
ENDBRANCH  11  12
ENDBRANCH   9  11
ENDBRANCH   8   9
ENDBRANCH   1   8
BRANCH   7  16
HETATM   16  C9  UNL     1      34.185  10.365 106.670  1.00  0.00     0.040 C 
BRANCH  16  17
HETATM   17  C10 UNL     1      35.409   9.685 106.093  1.00  0.00    -0.012 A 
HETATM   18  C11 UNL     1      36.774  10.126 106.462  1.00  0.00     0.005 A 
HETATM   19  C12 UNL     1      36.244   8.814 106.968  1.00  0.00     0.005 A 
ENDBRANCH  16  17
ENDBRANCH   7  16
TORSDOF 6
ENDMDL
MODEL 4
REMARK VINA RESULT: -6.049939756      2.096      5.516
REMARK  6 active torsions:
REMARK  status: ('A' for Active; 'I' for Inactive)
REMARK    1  A    between atoms: C2_2  and  C3_3 
REMARK    2  A    between atoms: C2_2  and  O1_8 
REMARK    3  A    between atoms: C3_3  and  C4_4 
REMARK    4  A    between atoms: O1_8  and  C5_9 
REMARK    5  A    between atoms: C8_15  and  C9_16 
REMARK    6  A    between atoms: C9_16  and  C10_17 
ROOT
HETATM    1  C5  UNL     1      33.599  11.153 109.168  1.00  0.00     0.154 C 
HETATM    2  C6  UNL     1      34.106  11.851 107.932  1.00  0.00     0.061 C 
HETATM    3  C7  UNL     1      35.064  10.881 107.278  1.00  0.00     0.235 C 
HETATM    4  N2  UNL     1      35.140   9.717 108.107  1.00  0.00    -0.068 N 
ATOM      5  H21 UNL     1      36.025   9.647 108.609  1.00  0.00     0.277 HD
ATOM      6  H22 UNL     1      35.219   8.853 107.570  1.00  0.00     0.277 HD
HETATM    7  C8  UNL     1      33.992   9.726 108.991  1.00  0.00     0.215 C 
ENDROOT
BRANCH   1   8
HETATM    8  O1  UNL     1      32.255  11.257 109.366  1.00  0.00    -0.379 OA
BRANCH   8   9
HETATM    9  C2  UNL     1      31.743  12.512 109.461  1.00  0.00     0.122 C 
HETATM   10  C1  UNL     1      31.008  12.796 110.744  1.00  0.00     0.040 C 
BRANCH   9  11
HETATM   11  C3  UNL     1      30.721  12.681 108.343  1.00  0.00     0.075 C 
BRANCH  11  12
HETATM   12  C4  UNL     1      29.617  13.592 108.738  1.00  0.00     0.055 C 
HETATM   13  N1  UNL     1      28.811  13.994 107.846  1.00  0.00    -0.411 N 
ATOM     14  H12 UNL     1      28.934  13.689 106.880  1.00  0.00     0.155 HD
ATOM     15  H11 UNL     1      28.053  14.620 108.118  1.00  0.00     0.155 HD
ENDBRANCH  11  12
ENDBRANCH   9  11
ENDBRANCH   8   9
ENDBRANCH   1   8
BRANCH   7  16
HETATM   16  C9  UNL     1      32.923   8.879 108.350  1.00  0.00     0.040 C 
BRANCH  16  17
HETATM   17  C10 UNL     1      33.055   7.459 108.859  1.00  0.00    -0.012 A 
HETATM   18  C11 UNL     1      33.189   6.320 107.922  1.00  0.00     0.005 A 
HETATM   19  C12 UNL     1      34.366   6.759 108.747  1.00  0.00     0.005 A 
ENDBRANCH  16  17
ENDBRANCH   7  16
TORSDOF 6
ENDMDL
MODEL 5
REMARK VINA RESULT: -5.948039008      2.411      5.726
REMARK  6 active torsions:
REMARK  status: ('A' for Active; 'I' for Inactive)
REMARK    1  A    between atoms: C2_2  and  C3_3 
REMARK    2  A    between atoms: C2_2  and  O1_8 
REMARK    3  A    between atoms: C3_3  and  C4_4 
REMARK    4  A    between atoms: O1_8  and  C5_9 
REMARK    5  A    between atoms: C8_15  and  C9_16 
REMARK    6  A    between atoms: C9_16  and  C10_17 
ROOT
HETATM    1  C5  UNL     1      32.390  11.836 107.775  1.00  0.00     0.154 C 
HETATM    2  C6  UNL     1      32.129  11.529 106.323  1.00  0.00     0.061 C 
HETATM    3  C7  UNL     1      33.245  10.604 105.894  1.00  0.00     0.235 C 
HETATM    4  N2  UNL     1      34.118  10.426 107.014  1.00  0.00    -0.068 N 
ATOM      5  H21 UNL     1      35.007  10.913 106.903  1.00  0.00     0.277 HD
ATOM      6  H22 UNL     1      34.491   9.478 107.078  1.00  0.00     0.277 HD
HETATM    7  C8  UNL     1      33.400  10.829 108.205  1.00  0.00     0.215 C 
ENDROOT
BRANCH   1   8
HETATM    8  O1  UNL     1      31.287  11.777 108.573  1.00  0.00    -0.379 OA
BRANCH   8   9
HETATM    9  C2  UNL     1      30.946  12.912 109.238  1.00  0.00     0.122 C 
HETATM   10  C1  UNL     1      31.224  12.880 110.718  1.00  0.00     0.040 C 
BRANCH   9  11
HETATM   11  C3  UNL     1      29.441  13.099 109.095  1.00  0.00     0.075 C 
BRANCH  11  12
HETATM   12  C4  UNL     1      29.053  14.531 109.175  1.00  0.00     0.055 C 
HETATM   13  N1  UNL     1      28.066  14.854 109.901  1.00  0.00    -0.411 N 
ATOM     14  H12 UNL     1      27.558  14.132 110.413  1.00  0.00     0.155 HD
ATOM     15  H11 UNL     1      27.800  15.837 109.957  1.00  0.00     0.155 HD
ENDBRANCH  11  12
ENDBRANCH   9  11
ENDBRANCH   8   9
ENDBRANCH   1   8
BRANCH   7  16
HETATM   16  C9  UNL     1      32.798   9.587 108.810  1.00  0.00     0.040 C 
BRANCH  16  17
HETATM   17  C10 UNL     1      33.719   8.416 108.540  1.00  0.00    -0.012 A 
HETATM   18  C11 UNL     1      34.366   7.679 109.651  1.00  0.00     0.005 A 
HETATM   19  C12 UNL     1      33.261   7.035 108.862  1.00  0.00     0.005 A 
ENDBRANCH  16  17
ENDBRANCH   7  16
TORSDOF 6
ENDMDL
