MODEL 1
REMARK VINA RESULT: -7.103689307      0.000      0.000
REMARK  6 active torsions:
REMARK  status: ('A' for Active; 'I' for Inactive)
REMARK    1  A    between atoms: C2_2  and  N1_3 
REMARK    2  A    between atoms: N1_3  and  C3_6 
REMARK    3  A    between atoms: C6_9  and  C7_10 
REMARK    4  A    between atoms: C7_10  and  N2_11 
REMARK    5  A    between atoms: N2_11  and  C8_13 
REMARK    6  A    between atoms: C8_13  and  C9_14 
ROOT
HETATM    1  C3  UNL     1      35.596   6.425 108.708  1.00  0.00     0.186 C 
HETATM    2  C4  UNL     1      34.657   6.241 107.533  1.00  0.00     0.033 C 
HETATM    3  C5  UNL     1      33.302   6.447 108.140  1.00  0.00     0.008 C 
HETATM    4  C6  UNL     1      33.488   7.402 109.276  1.00  0.00     0.005 C 
HETATM    5  C14 UNL     1      35.007   7.592 109.432  1.00  0.00     0.039 C 
ENDROOT
BRANCH   4   6
HETATM    6  C7  UNL     1      32.870   8.753 108.834  1.00  0.00     0.123 C 
BRANCH   6   7
HETATM    7  N2  UNL     1      33.842   9.777 109.059  1.00  0.00    -0.401 N 
ATOM      8  H2  UNL     1      34.797   9.698 108.708  1.00  0.00     0.158 HD
BRANCH   7   9
HETATM    9  C8  UNL     1      33.414  10.896 109.785  1.00  0.00     0.060 C 
BRANCH   9  10
HETATM   10  C9  UNL     1      32.160  11.582 109.542  1.00  0.00     0.024 C 
HETATM   11  C10 UNL     1      32.049  12.303 108.181  1.00  0.00     0.010 C 
HETATM   12  C11 UNL     1      30.558  12.648 108.246  1.00  0.00     0.001 C 
HETATM   13  C12 UNL     1      30.294  12.952 109.702  1.00  0.00     0.001 C 
HETATM   14  C13 UNL     1      31.647  12.651 110.423  1.00  0.00     0.010 C 
ENDBRANCH   9  10
ENDBRANCH   7   9
ENDBRANCH   6   7
ENDBRANCH   4   6
BRANCH   1  15
HETATM   15  N1  UNL     1      36.958   6.669 108.225  1.00  0.00    -0.071 N 
ATOM     16  H12 UNL     1      37.379   7.506 108.627  1.00  0.00     0.277 HD
ATOM     17  H11 UNL     1      36.989   6.961 107.249  1.00  0.00     0.277 HD
BRANCH  15  18
HETATM   18  C2  UNL     1      37.722   5.479 108.480  1.00  0.00     0.228 C 
HETATM   19  C1  UNL     1      37.709   5.041 109.937  1.00  0.00     0.034 C 
ENDBRANCH  15  18
ENDBRANCH   1  15
TORSDOF 6
ENDMDL
MODEL 2
REMARK VINA RESULT: -6.926424743      2.425      7.313
REMARK  6 active torsions:
REMARK  status: ('A' for Active; 'I' for Inactive)
REMARK    1  A    between atoms: C2_2  and  N1_3 
REMARK    2  A    between atoms: N1_3  and  C3_6 
REMARK    3  A    between atoms: C6_9  and  C7_10 
REMARK    4  A    between atoms: C7_10  and  N2_11 
REMARK    5  A    between atoms: N2_11  and  C8_13 
REMARK    6  A    between atoms: C8_13  and  C9_14 
ROOT
HETATM    1  C3  UNL     1      30.071  12.980 109.309  1.00  0.00     0.186 C 
HETATM    2  C4  UNL     1      31.075  13.013 110.443  1.00  0.00     0.033 C 
HETATM    3  C5  UNL     1      31.971  11.850 110.143  1.00  0.00     0.008 C 
HETATM    4  C6  UNL     1      31.978  11.694 108.655  1.00  0.00     0.005 C 
HETATM    5  C14 UNL     1      30.916  12.668 108.118  1.00  0.00     0.039 C 
ENDROOT
BRANCH   4   6
HETATM    6  C7  UNL     1      33.369  12.165 108.159  1.00  0.00     0.123 C 
BRANCH   6   7
HETATM    7  N2  UNL     1      34.352  11.273 108.691  1.00  0.00    -0.401 N 
ATOM      8  H2  UNL     1      34.746  11.402 109.623  1.00  0.00     0.158 HD
BRANCH   7   9
HETATM    9  C8  UNL     1      34.747  10.214 107.863  1.00  0.00     0.060 C 
BRANCH   9  10
HETATM   10  C9  UNL     1      34.251   8.858 107.999  1.00  0.00     0.024 C 
HETATM   11  C10 UNL     1      33.232   8.411 106.930  1.00  0.00     0.010 C 
HETATM   12  C11 UNL     1      33.182   6.924 107.294  1.00  0.00     0.001 C 
HETATM   13  C12 UNL     1      33.319   6.890 108.799  1.00  0.00     0.001 C 
HETATM   14  C13 UNL     1      33.556   8.377 109.211  1.00  0.00     0.010 C 
ENDBRANCH   9  10
ENDBRANCH   7   9
ENDBRANCH   6   7
ENDBRANCH   4   6
BRANCH   1  15
HETATM   15  N1  UNL     1      29.383  14.270 109.212  1.00  0.00    -0.071 N 
ATOM     16  H12 UNL     1      29.303  14.607 108.253  1.00  0.00     0.277 HD
ATOM     17  H11 UNL     1      29.936  15.045 109.578  1.00  0.00     0.277 HD
BRANCH  15  18
HETATM   18  C2  UNL     1      28.112  14.128 109.865  1.00  0.00     0.228 C 
HETATM   19  C1  UNL     1      27.447  12.780 109.630  1.00  0.00     0.034 C 
ENDBRANCH  15  18
ENDBRANCH   1  15
TORSDOF 6
ENDMDL
MODEL 3
REMARK VINA RESULT: -6.857581002      1.535      2.619
REMARK  6 active torsions:
REMARK  status: ('A' for Active; 'I' for Inactive)
REMARK    1  A    between atoms: C2_2  and  N1_3 
REMARK    2  A    between atoms: N1_3  and  C3_6 
REMARK    3  A    between atoms: C6_9  and  C7_10 
REMARK    4  A    between atoms: C7_10  and  N2_11 
REMARK    5  A    between atoms: N2_11  and  C8_13 
REMARK    6  A    between atoms: C8_13  and  C9_14 
ROOT
HETATM    1  C3  UNL     1      33.162   7.604 108.223  1.00  0.00     0.186 C 
HETATM    2  C4  UNL     1      33.471   8.381 106.960  1.00  0.00     0.033 C 
HETATM    3  C5  UNL     1      32.819   9.709 107.205  1.00  0.00     0.008 C 
HETATM    4  C6  UNL     1      32.854   9.931 108.684  1.00  0.00     0.005 C 
HETATM    5  C14 UNL     1      33.365   8.617 109.302  1.00  0.00     0.039 C 
ENDROOT
BRANCH   4   6
HETATM    6  C7  UNL     1      33.907  11.037 108.949  1.00  0.00     0.123 C 
BRANCH   6   7
HETATM    7  N2  UNL     1      33.211  12.269 109.151  1.00  0.00    -0.401 N 
ATOM      8  H2  UNL     1      33.538  13.145 108.741  1.00  0.00     0.158 HD
BRANCH   7   9
HETATM    9  C8  UNL     1      32.055  12.211 109.941  1.00  0.00     0.060 C 
BRANCH   9  10
HETATM   10  C9  UNL     1      30.841  12.946 109.648  1.00  0.00     0.024 C 
HETATM   11  C10 UNL     1      29.607  12.557 110.489  1.00  0.00     0.010 C 
HETATM   12  C11 UNL     1      28.682  13.695 110.046  1.00  0.00     0.001 C 
HETATM   13  C12 UNL     1      29.022  13.926 108.592  1.00  0.00     0.001 C 
HETATM   14  C13 UNL     1      30.222  12.967 108.306  1.00  0.00     0.010 C 
ENDBRANCH   9  10
ENDBRANCH   7   9
ENDBRANCH   6   7
ENDBRANCH   4   6
BRANCH   1  15
HETATM   15  N1  UNL     1      34.061   6.452 108.334  1.00  0.00    -0.071 N 
ATOM     16  H12 UNL     1      34.286   6.034 107.431  1.00  0.00     0.277 HD
ATOM     17  H11 UNL     1      33.613   5.635 108.749  1.00  0.00     0.277 HD
BRANCH  15  18
HETATM   18  C2  UNL     1      35.224   6.884 109.058  1.00  0.00     0.228 C 
HETATM   19  C1  UNL     1      36.534   6.618 108.332  1.00  0.00     0.034 C 
ENDBRANCH  15  18
ENDBRANCH   1  15
TORSDOF 6
ENDMDL
MODEL 4
REMARK VINA RESULT: -6.794693975      1.473      2.056
REMARK  6 active torsions:
REMARK  status: ('A' for Active; 'I' for Inactive)
REMARK    1  A    between atoms: C2_2  and  N1_3 
REMARK    2  A    between atoms: N1_3  and  C3_6 
REMARK    3  A    between atoms: C6_9  and  C7_10 
REMARK    4  A    between atoms: C7_10  and  N2_11 
REMARK    5  A    between atoms: N2_11  and  C8_13 
REMARK    6  A    between atoms: C8_13  and  C9_14 
ROOT
HETATM    1  C3  UNL     1      35.263   7.219 108.976  1.00  0.00     0.186 C 
HETATM    2  C4  UNL     1      33.785   6.894 108.913  1.00  0.00     0.033 C 
HETATM    3  C5  UNL     1      33.132   8.238 109.035  1.00  0.00     0.008 C 
HETATM    4  C6  UNL     1      34.080   9.225 108.433  1.00  0.00     0.005 C 
HETATM    5  C14 UNL     1      35.376   8.449 108.136  1.00  0.00     0.039 C 
ENDROOT
BRANCH   4   6
HETATM    6  C7  UNL     1      33.463   9.679 107.085  1.00  0.00     0.123 C 
BRANCH   6   7
HETATM    7  N2  UNL     1      33.645  11.092 106.970  1.00  0.00    -0.401 N 
ATOM      8  H2  UNL     1      33.751  11.548 106.063  1.00  0.00     0.158 HD
BRANCH   7   9
HETATM    9  C8  UNL     1      33.670  11.818 108.168  1.00  0.00     0.060 C 
BRANCH   9  10
HETATM   10  C9  UNL     1      32.492  12.399 108.782  1.00  0.00     0.024 C 
HETATM   11  C10 UNL     1      32.098  11.813 110.154  1.00  0.00     0.010 C 
HETATM   12  C11 UNL     1      31.020  12.838 110.520  1.00  0.00     0.001 C 
HETATM   13  C12 UNL     1      30.349  13.177 109.210  1.00  0.00     0.001 C 
HETATM   14  C13 UNL     1      31.166  12.400 108.130  1.00  0.00     0.010 C 
ENDBRANCH   9  10
ENDBRANCH   7   9
ENDBRANCH   6   7
ENDBRANCH   4   6
BRANCH   1  15
HETATM   15  N1  UNL     1      36.045   6.091 108.460  1.00  0.00    -0.071 N 
ATOM     16  H12 UNL     1      36.007   5.271 109.065  1.00  0.00     0.277 HD
ATOM     17  H11 UNL     1      37.051   6.247 108.512  1.00  0.00     0.277 HD
BRANCH  15  18
HETATM   18  C2  UNL     1      35.586   5.827 107.125  1.00  0.00     0.228 C 
HETATM   19  C1  UNL     1      36.106   4.520 106.544  1.00  0.00     0.034 C 
ENDBRANCH  15  18
ENDBRANCH   1  15
TORSDOF 6
ENDMDL
MODEL 5
REMARK VINA RESULT: -6.727319748      1.277      1.730
REMARK  6 active torsions:
REMARK  status: ('A' for Active; 'I' for Inactive)
REMARK    1  A    between atoms: C2_2  and  N1_3 
REMARK    2  A    between atoms: N1_3  and  C3_6 
REMARK    3  A    between atoms: C6_9  and  C7_10 
REMARK    4  A    between atoms: C7_10  and  N2_11 
REMARK    5  A    between atoms: N2_11  and  C8_13 
REMARK    6  A    between atoms: C8_13  and  C9_14 
ROOT
HETATM    1  C3  UNL     1      35.129   6.888 108.432  1.00  0.00     0.186 C 
HETATM    2  C4  UNL     1      33.634   6.707 108.595  1.00  0.00     0.033 C 
HETATM    3  C5  UNL     1      33.157   8.085 108.943  1.00  0.00     0.008 C 
HETATM    4  C6  UNL     1      34.096   9.039 108.276  1.00  0.00     0.005 C 
HETATM    5  C14 UNL     1      35.236   8.183 107.696  1.00  0.00     0.039 C 
ENDROOT
BRANCH   4   6
HETATM    6  C7  UNL     1      33.321   9.684 107.098  1.00  0.00     0.123 C 
BRANCH   6   7
HETATM    7  N2  UNL     1      33.738  11.047 106.990  1.00  0.00    -0.401 N 
ATOM      8  H2  UNL     1      34.003  11.459 106.095  1.00  0.00     0.158 HD
BRANCH   7   9
HETATM    9  C8  UNL     1      33.761  11.788 108.179  1.00  0.00     0.060 C 
BRANCH   9  10
HETATM   10  C9  UNL     1      32.580  12.361 108.794  1.00  0.00     0.024 C 
HETATM   11  C10 UNL     1      32.171  11.748 110.150  1.00  0.00     0.010 C 
HETATM   12  C11 UNL     1      31.093  12.769 110.528  1.00  0.00     0.001 C 
HETATM   13  C12 UNL     1      30.435  13.138 109.219  1.00  0.00     0.001 C 
HETATM   14  C13 UNL     1      31.260  12.380 108.130  1.00  0.00     0.010 C 
ENDBRANCH   9  10
ENDBRANCH   7   9
ENDBRANCH   6   7
ENDBRANCH   4   6
BRANCH   1  15
HETATM   15  N1  UNL     1      35.693   5.753 107.695  1.00  0.00    -0.071 N 
ATOM     16  H12 UNL     1      35.550   5.823 106.688  1.00  0.00     0.277 HD
ATOM     17  H11 UNL     1      35.177   4.886 107.842  1.00  0.00     0.277 HD
BRANCH  15  18
HETATM   18  C2  UNL     1      37.078   5.652 108.061  1.00  0.00     0.228 C 
HETATM   19  C1  UNL     1      37.313   5.555 109.561  1.00  0.00     0.034 C 
ENDBRANCH  15  18
ENDBRANCH   1  15
TORSDOF 6
ENDMDL
