MODEL 1
REMARK VINA RESULT: -7.165485350      0.000      0.000
REMARK  5 active torsions:
REMARK  status: ('A' for Active; 'I' for Inactive)
REMARK    1  A    between atoms: C5_5  and  N1_6 
REMARK    2  A    between atoms: N1_6  and  C6_9 
REMARK    3  A    between atoms: C6_9  and  C7_10 
REMARK    4  A    between atoms: C7_10  and  N2_11 
REMARK    5  A    between atoms: C8_13  and  C9_14 
ROOT
HETATM    1  N1  UNL     1      36.437   8.962 107.232  1.00  0.00    -0.069 N 
ATOM      2  H11 UNL     1      37.385   8.891 106.861  1.00  0.00     0.277 HD
ATOM      3  H12 UNL     1      36.652   9.394 108.130  1.00  0.00     0.277 HD
ENDROOT
BRANCH   1   4
HETATM    4  C5  UNL     1      35.837   7.670 107.398  1.00  0.00     0.186 C 
HETATM    5  C4  UNL     1      35.651   7.200 108.798  1.00  0.00     0.033 C 
HETATM    6  C3  UNL     1      34.509   7.924 109.428  1.00  0.00     0.002 C 
HETATM    7  C2  UNL     1      33.152   7.450 109.103  1.00  0.00     0.000 C 
HETATM    8  C1  UNL     1      33.015   6.268 108.216  1.00  0.00     0.000 C 
HETATM    9  C14 UNL     1      33.829   6.358 106.946  1.00  0.00     0.002 C 
HETATM   10  C13 UNL     1      34.434   7.703 106.753  1.00  0.00     0.033 C 
ENDBRANCH   1   4
BRANCH   1  11
HETATM   11  C6  UNL     1      35.619   9.812 106.423  1.00  0.00     0.252 C 
BRANCH  11  12
HETATM   12  C7  UNL     1      35.023  10.942 107.323  1.00  0.00     0.146 C 
BRANCH  12  13
HETATM   13  N2  UNL     1      33.796  11.352 106.810  1.00  0.00    -0.400 N 
HETATM   14  C8  UNL     1      32.594  11.357 107.453  1.00  0.00     0.060 C 
ATOM     15  H2  UNL     1      33.796  11.687 105.846  1.00  0.00     0.158 HD
BRANCH  14  16
HETATM   16  C9  UNL     1      32.268  12.241 108.574  1.00  0.00     0.024 C 
HETATM   17  C10 UNL     1      32.478  11.611 109.970  1.00  0.00     0.010 C 
HETATM   18  C11 UNL     1      31.484  12.677 110.456  1.00  0.00     0.001 C 
HETATM   19  C12 UNL     1      30.941  12.692 108.990  1.00  0.00     0.010 C 
ENDBRANCH  14  16
ENDBRANCH  12  13
ENDBRANCH  11  12
ENDBRANCH   1  11
TORSDOF 5
ENDMDL
MODEL 2
REMARK VINA RESULT: -7.112292371      1.183      1.632
REMARK  5 active torsions:
REMARK  status: ('A' for Active; 'I' for Inactive)
REMARK    1  A    between atoms: C5_5  and  N1_6 
REMARK    2  A    between atoms: N1_6  and  C6_9 
REMARK    3  A    between atoms: C6_9  and  C7_10 
REMARK    4  A    between atoms: C7_10  and  N2_11 
REMARK    5  A    between atoms: C8_13  and  C9_14 
ROOT
HETATM    1  N1  UNL     1      35.436  10.135 107.395  1.00  0.00    -0.069 N 
ATOM      2  H11 UNL     1      36.270  10.464 106.909  1.00  0.00     0.277 HD
ATOM      3  H12 UNL     1      35.719  10.346 108.352  1.00  0.00     0.277 HD
ENDROOT
BRANCH   1   4
HETATM    4  C5  UNL     1      35.234   8.728 107.202  1.00  0.00     0.186 C 
HETATM    5  C4  UNL     1      35.546   7.848 108.362  1.00  0.00     0.033 C 
HETATM    6  C3  UNL     1      34.471   7.965 109.390  1.00  0.00     0.002 C 
HETATM    7  C2  UNL     1      33.233   7.199 109.157  1.00  0.00     0.000 C 
HETATM    8  C1  UNL     1      33.158   6.335 107.952  1.00  0.00     0.000 C 
HETATM    9  C14 UNL     1      33.560   7.032 106.674  1.00  0.00     0.002 C 
HETATM   10  C13 UNL     1      33.746   8.497 106.859  1.00  0.00     0.033 C 
ENDBRANCH   1   4
BRANCH   1  11
HETATM   11  C6  UNL     1      34.277  10.881 107.014  1.00  0.00     0.252 C 
BRANCH  11  12
HETATM   12  C7  UNL     1      33.903  11.858 108.174  1.00  0.00     0.146 C 
BRANCH  12  13
HETATM   13  N2  UNL     1      32.998  11.242 109.034  1.00  0.00    -0.400 N 
HETATM   14  C8  UNL     1      32.300  11.824 110.049  1.00  0.00     0.060 C 
ATOM     15  H2  UNL     1      32.840  10.246 108.888  1.00  0.00     0.158 HD
BRANCH  14  16
HETATM   16  C9  UNL     1      31.234  12.810 109.852  1.00  0.00     0.024 C 
HETATM   17  C10 UNL     1      29.969  12.566 110.707  1.00  0.00     0.010 C 
HETATM   18  C11 UNL     1      29.250  13.414 109.648  1.00  0.00     0.001 C 
HETATM   19  C12 UNL     1      30.390  12.978 108.671  1.00  0.00     0.010 C 
ENDBRANCH  14  16
ENDBRANCH  12  13
ENDBRANCH  11  12
ENDBRANCH   1  11
TORSDOF 5
ENDMDL
MODEL 3
REMARK VINA RESULT: -6.984944933      1.859      2.990
REMARK  5 active torsions:
REMARK  status: ('A' for Active; 'I' for Inactive)
REMARK    1  A    between atoms: C5_5  and  N1_6 
REMARK    2  A    between atoms: N1_6  and  C6_9 
REMARK    3  A    between atoms: C6_9  and  C7_10 
REMARK    4  A    between atoms: C7_10  and  N2_11 
REMARK    5  A    between atoms: C8_13  and  C9_14 
ROOT
HETATM    1  N1  UNL     1      33.305   9.733 108.945  1.00  0.00    -0.069 N 
ATOM      2  H11 UNL     1      32.579   9.809 109.658  1.00  0.00     0.277 HD
ATOM      3  H12 UNL     1      32.715   9.505 108.145  1.00  0.00     0.277 HD
ENDROOT
BRANCH   1   4
HETATM    4  C5  UNL     1      34.226   8.674 109.241  1.00  0.00     0.186 C 
HETATM    5  C4  UNL     1      33.631   7.344 109.546  1.00  0.00     0.033 C 
HETATM    6  C3  UNL     1      33.145   6.707 108.287  1.00  0.00     0.002 C 
HETATM    7  C2  UNL     1      34.152   6.048 107.436  1.00  0.00     0.000 C 
HETATM    8  C1  UNL     1      35.560   6.023 107.905  1.00  0.00     0.000 C 
HETATM    9  C14 UNL     1      36.083   7.370 108.343  1.00  0.00     0.002 C 
HETATM   10  C13 UNL     1      35.146   8.478 108.016  1.00  0.00     0.033 C 
ENDBRANCH   1   4
BRANCH   1  11
HETATM   11  C6  UNL     1      33.988  10.975 108.756  1.00  0.00     0.252 C 
BRANCH  11  12
HETATM   12  C7  UNL     1      32.949  12.139 108.841  1.00  0.00     0.146 C 
BRANCH  12  13
HETATM   13  N2  UNL     1      32.429  12.211 110.131  1.00  0.00    -0.400 N 
HETATM   14  C8  UNL     1      31.338  12.917 110.540  1.00  0.00     0.060 C 
ATOM     15  H2  UNL     1      32.919  11.677 110.848  1.00  0.00     0.158 HD
BRANCH  14  16
HETATM   16  C9  UNL     1      29.962  12.600 110.149  1.00  0.00     0.024 C 
HETATM   17  C10 UNL     1      29.172  13.791 109.558  1.00  0.00     0.010 C 
HETATM   18  C11 UNL     1      27.924  12.995 109.965  1.00  0.00     0.001 C 
HETATM   19  C12 UNL     1      28.835  12.306 111.032  1.00  0.00     0.010 C 
ENDBRANCH  14  16
ENDBRANCH  12  13
ENDBRANCH  11  12
ENDBRANCH   1  11
TORSDOF 5
ENDMDL
MODEL 4
REMARK VINA RESULT: -6.938549689      1.129      1.551
REMARK  5 active torsions:
REMARK  status: ('A' for Active; 'I' for Inactive)
REMARK    1  A    between atoms: C5_5  and  N1_6 
REMARK    2  A    between atoms: N1_6  and  C6_9 
REMARK    3  A    between atoms: C6_9  and  C7_10 
REMARK    4  A    between atoms: C7_10  and  N2_11 
REMARK    5  A    between atoms: C8_13  and  C9_14 
ROOT
HETATM    1  N1  UNL     1      34.852  10.004 106.358  1.00  0.00    -0.069 N 
ATOM      2  H11 UNL     1      35.680  10.295 105.838  1.00  0.00     0.277 HD
ATOM      3  H12 UNL     1      34.990  10.566 107.199  1.00  0.00     0.277 HD
ENDROOT
BRANCH   1   4
HETATM    4  C5  UNL     1      34.881   8.600 106.652  1.00  0.00     0.186 C 
HETATM    5  C4  UNL     1      35.388   8.214 107.997  1.00  0.00     0.033 C 
HETATM    6  C3  UNL     1      34.357   8.513 109.033  1.00  0.00     0.002 C 
HETATM    7  C2  UNL     1      33.256   7.545 109.184  1.00  0.00     0.000 C 
HETATM    8  C1  UNL     1      33.272   6.325 108.337  1.00  0.00     0.000 C 
HETATM    9  C14 UNL     1      33.493   6.604 106.869  1.00  0.00     0.002 C 
HETATM   10  C13 UNL     1      33.439   8.056 106.551  1.00  0.00     0.033 C 
ENDBRANCH   1   4
BRANCH   1  11
HETATM   11  C6  UNL     1      33.649  10.365 105.676  1.00  0.00     0.252 C 
BRANCH  11  12
HETATM   12  C7  UNL     1      32.984  11.562 106.428  1.00  0.00     0.146 C 
BRANCH  12  13
HETATM   13  N2  UNL     1      33.474  11.630 107.729  1.00  0.00    -0.400 N 
HETATM   14  C8  UNL     1      33.006  12.406 108.746  1.00  0.00     0.060 C 
ATOM     15  H2  UNL     1      34.272  11.033 107.945  1.00  0.00     0.158 HD
BRANCH  14  16
HETATM   16  C9  UNL     1      31.705  12.216 109.392  1.00  0.00     0.024 C 
HETATM   17  C10 UNL     1      30.528  12.928 108.686  1.00  0.00     0.010 C 
HETATM   18  C11 UNL     1      29.826  12.834 110.048  1.00  0.00     0.001 C 
HETATM   19  C12 UNL     1      31.259  12.770 110.668  1.00  0.00     0.010 C 
ENDBRANCH  14  16
ENDBRANCH  12  13
ENDBRANCH  11  12
ENDBRANCH   1  11
TORSDOF 5
ENDMDL
MODEL 5
REMARK VINA RESULT: -6.852941841      1.929      3.019
REMARK  5 active torsions:
REMARK  status: ('A' for Active; 'I' for Inactive)
REMARK    1  A    between atoms: C5_5  and  N1_6 
REMARK    2  A    between atoms: N1_6  and  C6_9 
REMARK    3  A    between atoms: C6_9  and  C7_10 
REMARK    4  A    between atoms: C7_10  and  N2_11 
REMARK    5  A    between atoms: C8_13  and  C9_14 
ROOT
HETATM    1  N1  UNL     1      33.863  10.153 109.324  1.00  0.00    -0.069 N 
ATOM      2  H11 UNL     1      34.676   9.931 109.899  1.00  0.00     0.277 HD
ATOM      3  H12 UNL     1      33.169  10.253 110.064  1.00  0.00     0.277 HD
ENDROOT
BRANCH   1   4
HETATM    4  C5  UNL     1      33.536   9.075 108.435  1.00  0.00     0.186 C 
HETATM    5  C4  UNL     1      34.480   8.833 107.310  1.00  0.00     0.033 C 
HETATM    6  C3  UNL     1      35.717   8.173 107.821  1.00  0.00     0.002 C 
HETATM    7  C2  UNL     1      35.651   6.720 108.062  1.00  0.00     0.000 C 
HETATM    8  C1  UNL     1      34.388   6.011 107.741  1.00  0.00     0.000 C 
HETATM    9  C14 UNL     1      33.155   6.667 108.316  1.00  0.00     0.002 C 
HETATM   10  C13 UNL     1      33.485   7.770 109.259  1.00  0.00     0.033 C 
ENDBRANCH   1   4
BRANCH   1  11
HETATM   11  C6  UNL     1      34.045  11.377 108.607  1.00  0.00     0.252 C 
BRANCH  11  12
HETATM   12  C7  UNL     1      32.745  12.234 108.736  1.00  0.00     0.146 C 
BRANCH  12  13
HETATM   13  N2  UNL     1      32.320  12.245 110.061  1.00  0.00    -0.400 N 
HETATM   14  C8  UNL     1      31.245  12.906 110.576  1.00  0.00     0.060 C 
ATOM     15  H2  UNL     1      32.873  11.698 110.720  1.00  0.00     0.158 HD
BRANCH  14  16
HETATM   16  C9  UNL     1      29.852  12.567 110.274  1.00  0.00     0.024 C 
HETATM   17  C10 UNL     1      29.011  13.742 109.725  1.00  0.00     0.010 C 
HETATM   18  C11 UNL     1      27.801  12.933 110.215  1.00  0.00     0.001 C 
HETATM   19  C12 UNL     1      28.787  12.265 111.227  1.00  0.00     0.010 C 
ENDBRANCH  14  16
ENDBRANCH  12  13
ENDBRANCH  11  12
ENDBRANCH   1  11
TORSDOF 5
ENDMDL
