MODEL 1
REMARK VINA RESULT: -6.898058330      0.000      0.000
REMARK  5 active torsions:
REMARK  status: ('A' for Active; 'I' for Inactive)
REMARK    1  A    between atoms: C2_2  and  C3_3 
REMARK    2  A    between atoms: C3_3  and  C4_4 
REMARK    3  A    between atoms: C3_3  and  C10_14 
REMARK    4  A    between atoms: C4_4  and  N1_5 
REMARK    5  A    between atoms: N1_5  and  C5_7 
ROOT
HETATM    1  C4  UNL     1      34.006  11.800 108.091  1.00  0.00     0.119 C 
ENDROOT
BRANCH   1   2
HETATM    2  C3  UNL     1      34.576  10.413 107.934  1.00  0.00     0.007 C 
BRANCH   2   3
HETATM    3  C2  UNL     1      35.151  10.164 106.590  1.00  0.00     0.002 C 
HETATM    4  C1  UNL     1      36.549   9.708 106.495  1.00  0.00     0.005 C 
ENDBRANCH   2   3
BRANCH   2   5
HETATM    5  C10 UNL     1      33.661   9.316 108.393  1.00  0.00    -0.009 C 
HETATM    6  C11 UNL     1      34.239   8.360 109.376  1.00  0.00     0.005 C 
HETATM    7  C12 UNL     1      33.249   7.212 109.321  1.00  0.00     0.000 C 
HETATM    8  C13 UNL     1      33.207   7.015 107.796  1.00  0.00     0.000 C 
HETATM    9  C14 UNL     1      33.064   8.476 107.328  1.00  0.00     0.005 C 
ENDBRANCH   2   5
ENDBRANCH   1   2
BRANCH   1  10
HETATM   10  N1  UNL     1      33.348  12.004 109.335  1.00  0.00    -0.417 N 
ATOM     11  H1  UNL     1      33.743  11.654 110.207  1.00  0.00     0.153 HD
BRANCH  10  12
HETATM   12  C5  UNL     1      32.119  12.713 109.313  1.00  0.00     0.079 C 
HETATM   13  C6  UNL     1      31.344  12.691 110.587  1.00  0.00     0.044 C 
HETATM   14  C7  UNL     1      29.860  12.785 110.259  1.00  0.00     0.115 C 
HETATM   15  N2  UNL     1      29.583  13.547 109.085  1.00  0.00    -0.421 N 
HETATM   16  C8  UNL     1      30.202  13.095 107.884  1.00  0.00     0.115 C 
ATOM     17  H2  UNL     1      28.977  14.367 109.105  1.00  0.00     0.153 HD
HETATM   18  C9  UNL     1      31.242  12.061 108.236  1.00  0.00     0.044 C 
ENDBRANCH  10  12
ENDBRANCH   1  10
TORSDOF 5
ENDMDL
MODEL 2
REMARK VINA RESULT: -6.810338609      4.262      7.605
REMARK  5 active torsions:
REMARK  status: ('A' for Active; 'I' for Inactive)
REMARK    1  A    between atoms: C2_2  and  C3_3 
REMARK    2  A    between atoms: C3_3  and  C4_4 
REMARK    3  A    between atoms: C3_3  and  C10_14 
REMARK    4  A    between atoms: C4_4  and  N1_5 
REMARK    5  A    between atoms: N1_5  and  C5_7 
ROOT
HETATM    1  C4  UNL     1      35.725   7.519 108.503  1.00  0.00     0.119 C 
ENDROOT
BRANCH   1   2
HETATM    2  C3  UNL     1      34.434   8.010 109.109  1.00  0.00     0.007 C 
BRANCH   2   3
HETATM    3  C2  UNL     1      33.325   7.032 108.998  1.00  0.00     0.002 C 
HETATM    4  C1  UNL     1      33.213   6.233 107.765  1.00  0.00     0.005 C 
ENDBRANCH   2   3
BRANCH   2   5
HETATM    5  C10 UNL     1      34.042   9.395 108.684  1.00  0.00    -0.009 C 
HETATM    6  C11 UNL     1      32.699   9.854 109.131  1.00  0.00     0.005 C 
HETATM    7  C12 UNL     1      32.463  11.058 108.240  1.00  0.00     0.000 C 
HETATM    8  C13 UNL     1      32.782  10.409 106.883  1.00  0.00     0.000 C 
HETATM    9  C14 UNL     1      34.088   9.666 107.227  1.00  0.00     0.005 C 
ENDBRANCH   2   5
ENDBRANCH   1   2
BRANCH   1  10
HETATM   10  N1  UNL     1      36.383   6.536 109.292  1.00  0.00    -0.417 N 
ATOM     11  H1  UNL     1      36.150   6.403 110.276  1.00  0.00     0.153 HD
BRANCH  10  12
HETATM   12  C5  UNL     1      37.377   5.748 108.656  1.00  0.00     0.079 C 
HETATM   13  C6  UNL     1      36.903   4.922 107.509  1.00  0.00     0.044 C 
HETATM   14  C7  UNL     1      37.761   3.667 107.422  1.00  0.00     0.115 C 
HETATM   15  N2  UNL     1      39.106   3.865 107.854  1.00  0.00    -0.421 N 
HETATM   16  C8  UNL     1      39.273   4.338 109.188  1.00  0.00     0.115 C 
ATOM     17  H2  UNL     1      39.902   3.678 107.245  1.00  0.00     0.153 HD
HETATM   18  C9  UNL     1      37.930   4.783 109.714  1.00  0.00     0.044 C 
ENDBRANCH  10  12
ENDBRANCH   1  10
TORSDOF 5
ENDMDL
MODEL 3
REMARK VINA RESULT: -6.788678900      1.404      1.797
REMARK  5 active torsions:
REMARK  status: ('A' for Active; 'I' for Inactive)
REMARK    1  A    between atoms: C2_2  and  C3_3 
REMARK    2  A    between atoms: C3_3  and  C4_4 
REMARK    3  A    between atoms: C3_3  and  C10_14 
REMARK    4  A    between atoms: C4_4  and  N1_5 
REMARK    5  A    between atoms: N1_5  and  C5_7 
ROOT
HETATM    1  C4  UNL     1      32.442  11.090 109.598  1.00  0.00     0.119 C 
ENDROOT
BRANCH   1   2
HETATM    2  C3  UNL     1      33.296  10.381 108.577  1.00  0.00     0.007 C 
BRANCH   2   3
HETATM    3  C2  UNL     1      32.624  10.218 107.265  1.00  0.00     0.002 C 
HETATM    4  C1  UNL     1      33.079  11.045 106.133  1.00  0.00     0.005 C 
ENDBRANCH   2   3
BRANCH   2   5
HETATM    5  C10 UNL     1      33.927   9.114 109.075  1.00  0.00    -0.009 C 
HETATM    6  C11 UNL     1      35.080   8.610 108.282  1.00  0.00     0.005 C 
HETATM    7  C12 UNL     1      35.213   7.186 108.787  1.00  0.00     0.000 C 
HETATM    8  C13 UNL     1      33.749   6.743 108.622  1.00  0.00     0.000 C 
HETATM    9  C14 UNL     1      33.020   7.953 109.236  1.00  0.00     0.005 C 
ENDBRANCH   2   5
ENDBRANCH   1   2
BRANCH   1  10
HETATM   10  N1  UNL     1      32.314  12.486 109.357  1.00  0.00    -0.417 N 
ATOM     11  H1  UNL     1      33.079  13.027 108.956  1.00  0.00     0.153 HD
BRANCH  10  12
HETATM   12  C5  UNL     1      31.078  13.095 109.696  1.00  0.00     0.079 C 
HETATM   13  C6  UNL     1      30.294  12.404 110.760  1.00  0.00     0.044 C 
HETATM   14  C7  UNL     1      28.811  12.650 110.513  1.00  0.00     0.115 C 
HETATM   15  N2  UNL     1      28.535  13.913 109.910  1.00  0.00    -0.421 N 
HETATM   16  C8  UNL     1      29.168  14.162 108.658  1.00  0.00     0.115 C 
ATOM     17  H2  UNL     1      27.921  14.598 110.351  1.00  0.00     0.153 HD
HETATM   18  C9  UNL     1      30.216  13.102 108.427  1.00  0.00     0.044 C 
ENDBRANCH  10  12
ENDBRANCH   1  10
TORSDOF 5
ENDMDL
MODEL 4
REMARK VINA RESULT: -6.749626178      0.987      2.773
REMARK  5 active torsions:
REMARK  status: ('A' for Active; 'I' for Inactive)
REMARK    1  A    between atoms: C2_2  and  C3_3 
REMARK    2  A    between atoms: C3_3  and  C4_4 
REMARK    3  A    between atoms: C3_3  and  C10_14 
REMARK    4  A    between atoms: C4_4  and  N1_5 
REMARK    5  A    between atoms: N1_5  and  C5_7 
ROOT
HETATM    1  C4  UNL     1      33.636  10.550 109.702  1.00  0.00     0.119 C 
ENDROOT
BRANCH   1   2
HETATM    2  C3  UNL     1      33.133   9.602 108.642  1.00  0.00     0.007 C 
BRANCH   2   3
HETATM    3  C2  UNL     1      33.146   8.183 109.071  1.00  0.00     0.002 C 
HETATM    4  C1  UNL     1      34.362   7.652 109.711  1.00  0.00     0.005 C 
ENDBRANCH   2   3
BRANCH   2   5
HETATM    5  C10 UNL     1      33.747   9.812 107.288  1.00  0.00    -0.009 C 
HETATM    6  C11 UNL     1      33.732   8.634 106.381  1.00  0.00     0.005 C 
HETATM    7  C12 UNL     1      34.733   9.041 105.317  1.00  0.00     0.000 C 
HETATM    8  C13 UNL     1      35.896   9.449 106.237  1.00  0.00     0.000 C 
HETATM    9  C14 UNL     1      35.145  10.304 107.276  1.00  0.00     0.005 C 
ENDBRANCH   2   5
ENDBRANCH   1   2
BRANCH   1  10
HETATM   10  N1  UNL     1      33.102  11.863 109.587  1.00  0.00    -0.417 N 
ATOM     11  H1  UNL     1      33.708  12.683 109.577  1.00  0.00     0.153 HD
BRANCH  10  12
HETATM   12  C5  UNL     1      31.692  11.987 109.486  1.00  0.00     0.079 C 
HETATM   13  C6  UNL     1      31.190  12.573 108.210  1.00  0.00     0.044 C 
HETATM   14  C7  UNL     1      29.889  13.314 108.490  1.00  0.00     0.115 C 
HETATM   15  N2  UNL     1      29.121  12.738 109.545  1.00  0.00    -0.421 N 
HETATM   16  C8  UNL     1      29.770  12.635 110.809  1.00  0.00     0.115 C 
ATOM     17  H2  UNL     1      28.162  12.419 109.403  1.00  0.00     0.153 HD
HETATM   18  C9  UNL     1      31.240  12.916 110.622  1.00  0.00     0.044 C 
ENDBRANCH  10  12
ENDBRANCH   1  10
TORSDOF 5
ENDMDL
MODEL 5
REMARK VINA RESULT: -6.730267709      1.152      1.925
REMARK  5 active torsions:
REMARK  status: ('A' for Active; 'I' for Inactive)
REMARK    1  A    between atoms: C2_2  and  C3_3 
REMARK    2  A    between atoms: C3_3  and  C4_4 
REMARK    3  A    between atoms: C3_3  and  C10_14 
REMARK    4  A    between atoms: C4_4  and  N1_5 
REMARK    5  A    between atoms: N1_5  and  C5_7 
ROOT
HETATM    1  C4  UNL     1      33.559  10.927 109.643  1.00  0.00     0.119 C 
ENDROOT
BRANCH   1   2
HETATM    2  C3  UNL     1      34.320  10.443 108.434  1.00  0.00     0.007 C 
BRANCH   2   3
HETATM    3  C2  UNL     1      34.141  11.310 107.244  1.00  0.00     0.002 C 
HETATM    4  C1  UNL     1      33.331  10.805 106.122  1.00  0.00     0.005 C 
ENDBRANCH   2   3
BRANCH   2   5
HETATM    5  C10 UNL     1      34.135   8.985 108.133  1.00  0.00    -0.009 C 
HETATM    6  C11 UNL     1      33.079   8.291 108.918  1.00  0.00     0.005 C 
HETATM    7  C12 UNL     1      33.413   6.832 108.676  1.00  0.00     0.000 C 
HETATM    8  C13 UNL     1      34.909   6.874 109.028  1.00  0.00     0.000 C 
HETATM    9  C14 UNL     1      35.343   8.135 108.257  1.00  0.00     0.005 C 
ENDBRANCH   2   5
ENDBRANCH   1   2
BRANCH   1  10
HETATM   10  N1  UNL     1      32.908  12.175 109.440  1.00  0.00    -0.417 N 
ATOM     11  H1  UNL     1      33.440  13.035 109.306  1.00  0.00     0.153 HD
BRANCH  10  12
HETATM   12  C5  UNL     1      31.490  12.177 109.431  1.00  0.00     0.079 C 
HETATM   13  C6  UNL     1      30.856  12.776 108.221  1.00  0.00     0.044 C 
HETATM   14  C7  UNL     1      29.517  13.382 108.619  1.00  0.00     0.115 C 
HETATM   15  N2  UNL     1      28.872  12.689 109.685  1.00  0.00    -0.421 N 
HETATM   16  C8  UNL     1      29.607  12.583 110.900  1.00  0.00     0.115 C 
ATOM     17  H2  UNL     1      27.937  12.293 109.583  1.00  0.00     0.153 HD
HETATM   18  C9  UNL     1      31.033  13.004 110.640  1.00  0.00     0.044 C 
ENDBRANCH  10  12
ENDBRANCH   1  10
TORSDOF 5
ENDMDL
