MODEL 1
REMARK VINA RESULT: -6.628386772      0.000      0.000
REMARK  5 active torsions:
REMARK  status: ('A' for Active; 'I' for Inactive)
REMARK    1  A    between atoms: C2_2  and  C3_3 
REMARK       I    between atoms: C3_3  and  N1_5 
REMARK    2  A    between atoms: N1_5  and  N2_6 
REMARK    3  A    between atoms: N2_6  and  C4_8 
REMARK    4  A    between atoms: C4_8  and  N3_10 
REMARK    5  A    between atoms: N3_10  and  C5_12 
ROOT
HETATM    1  C4  UNL     1      14.095  15.855  19.835  1.00  0.00     0.197 C 
HETATM    2  S1  UNL     1      13.539  14.714  18.813  1.00  0.00    -0.039 SA
ENDROOT
BRANCH   1   3
HETATM    3  N2  UNL     1      13.146  16.669  20.547  1.00  0.00    -0.205 N 
ATOM      4  H2  UNL     1      12.468  17.194  19.994  1.00  0.00     0.204 HD
BRANCH   3   5
HETATM    5  N1  UNL     1      13.084  16.789  21.847  1.00  0.00    -0.280 NA
HETATM    6  C3  UNL     1      13.019  16.915  23.192  1.00  0.00     0.335 C 
HETATM    7  O1  UNL     1      12.000  17.145  23.900  1.00  0.00    -0.250 OA
BRANCH   6   8
HETATM    8  C2  UNL     1      14.250  16.779  23.980  1.00  0.00     0.082 C 
HETATM    9  C1  UNL     1      15.467  16.956  23.591  1.00  0.00     0.018 C 
ENDBRANCH   6   8
ENDBRANCH   3   5
ENDBRANCH   1   3
BRANCH   1  10
HETATM   10  N3  UNL     1      15.485  16.027  19.979  1.00  0.00    -0.361 N 
ATOM     11  H3  UNL     1      15.958  15.366  20.597  1.00  0.00     0.162 HD
BRANCH  10  12
HETATM   12  C5  UNL     1      16.288  16.983  19.384  1.00  0.00     0.083 C 
HETATM   13  C6  UNL     1      17.006  18.023  20.189  1.00  0.00     0.025 C 
HETATM   14  C7  UNL     1      17.798  18.706  19.045  1.00  0.00     0.002 C 
HETATM   15  C8  UNL     1      16.877  18.593  17.819  1.00  0.00     0.002 C 
HETATM   16  C9  UNL     1      15.605  17.921  18.366  1.00  0.00     0.025 C 
ENDBRANCH  10  12
ENDBRANCH   1  10
TORSDOF 5
ENDMDL
MODEL 2
REMARK VINA RESULT: -6.376936401      0.420      1.125
REMARK  5 active torsions:
REMARK  status: ('A' for Active; 'I' for Inactive)
REMARK    1  A    between atoms: C2_2  and  C3_3 
REMARK       I    between atoms: C3_3  and  N1_5 
REMARK    2  A    between atoms: N1_5  and  N2_6 
REMARK    3  A    between atoms: N2_6  and  C4_8 
REMARK    4  A    between atoms: C4_8  and  N3_10 
REMARK    5  A    between atoms: N3_10  and  C5_12 
ROOT
HETATM    1  C4  UNL     1      14.137  15.840  19.873  1.00  0.00     0.197 C 
HETATM    2  S1  UNL     1      13.613  14.568  19.001  1.00  0.00    -0.039 SA
ENDROOT
BRANCH   1   3
HETATM    3  N2  UNL     1      13.171  16.653  20.565  1.00  0.00    -0.205 N 
ATOM      4  H2  UNL     1      12.497  17.167  19.998  1.00  0.00     0.204 HD
BRANCH   3   5
HETATM    5  N1  UNL     1      13.090  16.782  21.863  1.00  0.00    -0.280 NA
HETATM    6  C3  UNL     1      13.004  16.918  23.205  1.00  0.00     0.335 C 
HETATM    7  O1  UNL     1      11.974  17.153  23.896  1.00  0.00    -0.250 OA
BRANCH   6   8
HETATM    8  C2  UNL     1      14.223  16.788  24.013  1.00  0.00     0.082 C 
HETATM    9  C1  UNL     1      15.448  16.920  23.631  1.00  0.00     0.018 C 
ENDBRANCH   6   8
ENDBRANCH   3   5
ENDBRANCH   1   3
BRANCH   1  10
HETATM   10  N3  UNL     1      15.516  16.124  19.910  1.00  0.00    -0.361 N 
ATOM     11  H3  UNL     1      16.096  15.463  20.429  1.00  0.00     0.162 HD
BRANCH  10  12
HETATM   12  C5  UNL     1      16.180  17.189  19.329  1.00  0.00     0.083 C 
HETATM   13  C6  UNL     1      16.236  17.367  17.842  1.00  0.00     0.025 C 
HETATM   14  C7  UNL     1      16.978  18.727  17.792  1.00  0.00     0.002 C 
HETATM   15  C8  UNL     1      17.913  18.700  19.012  1.00  0.00     0.002 C 
HETATM   16  C9  UNL     1      17.690  17.306  19.624  1.00  0.00     0.025 C 
ENDBRANCH  10  12
ENDBRANCH   1  10
TORSDOF 5
ENDMDL
MODEL 3
REMARK VINA RESULT: -6.093718282      0.952      1.324
REMARK  5 active torsions:
REMARK  status: ('A' for Active; 'I' for Inactive)
REMARK    1  A    between atoms: C2_2  and  C3_3 
REMARK       I    between atoms: C3_3  and  N1_5 
REMARK    2  A    between atoms: N1_5  and  N2_6 
REMARK    3  A    between atoms: N2_6  and  C4_8 
REMARK    4  A    between atoms: C4_8  and  N3_10 
REMARK    5  A    between atoms: N3_10  and  C5_12 
ROOT
HETATM    1  C4  UNL     1      14.369  16.504  19.789  1.00  0.00     0.197 C 
HETATM    2  S1  UNL     1      14.646  15.031  19.149  1.00  0.00    -0.039 SA
ENDROOT
BRANCH   1   3
HETATM    3  N2  UNL     1      13.147  16.726  20.516  1.00  0.00    -0.205 N 
ATOM      4  H2  UNL     1      12.293  16.852  19.973  1.00  0.00     0.204 HD
BRANCH   3   5
HETATM    5  N1  UNL     1      13.047  16.780  21.818  1.00  0.00    -0.280 NA
HETATM    6  C3  UNL     1      12.942  16.837  23.165  1.00  0.00     0.335 C 
HETATM    7  O1  UNL     1      11.948  17.208  23.850  1.00  0.00    -0.250 OA
BRANCH   6   8
HETATM    8  C2  UNL     1      14.090  16.435  23.986  1.00  0.00     0.082 C 
HETATM    9  C1  UNL     1      15.318  16.818  23.880  1.00  0.00     0.018 C 
ENDBRANCH   6   8
ENDBRANCH   3   5
ENDBRANCH   1   3
BRANCH   1  10
HETATM   10  N3  UNL     1      15.321  17.524  19.596  1.00  0.00    -0.361 N 
ATOM     11  H3  UNL     1      14.957  18.424  19.281  1.00  0.00     0.162 HD
BRANCH  10  12
HETATM   12  C5  UNL     1      16.689  17.454  19.783  1.00  0.00     0.083 C 
HETATM   13  C6  UNL     1      17.299  17.416  21.151  1.00  0.00     0.025 C 
HETATM   14  C7  UNL     1      18.784  17.231  20.746  1.00  0.00     0.002 C 
HETATM   15  C8  UNL     1      18.918  17.991  19.417  1.00  0.00     0.002 C 
HETATM   16  C9  UNL     1      17.527  18.611  19.197  1.00  0.00     0.025 C 
ENDBRANCH  10  12
ENDBRANCH   1  10
TORSDOF 5
ENDMDL
MODEL 4
REMARK VINA RESULT: -6.018109634      3.466      5.180
REMARK  5 active torsions:
REMARK  status: ('A' for Active; 'I' for Inactive)
REMARK    1  A    between atoms: C2_2  and  C3_3 
REMARK       I    between atoms: C3_3  and  N1_5 
REMARK    2  A    between atoms: N1_5  and  N2_6 
REMARK    3  A    between atoms: N2_6  and  C4_8 
REMARK    4  A    between atoms: C4_8  and  N3_10 
REMARK    5  A    between atoms: N3_10  and  C5_12 
ROOT
HETATM    1  C4  UNL     1      16.212  17.195  22.130  1.00  0.00     0.197 C 
HETATM    2  S1  UNL     1      15.365  17.053  23.515  1.00  0.00    -0.039 SA
ENDROOT
BRANCH   1   3
HETATM    3  N2  UNL     1      17.644  17.057  22.176  1.00  0.00    -0.205 N 
ATOM      4  H2  UNL     1      18.056  16.714  23.044  1.00  0.00     0.204 HD
BRANCH   3   5
HETATM    5  N1  UNL     1      18.458  17.335  21.192  1.00  0.00    -0.280 NA
HETATM    6  C3  UNL     1      19.302  17.623  20.176  1.00  0.00     0.335 C 
HETATM    7  O1  UNL     1      20.446  17.136  19.956  1.00  0.00    -0.250 OA
BRANCH   6   8
HETATM    8  C2  UNL     1      18.896  18.616  19.174  1.00  0.00     0.082 C 
HETATM    9  C1  UNL     1      17.755  18.729  18.582  1.00  0.00     0.018 C 
ENDBRANCH   6   8
ENDBRANCH   3   5
ENDBRANCH   1   3
BRANCH   1  10
HETATM   10  N3  UNL     1      15.525  17.468  20.931  1.00  0.00    -0.361 N 
ATOM     11  H3  UNL     1      15.462  18.450  20.664  1.00  0.00     0.162 HD
BRANCH  10  12
HETATM   12  C5  UNL     1      14.925  16.564  20.073  1.00  0.00     0.083 C 
HETATM   13  C6  UNL     1      15.730  15.652  19.198  1.00  0.00     0.025 C 
HETATM   14  C7  UNL     1      14.570  14.832  18.577  1.00  0.00     0.002 C 
HETATM   15  C8  UNL     1      13.403  15.827  18.483  1.00  0.00     0.002 C 
HETATM   16  C9  UNL     1      13.998  17.153  18.988  1.00  0.00     0.025 C 
ENDBRANCH  10  12
ENDBRANCH   1  10
TORSDOF 5
ENDMDL
MODEL 5
REMARK VINA RESULT: -5.995534112      1.570      2.335
REMARK  5 active torsions:
REMARK  status: ('A' for Active; 'I' for Inactive)
REMARK    1  A    between atoms: C2_2  and  C3_3 
REMARK       I    between atoms: C3_3  and  N1_5 
REMARK    2  A    between atoms: N1_5  and  N2_6 
REMARK    3  A    between atoms: N2_6  and  C4_8 
REMARK    4  A    between atoms: C4_8  and  N3_10 
REMARK    5  A    between atoms: N3_10  and  C5_12 
ROOT
HETATM    1  C4  UNL     1      14.268  16.377  20.008  1.00  0.00     0.197 C 
HETATM    2  S1  UNL     1      14.210  15.070  19.037  1.00  0.00    -0.039 SA
ENDROOT
BRANCH   1   3
HETATM    3  N2  UNL     1      13.070  16.785  20.694  1.00  0.00    -0.205 N 
ATOM      4  H2  UNL     1      12.279  17.083  20.123  1.00  0.00     0.204 HD
BRANCH   3   5
HETATM    5  N1  UNL     1      12.917  16.804  21.992  1.00  0.00    -0.280 NA
HETATM    6  C3  UNL     1      12.758  16.827  23.334  1.00  0.00     0.335 C 
HETATM    7  O1  UNL     1      11.873  17.433  24.000  1.00  0.00    -0.250 OA
BRANCH   6   8
HETATM    8  C2  UNL     1      13.698  16.076  24.175  1.00  0.00     0.082 C 
HETATM    9  C1  UNL     1      13.512  14.940  24.759  1.00  0.00     0.018 C 
ENDBRANCH   6   8
ENDBRANCH   3   5
ENDBRANCH   1   3
BRANCH   1  10
HETATM   10  N3  UNL     1      15.480  17.083  20.135  1.00  0.00    -0.361 N 
ATOM     11  H3  UNL     1      15.720  17.705  19.362  1.00  0.00     0.162 HD
BRANCH  10  12
HETATM   12  C5  UNL     1      16.385  17.034  21.179  1.00  0.00     0.083 C 
HETATM   13  C6  UNL     1      16.248  17.914  22.384  1.00  0.00     0.025 C 
HETATM   14  C7  UNL     1      17.426  17.357  23.223  1.00  0.00     0.002 C 
HETATM   15  C8  UNL     1      18.477  16.942  22.181  1.00  0.00     0.002 C 
HETATM   16  C9  UNL     1      17.855  17.355  20.835  1.00  0.00     0.025 C 
ENDBRANCH  10  12
ENDBRANCH   1  10
TORSDOF 5
ENDMDL
