MODEL 1
REMARK VINA RESULT: -6.733257563      0.000      0.000
REMARK  4 active torsions:
REMARK  status: ('A' for Active; 'I' for Inactive)
REMARK    1  A    between atoms: C6_6  and  C7_7 
REMARK    2  A    between atoms: C7_7  and  N2_10 
REMARK    3  A    between atoms: N2_10  and  N3_12 
REMARK    4  A    between atoms: N3_12  and  C9_14 
ROOT
HETATM    1  C7  UNL     1      15.233  16.447  20.387  1.00  0.00     0.213 C 
HETATM    2  C8  UNL     1      14.287  15.693  19.563  1.00  0.00     0.086 C 
HETATM    3  N1  UNL     1      13.525  15.108  18.923  1.00  0.00    -0.195 NA
ENDROOT
BRANCH   1   4
HETATM    4  C6  UNL     1      15.702  17.645  19.594  1.00  0.00     0.052 C 
HETATM    5  C2  UNL     1      17.169  17.838  19.741  1.00  0.00    -0.082 C 
HETATM    6  C1  UNL     1      17.942  17.284  20.635  1.00  0.00     0.015 C 
HETATM    7  C3  UNL     1      17.559  18.779  18.682  1.00  0.00     0.034 C 
HETATM    8  C4  UNL     1      16.523  18.589  17.598  1.00  0.00     0.005 C 
HETATM    9  C5  UNL     1      15.592  17.469  18.103  1.00  0.00     0.012 C 
ENDBRANCH   1   4
BRANCH   1  10
HETATM   10  N2  UNL     1      14.723  16.848  21.650  1.00  0.00    -0.316 N 
ATOM     11  H2  UNL     1      15.327  17.245  22.369  1.00  0.00     0.181 HD
BRANCH  10  12
HETATM   12  N3  UNL     1      13.380  16.675  21.854  1.00  0.00    -0.282 N 
ATOM     13  H3  UNL     1      12.738  16.596  21.066  1.00  0.00     0.188 HD
BRANCH  12  14
HETATM   14  C9  UNL     1      12.898  16.608  23.209  1.00  0.00     0.199 C 
HETATM   15  N4  UNL     1      11.736  17.322  23.619  1.00  0.00    -0.068 NA
HETATM   16  S1  UNL     1      13.658  15.714  24.333  1.00  0.00    -0.043 SA
ENDBRANCH  12  14
ENDBRANCH  10  12
ENDBRANCH   1  10
TORSDOF 4
ENDMDL
MODEL 2
REMARK VINA RESULT: -6.629601533      1.138      1.258
REMARK  4 active torsions:
REMARK  status: ('A' for Active; 'I' for Inactive)
REMARK    1  A    between atoms: C6_6  and  C7_7 
REMARK    2  A    between atoms: C7_7  and  N2_10 
REMARK    3  A    between atoms: N2_10  and  N3_12 
REMARK    4  A    between atoms: N3_12  and  C9_14 
ROOT
HETATM    1  C7  UNL     1      13.936  16.384  19.545  1.00  0.00     0.213 C 
HETATM    2  C8  UNL     1      13.167  15.673  18.521  1.00  0.00     0.086 C 
HETATM    3  N1  UNL     1      12.545  15.123  17.720  1.00  0.00    -0.195 NA
ENDROOT
BRANCH   1   4
HETATM    4  C6  UNL     1      14.673  17.522  18.878  1.00  0.00     0.052 C 
HETATM    5  C2  UNL     1      16.073  17.609  19.370  1.00  0.00    -0.082 C 
HETATM    6  C1  UNL     1      16.566  17.020  20.426  1.00  0.00     0.015 C 
HETATM    7  C3  UNL     1      16.777  18.490  18.427  1.00  0.00     0.034 C 
HETATM    8  C4  UNL     1      16.015  18.351  17.129  1.00  0.00     0.005 C 
HETATM    9  C5  UNL     1      14.906  17.318  17.405  1.00  0.00     0.012 C 
ENDBRANCH   1   4
BRANCH   1  10
HETATM   10  N2  UNL     1      13.162  16.856  20.638  1.00  0.00    -0.316 N 
ATOM     11  H2  UNL     1      12.604  17.707  20.569  1.00  0.00     0.181 HD
BRANCH  10  12
HETATM   12  N3  UNL     1      13.201  16.113  21.787  1.00  0.00    -0.282 N 
ATOM     13  H3  UNL     1      13.196  15.095  21.750  1.00  0.00     0.188 HD
BRANCH  12  14
HETATM   14  C9  UNL     1      13.250  16.808  23.048  1.00  0.00     0.199 C 
HETATM   15  N4  UNL     1      12.060  17.171  23.740  1.00  0.00    -0.068 NA
HETATM   16  S1  UNL     1      14.665  17.206  23.738  1.00  0.00    -0.043 SA
ENDBRANCH  12  14
ENDBRANCH  10  12
ENDBRANCH   1  10
TORSDOF 4
ENDMDL
MODEL 3
REMARK VINA RESULT: -6.269688902      2.560      4.448
REMARK  4 active torsions:
REMARK  status: ('A' for Active; 'I' for Inactive)
REMARK    1  A    between atoms: C6_6  and  C7_7 
REMARK    2  A    between atoms: C7_7  and  N2_10 
REMARK    3  A    between atoms: N2_10  and  N3_12 
REMARK    4  A    between atoms: N3_12  and  C9_14 
ROOT
HETATM    1  C7  UNL     1      13.758  16.919  21.774  1.00  0.00     0.213 C 
HETATM    2  C8  UNL     1      12.819  17.046  22.890  1.00  0.00     0.086 C 
HETATM    3  N1  UNL     1      12.074  17.127  23.768  1.00  0.00    -0.195 NA
ENDROOT
BRANCH   1   4
HETATM    4  C6  UNL     1      15.145  16.723  22.341  1.00  0.00     0.052 C 
HETATM    5  C2  UNL     1      16.175  17.304  21.441  1.00  0.00    -0.082 C 
HETATM    6  C1  UNL     1      16.007  17.674  20.200  1.00  0.00     0.015 C 
HETATM    7  C3  UNL     1      17.411  17.372  22.234  1.00  0.00     0.034 C 
HETATM    8  C4  UNL     1      16.943  17.469  23.668  1.00  0.00     0.005 C 
HETATM    9  C5  UNL     1      15.404  17.502  23.603  1.00  0.00     0.012 C 
ENDBRANCH   1   4
BRANCH   1  10
HETATM   10  N2  UNL     1      13.440  15.886  20.853  1.00  0.00    -0.316 N 
ATOM     11  H2  UNL     1      13.457  14.904  21.126  1.00  0.00     0.181 HD
BRANCH  10  12
HETATM   12  N3  UNL     1      13.108  16.274  19.583  1.00  0.00    -0.282 N 
ATOM     13  H3  UNL     1      12.532  17.100  19.423  1.00  0.00     0.188 HD
BRANCH  12  14
HETATM   14  C9  UNL     1      13.594  15.486  18.480  1.00  0.00     0.199 C 
HETATM   15  N4  UNL     1      14.762  14.681  18.601  1.00  0.00    -0.068 NA
HETATM   16  S1  UNL     1      12.831  15.480  17.046  1.00  0.00    -0.043 SA
ENDBRANCH  12  14
ENDBRANCH  10  12
ENDBRANCH   1  10
TORSDOF 4
ENDMDL
MODEL 4
REMARK VINA RESULT: -6.138454181      1.688      2.951
REMARK  4 active torsions:
REMARK  status: ('A' for Active; 'I' for Inactive)
REMARK    1  A    between atoms: C6_6  and  C7_7 
REMARK    2  A    between atoms: C7_7  and  N2_10 
REMARK    3  A    between atoms: N2_10  and  N3_12 
REMARK    4  A    between atoms: N3_12  and  C9_14 
ROOT
HETATM    1  C7  UNL     1      16.198  17.552  21.977  1.00  0.00     0.213 C 
HETATM    2  C8  UNL     1      17.355  17.528  22.874  1.00  0.00     0.086 C 
HETATM    3  N1  UNL     1      18.260  17.492  23.588  1.00  0.00    -0.195 NA
ENDROOT
BRANCH   1   4
HETATM    4  C6  UNL     1      16.639  17.052  20.621  1.00  0.00     0.052 C 
HETATM    5  C2  UNL     1      15.500  17.029  19.667  1.00  0.00    -0.082 C 
HETATM    6  C1  UNL     1      14.232  17.125  19.963  1.00  0.00     0.015 C 
HETATM    7  C3  UNL     1      16.097  16.874  18.332  1.00  0.00     0.034 C 
HETATM    8  C4  UNL     1      17.484  17.459  18.460  1.00  0.00     0.005 C 
HETATM    9  C5  UNL     1      17.584  17.981  19.907  1.00  0.00     0.012 C 
ENDBRANCH   1   4
BRANCH   1  10
HETATM   10  N2  UNL     1      15.077  16.815  22.445  1.00  0.00    -0.316 N 
ATOM     11  H2  UNL     1      14.707  16.019  21.927  1.00  0.00     0.181 HD
BRANCH  10  12
HETATM   12  N3  UNL     1      14.520  17.227  23.625  1.00  0.00    -0.282 N 
ATOM     13  H3  UNL     1      14.949  17.971  24.174  1.00  0.00     0.188 HD
BRANCH  12  14
HETATM   14  C9  UNL     1      13.312  16.582  24.072  1.00  0.00     0.199 C 
HETATM   15  N4  UNL     1      12.058  17.256  24.045  1.00  0.00    -0.068 NA
HETATM   16  S1  UNL     1      13.325  15.054  24.625  1.00  0.00    -0.043 SA
ENDBRANCH  12  14
ENDBRANCH  10  12
ENDBRANCH   1  10
TORSDOF 4
ENDMDL
MODEL 5
REMARK VINA RESULT: -6.070363933      3.885      5.718
REMARK  4 active torsions:
REMARK  status: ('A' for Active; 'I' for Inactive)
REMARK    1  A    between atoms: C6_6  and  C7_7 
REMARK    2  A    between atoms: C7_7  and  N2_10 
REMARK    3  A    between atoms: N2_10  and  N3_12 
REMARK    4  A    between atoms: N3_12  and  C9_14 
ROOT
HETATM    1  C7  UNL     1      17.606  17.627  19.791  1.00  0.00     0.213 C 
HETATM    2  C8  UNL     1      19.049  17.425  19.934  1.00  0.00     0.086 C 
HETATM    3  N1  UNL     1      20.190  17.285  20.042  1.00  0.00    -0.195 NA
ENDROOT
BRANCH   1   4
HETATM    4  C6  UNL     1      17.021  17.852  21.166  1.00  0.00     0.052 C 
HETATM    5  C2  UNL     1      15.738  17.119  21.323  1.00  0.00    -0.082 C 
HETATM    6  C1  UNL     1      15.020  16.589  20.369  1.00  0.00     0.015 C 
HETATM    7  C3  UNL     1      15.448  17.119  22.764  1.00  0.00     0.034 C 
HETATM    8  C4  UNL     1      16.801  17.234  23.428  1.00  0.00     0.005 C 
HETATM    9  C5  UNL     1      17.829  17.243  22.280  1.00  0.00     0.012 C 
ENDBRANCH   1   4
BRANCH   1  10
HETATM   10  N2  UNL     1      17.246  18.681  18.911  1.00  0.00    -0.316 N 
ATOM     11  H2  UNL     1      16.842  19.551  19.257  1.00  0.00     0.181 HD
BRANCH  10  12
HETATM   12  N3  UNL     1      17.468  18.472  17.576  1.00  0.00    -0.282 N 
ATOM     13  H3  UNL     1      18.361  18.108  17.246  1.00  0.00     0.188 HD
BRANCH  12  14
HETATM   14  C9  UNL     1      16.407  18.779  16.651  1.00  0.00     0.199 C 
HETATM   15  N4  UNL     1      16.563  19.779  15.650  1.00  0.00    -0.068 NA
HETATM   16  S1  UNL     1      14.985  17.996  16.708  1.00  0.00    -0.043 SA
ENDBRANCH  12  14
ENDBRANCH  10  12
ENDBRANCH   1  10
TORSDOF 4
ENDMDL
