MODEL 1
REMARK VINA RESULT: -7.090129786      0.000      0.000
REMARK  5 active torsions:
REMARK  status: ('A' for Active; 'I' for Inactive)
REMARK    1  A    between atoms: C3_3  and  O1_4 
REMARK    2  A    between atoms: C3_3  and  C4_6 
REMARK    3  A    between atoms: C9_11  and  C10_12 
REMARK    4  A    between atoms: C10_12  and  N1_13 
REMARK    5  A    between atoms: C10_12  and  C11_17 
ROOT
HETATM    1  C1  UNL     1      19.240  17.885  19.809  1.00  0.00     0.015 C 
HETATM    2  C2  UNL     1      18.441  17.411  20.587  1.00  0.00    -0.085 C 
HETATM    3  C3  UNL     1      17.466  16.862  21.523  1.00  0.00     0.200 C 
ENDROOT
BRANCH   3   4
HETATM    4  O1  UNL     1      17.932  16.951  22.829  1.00  0.00    -0.383 OA
ATOM      5  H1  UNL     1      18.785  16.543  22.912  1.00  0.00     0.211 HD
ENDBRANCH   3   4
BRANCH   3   6
HETATM    6  C4  UNL     1      16.112  17.578  21.375  1.00  0.00     0.033 C 
HETATM    7  C5  UNL     1      15.831  17.893  19.937  1.00  0.00     0.009 C 
HETATM    8  C6  UNL     1      15.365  16.713  19.138  1.00  0.00     0.001 C 
HETATM    9  C7  UNL     1      14.405  15.825  19.848  1.00  0.00     0.000 C 
HETATM   10  C8  UNL     1      13.947  16.312  21.178  1.00  0.00     0.008 C 
HETATM   11  C9  UNL     1      15.041  16.829  22.075  1.00  0.00     0.034 C 
BRANCH  11  12
HETATM   12  C10 UNL     1      14.359  17.582  23.193  1.00  0.00     0.287 C 
BRANCH  12  13
HETATM   13  N1  UNL     1      15.420  17.979  24.129  1.00  0.00    -0.065 N 
ATOM     14  H13 UNL     1      15.880  17.187  24.580  1.00  0.00     0.275 HD
ATOM     15  H12 UNL     1      16.247  18.358  23.668  1.00  0.00     0.275 HD
ATOM     16  H11 UNL     1      14.990  18.628  24.789  1.00  0.00     0.275 HD
ENDBRANCH  12  13
BRANCH  12  17
HETATM   17  C11 UNL     1      13.359  16.825  23.934  1.00  0.00     0.204 C 
HETATM   18  O2  UNL     1      13.565  15.769  24.600  1.00  0.00    -0.646 OA
HETATM   19  O3  UNL     1      12.044  17.269  23.936  1.00  0.00    -0.646 OA
ENDBRANCH  12  17
ENDBRANCH  11  12
ENDBRANCH   3   6
TORSDOF 5
ENDMDL
MODEL 2
REMARK VINA RESULT: -6.371100036      3.556      4.372
REMARK  5 active torsions:
REMARK  status: ('A' for Active; 'I' for Inactive)
REMARK    1  A    between atoms: C3_3  and  O1_4 
REMARK    2  A    between atoms: C3_3  and  C4_6 
REMARK    3  A    between atoms: C9_11  and  C10_12 
REMARK    4  A    between atoms: C10_12  and  N1_13 
REMARK    5  A    between atoms: C10_12  and  C11_17 
ROOT
HETATM    1  C1  UNL     1      18.516  18.703  18.994  1.00  0.00     0.015 C 
HETATM    2  C2  UNL     1      17.333  18.442  18.991  1.00  0.00    -0.085 C 
HETATM    3  C3  UNL     1      15.914  18.104  18.990  1.00  0.00     0.200 C 
ENDROOT
BRANCH   3   4
HETATM    4  O1  UNL     1      15.395  18.162  17.701  1.00  0.00    -0.383 OA
ATOM      5  H1  UNL     1      15.937  18.708  17.143  1.00  0.00     0.211 HD
ENDBRANCH   3   4
BRANCH   3   6
HETATM    6  C4  UNL     1      15.689  16.713  19.607  1.00  0.00     0.033 C 
HETATM    7  C5  UNL     1      16.517  16.540  20.845  1.00  0.00     0.009 C 
HETATM    8  C6  UNL     1      15.956  17.234  22.050  1.00  0.00     0.001 C 
HETATM    9  C7  UNL     1      14.478  17.135  22.191  1.00  0.00     0.000 C 
HETATM   10  C8  UNL     1      13.800  16.251  21.204  1.00  0.00     0.008 C 
HETATM   11  C9  UNL     1      14.242  16.439  19.775  1.00  0.00     0.034 C 
BRANCH  11  12
HETATM   12  C10 UNL     1      13.722  15.249  19.005  1.00  0.00     0.287 C 
BRANCH  12  13
HETATM   13  N1  UNL     1      14.904  14.535  18.503  1.00  0.00    -0.065 N 
ATOM     14  H13 UNL     1      15.552  14.255  19.240  1.00  0.00     0.275 HD
ATOM     15  H12 UNL     1      14.694  13.598  18.158  1.00  0.00     0.275 HD
ATOM     16  H11 UNL     1      15.327  15.141  17.799  1.00  0.00     0.275 HD
ENDBRANCH  12  13
BRANCH  12  17
HETATM   17  C11 UNL     1      12.866  15.568  17.869  1.00  0.00     0.204 C 
HETATM   18  O2  UNL     1      12.275  14.733  17.125  1.00  0.00    -0.646 OA
HETATM   19  O3  UNL     1      12.653  16.899  17.539  1.00  0.00    -0.646 OA
ENDBRANCH  12  17
ENDBRANCH  11  12
ENDBRANCH   3   6
TORSDOF 5
ENDMDL
MODEL 3
REMARK VINA RESULT: -6.367565211      2.019      4.006
REMARK  5 active torsions:
REMARK  status: ('A' for Active; 'I' for Inactive)
REMARK    1  A    between atoms: C3_3  and  O1_4 
REMARK    2  A    between atoms: C3_3  and  C4_6 
REMARK    3  A    between atoms: C9_11  and  C10_12 
REMARK    4  A    between atoms: C10_12  and  N1_13 
REMARK    5  A    between atoms: C10_12  and  C11_17 
ROOT
HETATM    1  C1  UNL     1      12.792  14.997  17.681  1.00  0.00     0.015 C 
HETATM    2  C2  UNL     1      13.217  15.856  18.424  1.00  0.00    -0.085 C 
HETATM    3  C3  UNL     1      13.740  16.871  19.330  1.00  0.00     0.200 C 
ENDROOT
BRANCH   3   4
HETATM    4  O1  UNL     1      12.800  17.199  20.300  1.00  0.00    -0.383 OA
ATOM      5  H1  UNL     1      12.373  18.022  20.092  1.00  0.00     0.211 HD
ENDBRANCH   3   4
BRANCH   3   6
HETATM    6  C4  UNL     1      15.051  16.393  19.979  1.00  0.00     0.033 C 
HETATM    7  C5  UNL     1      16.058  16.021  18.933  1.00  0.00     0.009 C 
HETATM    8  C6  UNL     1      16.731  17.198  18.295  1.00  0.00     0.001 C 
HETATM    9  C7  UNL     1      17.090  18.293  19.237  1.00  0.00     0.000 C 
HETATM   10  C8  UNL     1      16.858  17.998  20.677  1.00  0.00     0.008 C 
HETATM   11  C9  UNL     1      15.525  17.369  20.989  1.00  0.00     0.034 C 
BRANCH  11  12
HETATM   12  C10 UNL     1      15.621  16.836  22.399  1.00  0.00     0.287 C 
BRANCH  12  13
HETATM   13  N1  UNL     1      14.243  16.580  22.838  1.00  0.00    -0.065 N 
ATOM     14  H13 UNL     1      13.851  17.334  23.403  1.00  0.00     0.275 HD
ATOM     15  H12 UNL     1      13.561  16.624  22.081  1.00  0.00     0.275 HD
ATOM     16  H11 UNL     1      14.258  15.680  23.319  1.00  0.00     0.275 HD
ENDBRANCH  12  13
BRANCH  12  17
HETATM   17  C11 UNL     1      16.247  17.732  23.362  1.00  0.00     0.204 C 
HETATM   18  O2  UNL     1      15.697  18.723  23.924  1.00  0.00    -0.646 OA
HETATM   19  O3  UNL     1      17.568  17.513  23.726  1.00  0.00    -0.646 OA
ENDBRANCH  12  17
ENDBRANCH  11  12
ENDBRANCH   3   6
TORSDOF 5
ENDMDL
MODEL 4
REMARK VINA RESULT: -6.367278068      2.063      4.326
REMARK  5 active torsions:
REMARK  status: ('A' for Active; 'I' for Inactive)
REMARK    1  A    between atoms: C3_3  and  O1_4 
REMARK    2  A    between atoms: C3_3  and  C4_6 
REMARK    3  A    between atoms: C9_11  and  C10_12 
REMARK    4  A    between atoms: C10_12  and  N1_13 
REMARK    5  A    between atoms: C10_12  and  C11_17 
ROOT
HETATM    1  C1  UNL     1      12.930  14.935  17.941  1.00  0.00     0.015 C 
HETATM    2  C2  UNL     1      13.360  15.761  18.717  1.00  0.00    -0.085 C 
HETATM    3  C3  UNL     1      13.896  16.738  19.657  1.00  0.00     0.200 C 
ENDROOT
BRANCH   3   4
HETATM    4  O1  UNL     1      13.146  16.760  20.827  1.00  0.00    -0.383 OA
ATOM      5  H1  UNL     1      13.255  17.586  21.283  1.00  0.00     0.211 HD
ENDBRANCH   3   4
BRANCH   3   6
HETATM    6  C4  UNL     1      15.375  16.441  19.962  1.00  0.00     0.033 C 
HETATM    7  C5  UNL     1      16.129  16.145  18.700  1.00  0.00     0.009 C 
HETATM    8  C6  UNL     1      16.474  17.365  17.901  1.00  0.00     0.001 C 
HETATM    9  C7  UNL     1      16.919  18.531  18.710  1.00  0.00     0.000 C 
HETATM   10  C8  UNL     1      17.090  18.271  20.166  1.00  0.00     0.008 C 
HETATM   11  C9  UNL     1      15.962  17.506  20.810  1.00  0.00     0.034 C 
BRANCH  11  12
HETATM   12  C10 UNL     1      16.470  17.045  22.155  1.00  0.00     0.287 C 
BRANCH  12  13
HETATM   13  N1  UNL     1      15.865  17.940  23.152  1.00  0.00    -0.065 N 
ATOM     14  H13 UNL     1      16.359  17.944  24.045  1.00  0.00     0.275 HD
ATOM     15  H12 UNL     1      15.989  18.930  22.936  1.00  0.00     0.275 HD
ATOM     16  H11 UNL     1      14.887  17.662  23.230  1.00  0.00     0.275 HD
ENDBRANCH  12  13
BRANCH  12  17
HETATM   17  C11 UNL     1      17.917  17.088  22.323  1.00  0.00     0.204 C 
HETATM   18  O2  UNL     1      18.775  16.635  21.512  1.00  0.00    -0.646 OA
HETATM   19  O3  UNL     1      18.444  17.673  23.466  1.00  0.00    -0.646 OA
ENDBRANCH  12  17
ENDBRANCH  11  12
ENDBRANCH   3   6
TORSDOF 5
ENDMDL
MODEL 5
REMARK VINA RESULT: -6.293587749      4.039      4.949
REMARK  5 active torsions:
REMARK  status: ('A' for Active; 'I' for Inactive)
REMARK    1  A    between atoms: C3_3  and  O1_4 
REMARK    2  A    between atoms: C3_3  and  C4_6 
REMARK    3  A    between atoms: C9_11  and  C10_12 
REMARK    4  A    between atoms: C10_12  and  N1_13 
REMARK    5  A    between atoms: C10_12  and  C11_17 
ROOT
HETATM    1  C1  UNL     1      17.293  18.263  15.119  1.00  0.00     0.015 C 
HETATM    2  C2  UNL     1      16.541  18.248  16.069  1.00  0.00    -0.085 C 
HETATM    3  C3  UNL     1      15.639  18.206  17.214  1.00  0.00     0.200 C 
ENDROOT
BRANCH   3   4
HETATM    4  O1  UNL     1      14.312  18.242  16.799  1.00  0.00    -0.383 OA
ATOM      5  H1  UNL     1      13.991  19.135  16.772  1.00  0.00     0.211 HD
ENDBRANCH   3   4
BRANCH   3   6
HETATM    6  C4  UNL     1      15.910  16.958  18.071  1.00  0.00     0.033 C 
HETATM    7  C5  UNL     1      17.281  17.014  18.674  1.00  0.00     0.009 C 
HETATM    8  C6  UNL     1      17.383  17.926  19.860  1.00  0.00     0.001 C 
HETATM    9  C7  UNL     1      16.224  17.866  20.791  1.00  0.00     0.000 C 
HETATM   10  C8  UNL     1      15.213  16.817  20.484  1.00  0.00     0.008 C 
HETATM   11  C9  UNL     1      14.807  16.731  19.035  1.00  0.00     0.034 C 
BRANCH  11  12
HETATM   12  C10 UNL     1      14.073  15.422  18.872  1.00  0.00     0.287 C 
BRANCH  12  13
HETATM   13  N1  UNL     1      15.036  14.479  18.285  1.00  0.00    -0.065 N 
ATOM     14  H13 UNL     1      15.446  13.841  18.968  1.00  0.00     0.275 HD
ATOM     15  H12 UNL     1      14.601  13.770  17.696  1.00  0.00     0.275 HD
ATOM     16  H11 UNL     1      15.728  15.046  17.794  1.00  0.00     0.275 HD
ENDBRANCH  12  13
BRANCH  12  17
HETATM   17  C11 UNL     1      12.899  15.468  18.010  1.00  0.00     0.204 C 
HETATM   18  O2  UNL     1      12.335  14.476  17.465  1.00  0.00    -0.646 OA
HETATM   19  O3  UNL     1      12.315  16.696  17.735  1.00  0.00    -0.646 OA
ENDBRANCH  12  17
ENDBRANCH  11  12
ENDBRANCH   3   6
TORSDOF 5
ENDMDL
