MODEL 1
REMARK VINA RESULT: -9.212079878      0.000      0.000
REMARK  13 active torsions:
REMARK  status: ('A' for Active; 'I' for Inactive)
REMARK    1  A    between atoms: C4_4  and  N1_5 
REMARK       I    between atoms: N1_5  and  C5_7 
REMARK    2  A    between atoms: C5_7  and  C6_9 
REMARK    3  A    between atoms: C6_9  and  S1_10 
REMARK    4  A    between atoms: S1_10  and  C7_11 
REMARK    5  A    between atoms: C8_16  and  N4_17 
REMARK       I    between atoms: N4_17  and  C9_19 
REMARK    6  A    between atoms: C9_19  and  C10_21 
REMARK    7  A    between atoms: C10_21  and  C11_22 
REMARK    8  A    between atoms: C11_22  and  C12_23 
REMARK    9  A    between atoms: C12_23  and  C13_24 
REMARK   10  A    between atoms: C13_24  and  C14_25 
REMARK   11  A    between atoms: C14_25  and  N5_26 
REMARK   12  A    between atoms: C16_29  and  C17_30 
REMARK   13  A    between atoms: C17_30  and  C18_31 
ROOT
HETATM    1  N4  UNL     1      18.838  24.133  21.047  1.00  0.00    -0.306 N 
ATOM      2  H4  UNL     1      18.313  24.733  21.683  1.00  0.00     0.171 HD
HETATM    3  C9  UNL     1      18.533  22.738  20.876  1.00  0.00     0.223 C 
HETATM    4  O2  UNL     1      19.261  21.921  21.449  1.00  0.00    -0.273 OA
ENDROOT
BRANCH   1   5
HETATM    5  C8  UNL     1      19.841  24.577  20.326  1.00  0.00     0.168 A 
HETATM    6  N3  UNL     1      19.834  25.202  19.147  1.00  0.00    -0.278 N 
HETATM    7  N2  UNL     1      20.940  25.547  18.627  1.00  0.00    -0.286 N 
ATOM      8  H3  UNL     1      18.953  25.400  18.671  1.00  0.00     0.189 HD
HETATM    9  C7  UNL     1      22.079  25.287  19.250  1.00  0.00     0.130 A 
ATOM     10  H2  UNL     1      20.952  26.025  17.727  1.00  0.00     0.188 HD
HETATM   11  S3  UNL     1      21.527  24.504  20.662  1.00  0.00    -0.026 SA
BRANCH   9  12
HETATM   12  S1  UNL     1      23.754  25.683  18.697  1.00  0.00    -0.094 SA
BRANCH  12  13
HETATM   13  C6  UNL     1      23.625  27.175  17.653  1.00  0.00     0.184 C 
BRANCH  13  14
HETATM   14  C5  UNL     1      23.801  26.840  16.229  1.00  0.00     0.232 C 
HETATM   15  N1  UNL     1      22.901  25.964  15.593  1.00  0.00    -0.311 N 
ATOM     16  H1  UNL     1      23.129  24.974  15.497  1.00  0.00     0.170 HD
HETATM   17  O1  UNL     1      24.750  27.332  15.589  1.00  0.00    -0.272 OA
BRANCH  15  18
HETATM   18  C4  UNL     1      21.784  26.423  15.129  1.00  0.00     0.130 A 
HETATM   19  C3  UNL     1      20.554  25.759  15.051  1.00  0.00     0.084 A 
HETATM   20  C2  UNL     1      19.639  26.643  14.484  1.00  0.00     0.076 A 
HETATM   21  C1  UNL     1      18.206  26.416  14.192  1.00  0.00     0.079 C 
HETATM   22  O5  UNL     1      20.302  27.734  14.256  1.00  0.00    -0.241 OA
HETATM   23  N7  UNL     1      21.541  27.642  14.616  1.00  0.00    -0.245 N 
ATOM     24  H7  UNL     1      22.233  28.386  14.523  1.00  0.00     0.196 HD
ENDBRANCH  15  18
ENDBRANCH  13  14
ENDBRANCH  12  13
ENDBRANCH   9  12
ENDBRANCH   1   5
BRANCH   3  25
HETATM   25  C10 UNL     1      17.378  22.396  20.027  1.00  0.00     0.103 C 
BRANCH  25  26
HETATM   26  C11 UNL     1      17.661  21.415  18.926  1.00  0.00     0.009 C 
BRANCH  26  27
HETATM   27  C12 UNL     1      18.385  22.123  17.809  1.00  0.00     0.002 C 
BRANCH  27  28
HETATM   28  C13 UNL     1      17.819  21.747  16.455  1.00  0.00     0.020 C 
BRANCH  28  29
HETATM   29  C14 UNL     1      16.631  22.591  16.088  1.00  0.00     0.137 C 
BRANCH  29  30
HETATM   30  N5  UNL     1      15.407  21.835  16.032  1.00  0.00    -0.268 N 
HETATM   31  C15 UNL     1      14.460  21.614  17.101  1.00  0.00     0.251 C 
HETATM   32  O3  UNL     1      14.244  22.365  18.066  1.00  0.00    -0.271 OA
HETATM   33  C16 UNL     1      13.792  20.279  16.792  1.00  0.00     0.185 C 
HETATM   34  N6  UNL     1      13.605  20.493  15.359  1.00  0.00    -0.324 N 
HETATM   35  C22 UNL     1      12.496  20.220  14.484  1.00  0.00     0.155 C 
HETATM   36  C23 UNL     1      14.844  21.108  14.928  1.00  0.00     0.327 C 
HETATM   37  O4  UNL     1      15.344  21.017  13.774  1.00  0.00    -0.247 OA
BRANCH  33  38
HETATM   38  C17 UNL     1      12.538  20.132  17.565  1.00  0.00     0.081 C 
BRANCH  38  39
HETATM   39  C18 UNL     1      12.665  19.229  18.767  1.00  0.00    -0.015 A 
HETATM   40  C19 UNL     1      13.682  19.159  19.681  1.00  0.00     0.015 A 
HETATM   41  C20 UNL     1      13.564  18.259  20.672  1.00  0.00     0.008 A 
HETATM   42  C21 UNL     1      12.435  17.487  20.688  1.00  0.00     0.050 A 
HETATM   43  S2  UNL     1      11.575  18.037  19.323  1.00  0.00    -0.106 SA
ENDBRANCH  38  39
ENDBRANCH  33  38
ENDBRANCH  29  30
ENDBRANCH  28  29
ENDBRANCH  27  28
ENDBRANCH  26  27
ENDBRANCH  25  26
ENDBRANCH   3  25
TORSDOF 13
ENDMDL
MODEL 2
REMARK VINA RESULT: -9.055026148      1.973      3.113
REMARK  13 active torsions:
REMARK  status: ('A' for Active; 'I' for Inactive)
REMARK    1  A    between atoms: C4_4  and  N1_5 
REMARK       I    between atoms: N1_5  and  C5_7 
REMARK    2  A    between atoms: C5_7  and  C6_9 
REMARK    3  A    between atoms: C6_9  and  S1_10 
REMARK    4  A    between atoms: S1_10  and  C7_11 
REMARK    5  A    between atoms: C8_16  and  N4_17 
REMARK       I    between atoms: N4_17  and  C9_19 
REMARK    6  A    between atoms: C9_19  and  C10_21 
REMARK    7  A    between atoms: C10_21  and  C11_22 
REMARK    8  A    between atoms: C11_22  and  C12_23 
REMARK    9  A    between atoms: C12_23  and  C13_24 
REMARK   10  A    between atoms: C13_24  and  C14_25 
REMARK   11  A    between atoms: C14_25  and  N5_26 
REMARK   12  A    between atoms: C16_29  and  C17_30 
REMARK   13  A    between atoms: C17_30  and  C18_31 
ROOT
HETATM    1  N4  UNL     1      17.807  24.723  18.959  1.00  0.00    -0.306 N 
ATOM      2  H4  UNL     1      16.925  25.216  18.822  1.00  0.00     0.171 HD
HETATM    3  C9  UNL     1      18.067  23.913  20.118  1.00  0.00     0.223 C 
HETATM    4  O2  UNL     1      18.777  24.399  21.004  1.00  0.00    -0.273 OA
ENDROOT
BRANCH   1   5
HETATM    5  C8  UNL     1      18.789  24.783  18.089  1.00  0.00     0.168 A 
HETATM    6  N3  UNL     1      20.073  24.444  18.225  1.00  0.00    -0.278 N 
HETATM    7  N2  UNL     1      20.854  24.588  17.235  1.00  0.00    -0.286 N 
ATOM      8  H3  UNL     1      20.420  24.075  19.111  1.00  0.00     0.189 HD
HETATM    9  C7  UNL     1      20.398  25.066  16.089  1.00  0.00     0.130 A 
ATOM     10  H2  UNL     1      21.838  24.334  17.324  1.00  0.00     0.188 HD
HETATM   11  S3  UNL     1      18.751  25.324  16.456  1.00  0.00    -0.026 SA
BRANCH   9  12
HETATM   12  S1  UNL     1      21.327  25.352  14.564  1.00  0.00    -0.094 SA
BRANCH  12  13
HETATM   13  C6  UNL     1      21.506  27.160  14.388  1.00  0.00     0.184 C 
BRANCH  13  14
HETATM   14  C5  UNL     1      21.765  27.794  15.693  1.00  0.00     0.232 C 
HETATM   15  N1  UNL     1      22.913  27.449  16.431  1.00  0.00    -0.311 N 
ATOM     16  H1  UNL     1      22.857  26.750  17.171  1.00  0.00     0.170 HD
HETATM   17  O1  UNL     1      20.964  28.636  16.143  1.00  0.00    -0.272 OA
BRANCH  15  18
HETATM   18  C4  UNL     1      24.040  28.026  16.164  1.00  0.00     0.130 A 
HETATM   19  C3  UNL     1      25.160  27.465  15.539  1.00  0.00     0.084 A 
HETATM   20  C2  UNL     1      26.135  28.457  15.464  1.00  0.00     0.076 A 
HETATM   21  C1  UNL     1      27.496  28.362  14.890  1.00  0.00     0.079 C 
HETATM   22  O5  UNL     1      25.607  29.508  16.009  1.00  0.00    -0.241 OA
HETATM   23  N7  UNL     1      24.401  29.295  16.423  1.00  0.00    -0.245 N 
ATOM     24  H7  UNL     1      23.809  29.989  16.881  1.00  0.00     0.196 HD
ENDBRANCH  15  18
ENDBRANCH  13  14
ENDBRANCH  12  13
ENDBRANCH   9  12
ENDBRANCH   1   5
BRANCH   3  25
HETATM   25  C10 UNL     1      17.469  22.567  20.153  1.00  0.00     0.103 C 
BRANCH  25  26
HETATM   26  C11 UNL     1      18.259  21.497  19.456  1.00  0.00     0.009 C 
BRANCH  26  27
HETATM   27  C12 UNL     1      17.380  20.819  18.436  1.00  0.00     0.002 C 
BRANCH  27  28
HETATM   28  C13 UNL     1      17.665  21.320  17.036  1.00  0.00     0.020 C 
BRANCH  28  29
HETATM   29  C14 UNL     1      16.602  22.264  16.548  1.00  0.00     0.137 C 
BRANCH  29  30
HETATM   30  N5  UNL     1      15.326  21.621  16.369  1.00  0.00    -0.268 N 
HETATM   31  C15 UNL     1      14.310  21.390  17.368  1.00  0.00     0.251 C 
HETATM   32  O3  UNL     1      14.103  22.071  18.386  1.00  0.00    -0.271 OA
HETATM   33  C16 UNL     1      13.554  20.147  16.911  1.00  0.00     0.185 C 
HETATM   34  N6  UNL     1      13.461  20.497  15.495  1.00  0.00    -0.324 N 
HETATM   35  C22 UNL     1      12.382  20.395  14.550  1.00  0.00     0.155 C 
HETATM   36  C23 UNL     1      14.766  21.041  15.179  1.00  0.00     0.327 C 
HETATM   37  O4  UNL     1      15.319  21.008  14.045  1.00  0.00    -0.247 OA
BRANCH  33  38
HETATM   38  C17 UNL     1      12.253  20.040  17.610  1.00  0.00     0.081 C 
BRANCH  38  39
HETATM   39  C18 UNL     1      12.248  19.043  18.741  1.00  0.00    -0.015 A 
HETATM   40  C19 UNL     1      11.386  18.003  18.962  1.00  0.00     0.015 A 
HETATM   41  C20 UNL     1      11.588  17.251  20.056  1.00  0.00     0.008 A 
HETATM   42  C21 UNL     1      12.642  17.586  20.862  1.00  0.00     0.050 A 
HETATM   43  S2  UNL     1      13.316  18.936  20.071  1.00  0.00    -0.106 SA
ENDBRANCH  38  39
ENDBRANCH  33  38
ENDBRANCH  29  30
ENDBRANCH  28  29
ENDBRANCH  27  28
ENDBRANCH  26  27
ENDBRANCH  25  26
ENDBRANCH   3  25
TORSDOF 13
ENDMDL
MODEL 3
REMARK VINA RESULT: -8.991285700      1.235      1.412
REMARK  13 active torsions:
REMARK  status: ('A' for Active; 'I' for Inactive)
REMARK    1  A    between atoms: C4_4  and  N1_5 
REMARK       I    between atoms: N1_5  and  C5_7 
REMARK    2  A    between atoms: C5_7  and  C6_9 
REMARK    3  A    between atoms: C6_9  and  S1_10 
REMARK    4  A    between atoms: S1_10  and  C7_11 
REMARK    5  A    between atoms: C8_16  and  N4_17 
REMARK       I    between atoms: N4_17  and  C9_19 
REMARK    6  A    between atoms: C9_19  and  C10_21 
REMARK    7  A    between atoms: C10_21  and  C11_22 
REMARK    8  A    between atoms: C11_22  and  C12_23 
REMARK    9  A    between atoms: C12_23  and  C13_24 
REMARK   10  A    between atoms: C13_24  and  C14_25 
REMARK   11  A    between atoms: C14_25  and  N5_26 
REMARK   12  A    between atoms: C16_29  and  C17_30 
REMARK   13  A    between atoms: C17_30  and  C18_31 
ROOT
HETATM    1  N4  UNL     1      19.179  24.509  19.310  1.00  0.00    -0.306 N 
ATOM      2  H4  UNL     1      18.423  24.796  18.688  1.00  0.00     0.171 HD
HETATM    3  C9  UNL     1      18.950  23.722  20.491  1.00  0.00     0.223 C 
HETATM    4  O2  UNL     1      18.953  24.311  21.577  1.00  0.00    -0.273 OA
ENDROOT
BRANCH   1   5
HETATM    5  C8  UNL     1      20.433  24.832  19.089  1.00  0.00     0.168 A 
HETATM    6  N3  UNL     1      21.547  24.134  19.318  1.00  0.00    -0.278 N 
HETATM    7  N2  UNL     1      22.668  24.652  19.021  1.00  0.00    -0.286 N 
ATOM      8  H3  UNL     1      21.499  23.199  19.724  1.00  0.00     0.189 HD
HETATM    9  C7  UNL     1      22.724  25.864  18.494  1.00  0.00     0.130 A 
ATOM     10  H2  UNL     1      23.529  24.131  19.191  1.00  0.00     0.188 HD
HETATM   11  S3  UNL     1      21.071  26.283  18.421  1.00  0.00    -0.026 SA
BRANCH   9  12
HETATM   12  S1  UNL     1      24.200  26.786  18.002  1.00  0.00    -0.094 SA
BRANCH  12  13
HETATM   13  C6  UNL     1      24.216  26.818  16.177  1.00  0.00     0.184 C 
BRANCH  13  14
HETATM   14  C5  UNL     1      23.148  27.688  15.655  1.00  0.00     0.232 C 
HETATM   15  N1  UNL     1      22.370  27.272  14.558  1.00  0.00    -0.311 N 
ATOM     16  H1  UNL     1      22.606  27.579  13.615  1.00  0.00     0.170 HD
HETATM   17  O1  UNL     1      22.935  28.795  16.186  1.00  0.00    -0.272 OA
BRANCH  15  18
HETATM   18  C4  UNL     1      21.353  26.496  14.755  1.00  0.00     0.130 A 
HETATM   19  C3  UNL     1      19.998  26.846  14.747  1.00  0.00     0.084 A 
HETATM   20  C2  UNL     1      19.267  25.688  15.005  1.00  0.00     0.076 A 
HETATM   21  C1  UNL     1      17.798  25.534  15.100  1.00  0.00     0.079 C 
HETATM   22  O5  UNL     1      20.146  24.745  15.150  1.00  0.00    -0.241 OA
HETATM   23  N7  UNL     1      21.358  25.176  15.012  1.00  0.00    -0.245 N 
ATOM     24  H7  UNL     1      22.196  24.599  15.088  1.00  0.00     0.196 HD
ENDBRANCH  15  18
ENDBRANCH  13  14
ENDBRANCH  12  13
ENDBRANCH   9  12
ENDBRANCH   1   5
BRANCH   3  25
HETATM   25  C10 UNL     1      18.734  22.275  20.310  1.00  0.00     0.103 C 
BRANCH  25  26
HETATM   26  C11 UNL     1      17.384  21.891  19.780  1.00  0.00     0.009 C 
BRANCH  26  27
HETATM   27  C12 UNL     1      17.561  20.983  18.589  1.00  0.00     0.002 C 
BRANCH  27  28
HETATM   28  C13 UNL     1      17.842  21.772  17.327  1.00  0.00     0.020 C 
BRANCH  28  29
HETATM   29  C14 UNL     1      16.680  22.643  16.937  1.00  0.00     0.137 C 
BRANCH  29  30
HETATM   30  N5  UNL     1      15.494  21.885  16.633  1.00  0.00    -0.268 N 
HETATM   31  C15 UNL     1      14.426  21.524  17.536  1.00  0.00     0.251 C 
HETATM   32  O3  UNL     1      14.069  22.147  18.549  1.00  0.00    -0.271 OA
HETATM   33  C16 UNL     1      13.839  20.229  16.985  1.00  0.00     0.185 C 
HETATM   34  N6  UNL     1      13.829  20.615  15.576  1.00  0.00    -0.324 N 
HETATM   35  C22 UNL     1      12.847  20.439  14.538  1.00  0.00     0.155 C 
HETATM   36  C23 UNL     1      15.095  21.293  15.386  1.00  0.00     0.327 C 
HETATM   37  O4  UNL     1      15.740  21.351  14.303  1.00  0.00    -0.247 OA
BRANCH  33  38
HETATM   38  C17 UNL     1      12.502  19.973  17.566  1.00  0.00     0.081 C 
BRANCH  38  39
HETATM   39  C18 UNL     1      12.518  19.030  18.744  1.00  0.00    -0.015 A 
HETATM   40  C19 UNL     1      13.469  18.896  19.719  1.00  0.00     0.015 A 
HETATM   41  C20 UNL     1      13.257  17.971  20.670  1.00  0.00     0.008 A 
HETATM   42  C21 UNL     1      12.104  17.239  20.586  1.00  0.00     0.050 A 
HETATM   43  S2  UNL     1      11.355  17.861  19.188  1.00  0.00    -0.106 SA
ENDBRANCH  38  39
ENDBRANCH  33  38
ENDBRANCH  29  30
ENDBRANCH  28  29
ENDBRANCH  27  28
ENDBRANCH  26  27
ENDBRANCH  25  26
ENDBRANCH   3  25
TORSDOF 13
ENDMDL
MODEL 4
REMARK VINA RESULT: -8.882062399      2.941     10.550
REMARK  13 active torsions:
REMARK  status: ('A' for Active; 'I' for Inactive)
REMARK    1  A    between atoms: C4_4  and  N1_5 
REMARK       I    between atoms: N1_5  and  C5_7 
REMARK    2  A    between atoms: C5_7  and  C6_9 
REMARK    3  A    between atoms: C6_9  and  S1_10 
REMARK    4  A    between atoms: S1_10  and  C7_11 
REMARK    5  A    between atoms: C8_16  and  N4_17 
REMARK       I    between atoms: N4_17  and  C9_19 
REMARK    6  A    between atoms: C9_19  and  C10_21 
REMARK    7  A    between atoms: C10_21  and  C11_22 
REMARK    8  A    between atoms: C11_22  and  C12_23 
REMARK    9  A    between atoms: C12_23  and  C13_24 
REMARK   10  A    between atoms: C13_24  and  C14_25 
REMARK   11  A    between atoms: C14_25  and  N5_26 
REMARK   12  A    between atoms: C16_29  and  C17_30 
REMARK   13  A    between atoms: C17_30  and  C18_31 
ROOT
HETATM    1  N4  UNL     1      17.279  23.003  17.574  1.00  0.00    -0.306 N 
ATOM      2  H4  UNL     1      17.893  23.816  17.567  1.00  0.00     0.171 HD
HETATM    3  C9  UNL     1      17.593  21.805  18.305  1.00  0.00     0.223 C 
HETATM    4  O2  UNL     1      18.030  20.844  17.663  1.00  0.00    -0.273 OA
ENDROOT
BRANCH   1   5
HETATM    5  C8  UNL     1      16.142  22.972  16.917  1.00  0.00     0.168 A 
HETATM    6  N3  UNL     1      14.946  23.460  17.256  1.00  0.00    -0.278 N 
HETATM    7  N2  UNL     1      13.974  23.314  16.453  1.00  0.00    -0.286 N 
ATOM      8  H3  UNL     1      14.817  23.941  18.146  1.00  0.00     0.189 HD
HETATM    9  C7  UNL     1      14.149  22.688  15.300  1.00  0.00     0.130 A 
ATOM     10  H2  UNL     1      13.054  23.679  16.698  1.00  0.00     0.188 HD
HETATM   11  S3  UNL     1      15.806  22.287  15.375  1.00  0.00    -0.026 SA
BRANCH   9  12
HETATM   12  S1  UNL     1      12.913  22.370  14.019  1.00  0.00    -0.094 SA
BRANCH  12  13
HETATM   13  C6  UNL     1      11.505  21.547  14.838  1.00  0.00     0.184 C 
BRANCH  13  14
HETATM   14  C5  UNL     1      11.686  20.085  14.858  1.00  0.00     0.232 C 
HETATM   15  N1  UNL     1      12.548  19.493  15.800  1.00  0.00    -0.311 N 
ATOM     16  H1  UNL     1      13.508  19.261  15.544  1.00  0.00     0.170 HD
HETATM   17  O1  UNL     1      11.076  19.374  14.037  1.00  0.00    -0.272 OA
BRANCH  15  18
HETATM   18  C4  UNL     1      12.114  19.243  16.994  1.00  0.00     0.130 A 
HETATM   19  C3  UNL     1      12.872  18.997  18.144  1.00  0.00     0.084 A 
HETATM   20  C2  UNL     1      11.980  18.781  19.192  1.00  0.00     0.076 A 
HETATM   21  C1  UNL     1      12.287  18.481  20.609  1.00  0.00     0.079 C 
HETATM   22  O5  UNL     1      10.797  18.897  18.674  1.00  0.00    -0.241 OA
HETATM   23  N7  UNL     1      10.837  19.163  17.408  1.00  0.00    -0.245 N 
ATOM     24  H7  UNL     1      10.020  19.293  16.812  1.00  0.00     0.196 HD
ENDBRANCH  15  18
ENDBRANCH  13  14
ENDBRANCH  12  13
ENDBRANCH   9  12
ENDBRANCH   1   5
BRANCH   3  25
HETATM   25  C10 UNL     1      17.365  21.819  19.761  1.00  0.00     0.103 C 
BRANCH  25  26
HETATM   26  C11 UNL     1      18.581  21.558  20.601  1.00  0.00     0.009 C 
BRANCH  26  27
HETATM   27  C12 UNL     1      19.192  22.876  21.008  1.00  0.00     0.002 C 
BRANCH  27  28
HETATM   28  C13 UNL     1      20.387  23.224  20.145  1.00  0.00     0.020 C 
BRANCH  28  29
HETATM   29  C14 UNL     1      21.400  24.045  20.892  1.00  0.00     0.137 C 
BRANCH  29  30
HETATM   30  N5  UNL     1      22.230  24.834  20.020  1.00  0.00    -0.268 N 
HETATM   31  C15 UNL     1      21.840  25.985  19.239  1.00  0.00     0.251 C 
HETATM   32  O3  UNL     1      20.928  26.784  19.502  1.00  0.00    -0.271 OA
HETATM   33  C16 UNL     1      22.779  26.006  18.037  1.00  0.00     0.185 C 
HETATM   34  N6  UNL     1      24.011  25.696  18.759  1.00  0.00    -0.324 N 
HETATM   35  C22 UNL     1      25.342  26.234  18.663  1.00  0.00     0.155 C 
HETATM   36  C23 UNL     1      23.620  24.664  19.697  1.00  0.00     0.327 C 
HETATM   37  O4  UNL     1      24.377  23.764  20.153  1.00  0.00    -0.247 OA
BRANCH  33  38
HETATM   38  C17 UNL     1      22.761  27.335  17.385  1.00  0.00     0.081 C 
BRANCH  38  39
HETATM   39  C18 UNL     1      21.858  27.412  16.179  1.00  0.00    -0.015 A 
HETATM   40  C19 UNL     1      22.146  27.870  14.922  1.00  0.00     0.015 A 
HETATM   41  C20 UNL     1      21.160  27.841  14.010  1.00  0.00     0.008 A 
HETATM   42  C21 UNL     1      19.947  27.354  14.413  1.00  0.00     0.050 A 
HETATM   43  S2  UNL     1      20.218  26.954  16.047  1.00  0.00    -0.106 SA
ENDBRANCH  38  39
ENDBRANCH  33  38
ENDBRANCH  29  30
ENDBRANCH  28  29
ENDBRANCH  27  28
ENDBRANCH  26  27
ENDBRANCH  25  26
ENDBRANCH   3  25
TORSDOF 13
ENDMDL
MODEL 5
REMARK VINA RESULT: -8.873930126      1.689      2.055
REMARK  13 active torsions:
REMARK  status: ('A' for Active; 'I' for Inactive)
REMARK    1  A    between atoms: C4_4  and  N1_5 
REMARK       I    between atoms: N1_5  and  C5_7 
REMARK    2  A    between atoms: C5_7  and  C6_9 
REMARK    3  A    between atoms: C6_9  and  S1_10 
REMARK    4  A    between atoms: S1_10  and  C7_11 
REMARK    5  A    between atoms: C8_16  and  N4_17 
REMARK       I    between atoms: N4_17  and  C9_19 
REMARK    6  A    between atoms: C9_19  and  C10_21 
REMARK    7  A    between atoms: C10_21  and  C11_22 
REMARK    8  A    between atoms: C11_22  and  C12_23 
REMARK    9  A    between atoms: C12_23  and  C13_24 
REMARK   10  A    between atoms: C13_24  and  C14_25 
REMARK   11  A    between atoms: C14_25  and  N5_26 
REMARK   12  A    between atoms: C16_29  and  C17_30 
REMARK   13  A    between atoms: C17_30  and  C18_31 
ROOT
HETATM    1  N4  UNL     1      18.330  24.600  20.015  1.00  0.00    -0.306 N 
ATOM      2  H4  UNL     1      17.919  25.069  20.822  1.00  0.00     0.171 HD
HETATM    3  C9  UNL     1      17.532  23.956  19.007  1.00  0.00     0.223 C 
HETATM    4  O2  UNL     1      17.445  22.725  19.050  1.00  0.00    -0.273 OA
ENDROOT
BRANCH   1   5
HETATM    5  C8  UNL     1      19.628  24.538  19.823  1.00  0.00     0.168 A 
HETATM    6  N3  UNL     1      20.314  24.116  18.758  1.00  0.00    -0.278 N 
HETATM    7  N2  UNL     1      21.583  24.147  18.794  1.00  0.00    -0.286 N 
ATOM      8  H3  UNL     1      19.826  23.774  17.930  1.00  0.00     0.189 HD
HETATM    9  C7  UNL     1      22.209  24.592  19.871  1.00  0.00     0.130 A 
ATOM     10  H2  UNL     1      22.122  23.827  17.989  1.00  0.00     0.188 HD
HETATM   11  S3  UNL     1      20.900  24.988  20.891  1.00  0.00    -0.026 SA
BRANCH   9  12
HETATM   12  S1  UNL     1      23.994  24.721  20.136  1.00  0.00    -0.094 SA
BRANCH  12  13
HETATM   13  C6  UNL     1      24.734  25.155  18.525  1.00  0.00     0.184 C 
BRANCH  13  14
HETATM   14  C5  UNL     1      24.761  26.616  18.334  1.00  0.00     0.232 C 
HETATM   15  N1  UNL     1      24.370  27.174  17.103  1.00  0.00    -0.311 N 
ATOM     16  H1  UNL     1      25.071  27.418  16.403  1.00  0.00     0.170 HD
HETATM   17  O1  UNL     1      25.132  27.356  19.265  1.00  0.00    -0.272 OA
BRANCH  15  18
HETATM   18  C4  UNL     1      23.114  27.378  16.864  1.00  0.00     0.130 A 
HETATM   19  C3  UNL     1      22.483  27.454  15.617  1.00  0.00     0.084 A 
HETATM   20  C2  UNL     1      21.129  27.684  15.849  1.00  0.00     0.076 A 
HETATM   21  C1  UNL     1      20.043  27.841  14.856  1.00  0.00     0.079 C 
HETATM   22  O5  UNL     1      20.999  27.734  17.138  1.00  0.00    -0.241 OA
HETATM   23  N7  UNL     1      22.123  27.562  17.754  1.00  0.00    -0.245 N 
ATOM     24  H7  UNL     1      22.241  27.565  18.768  1.00  0.00     0.196 HD
ENDBRANCH  15  18
ENDBRANCH  13  14
ENDBRANCH  12  13
ENDBRANCH   9  12
ENDBRANCH   1   5
BRANCH   3  25
HETATM   25  C10 UNL     1      16.886  24.819  18.002  1.00  0.00     0.103 C 
BRANCH  25  26
HETATM   26  C11 UNL     1      17.787  25.310  16.907  1.00  0.00     0.009 C 
BRANCH  26  27
HETATM   27  C12 UNL     1      17.997  24.203  15.906  1.00  0.00     0.002 C 
BRANCH  27  28
HETATM   28  C13 UNL     1      16.687  23.552  15.515  1.00  0.00     0.020 C 
BRANCH  28  29
HETATM   29  C14 UNL     1      16.688  22.074  15.793  1.00  0.00     0.137 C 
BRANCH  29  30
HETATM   30  N5  UNL     1      15.366  21.505  15.783  1.00  0.00    -0.268 N 
HETATM   31  C15 UNL     1      14.443  21.404  16.890  1.00  0.00     0.251 C 
HETATM   32  O3  UNL     1      14.380  22.159  17.873  1.00  0.00    -0.271 OA
HETATM   33  C16 UNL     1      13.575  20.186  16.594  1.00  0.00     0.185 C 
HETATM   34  N6  UNL     1      13.360  20.451  15.174  1.00  0.00    -0.324 N 
HETATM   35  C22 UNL     1      12.187  20.359  14.346  1.00  0.00     0.155 C 
HETATM   36  C23 UNL     1      14.656  20.888  14.696  1.00  0.00     0.327 C 
HETATM   37  O4  UNL     1      15.088  20.748  13.519  1.00  0.00    -0.247 OA
BRANCH  33  38
HETATM   38  C17 UNL     1      12.347  20.207  17.422  1.00  0.00     0.081 C 
BRANCH  38  39
HETATM   39  C18 UNL     1      12.379  19.250  18.587  1.00  0.00    -0.015 A 
HETATM   40  C19 UNL     1      11.467  18.290  18.931  1.00  0.00     0.015 A 
HETATM   41  C20 UNL     1      11.719  17.559  20.030  1.00  0.00     0.008 A 
HETATM   42  C21 UNL     1      12.871  17.834  20.716  1.00  0.00     0.050 A 
HETATM   43  S2  UNL     1      13.563  19.101  19.810  1.00  0.00    -0.106 SA
ENDBRANCH  38  39
ENDBRANCH  33  38
ENDBRANCH  29  30
ENDBRANCH  28  29
ENDBRANCH  27  28
ENDBRANCH  26  27
ENDBRANCH  25  26
ENDBRANCH   3  25
TORSDOF 13
ENDMDL
