MODEL 1
REMARK VINA RESULT: -8.688537303      0.000      0.000
REMARK  12 active torsions:
REMARK  status: ('A' for Active; 'I' for Inactive)
REMARK    1  A    between atoms: C2_2  and  C3_3 
REMARK    2  A    between atoms: C3_3  and  C4_4 
REMARK    3  A    between atoms: C4_4  and  C5_5 
REMARK    4  A    between atoms: C5_5  and  N1_6 
REMARK    5  A    between atoms: C7_8  and  C8_9 
REMARK    6  A    between atoms: C7_8  and  N3_12 
REMARK    7  A    between atoms: C11_14  and  C12_15 
REMARK    8  A    between atoms: C12_15  and  N4_16 
REMARK       I    between atoms: N4_16  and  C13_18 
REMARK    9  A    between atoms: C13_18  and  C14_20 
REMARK   10  A    between atoms: C14_20  and  C15_21 
REMARK   11  A    between atoms: C14_20  and  N5_23 
REMARK   12  A    between atoms: N6_26  and  C19_27 
ROOT
HETATM    1  C8  UNL     1      18.988  21.892  19.726  1.00  0.00     0.181 C 
HETATM    2  C9  UNL     1      17.696  21.201  19.530  1.00  0.00     0.063 C 
HETATM    3  N2  UNL     1      16.676  20.666  19.392  1.00  0.00    -0.197 NA
ENDROOT
BRANCH   1   4
HETATM    4  C7  UNL     1      18.938  23.137  18.857  1.00  0.00     0.159 A 
HETATM    5  C6  UNL     1      18.465  22.823  17.478  1.00  0.00     0.185 A 
HETATM    6  N1  UNL     1      17.251  23.584  17.282  1.00  0.00    -0.320 N 
HETATM    7  C24 UNL     1      16.972  24.277  18.475  1.00  0.00     0.323 A 
HETATM    8  N10 UNL     1      18.002  24.039  19.444  1.00  0.00    -0.307 N 
HETATM    9  O2  UNL     1      15.996  25.038  18.797  1.00  0.00    -0.247 OA
HETATM   10  C23 UNL     1      18.128  24.583  20.783  1.00  0.00     0.157 C 
BRANCH   6  11
HETATM   11  C5  UNL     1      16.416  23.659  16.080  1.00  0.00     0.037 C 
HETATM   12  C25 UNL     1      16.900  22.689  15.027  1.00  0.00     0.031 C 
HETATM   13  C26 UNL     1      16.009  21.496  14.850  1.00  0.00     0.002 C 
HETATM   14  C27 UNL     1      14.863  21.762  13.902  1.00  0.00     0.000 C 
HETATM   15  C28 UNL     1      13.695  22.412  14.548  1.00  0.00     0.000 C 
HETATM   16  C29 UNL     1      13.996  23.638  15.359  1.00  0.00     0.002 C 
HETATM   17  C30 UNL     1      14.991  23.456  16.451  1.00  0.00     0.031 C 
BRANCH  11  18
HETATM   18  C4  UNL     1      16.622  25.038  15.492  1.00  0.00     0.031 C 
BRANCH  18  19
HETATM   19  C3  UNL     1      18.088  25.240  15.087  1.00  0.00     0.002 C 
BRANCH  19  20
HETATM   20  C2  UNL     1      18.157  26.539  14.285  1.00  0.00    -0.004 C 
HETATM   21  C1  UNL     1      19.506  27.171  14.392  1.00  0.00     0.005 C 
ENDBRANCH  19  20
ENDBRANCH  18  19
ENDBRANCH  11  18
ENDBRANCH   6  11
BRANCH   4  22
HETATM   22  N3  UNL     1      20.242  23.802  18.843  1.00  0.00    -0.255 N 
HETATM   23  C10 UNL     1      21.249  23.493  19.662  1.00  0.00     0.143 A 
HETATM   24  C11 UNL     1      22.325  24.301  19.378  1.00  0.00     0.062 A 
HETATM   25  N8  UNL     1      21.904  25.099  18.357  1.00  0.00    -0.287 N 
HETATM   26  N9  UNL     1      20.657  24.771  18.066  1.00  0.00    -0.238 N 
ATOM     27  H8  UNL     1      22.455  25.823  17.898  1.00  0.00     0.188 HD
ATOM     28  H9  UNL     1      20.096  25.213  17.337  1.00  0.00     0.208 HD
BRANCH  24  29
HETATM   29  C12 UNL     1      23.672  24.363  19.994  1.00  0.00     0.182 C 
BRANCH  29  30
HETATM   30  N4  UNL     1      24.630  23.470  19.442  1.00  0.00    -0.354 N 
HETATM   31  C13 UNL     1      25.793  23.042  20.122  1.00  0.00     0.240 C 
HETATM   32  O1  UNL     1      25.959  23.509  21.301  1.00  0.00    -0.271 OA
ATOM     33  H4  UNL     1      24.469  23.116  18.499  1.00  0.00     0.162 HD
BRANCH  31  34
HETATM   34  C14 UNL     1      26.819  22.116  19.605  1.00  0.00     0.175 C 
BRANCH  34  35
HETATM   35  C15 UNL     1      28.219  22.682  19.801  1.00  0.00     0.030 C 
HETATM   36  C16 UNL     1      28.468  23.924  18.985  1.00  0.00     0.007 C 
ENDBRANCH  34  35
BRANCH  34  37
HETATM   37  N5  UNL     1      26.684  20.756  19.962  1.00  0.00    -0.377 N 
HETATM   38  C17 UNL     1      26.243  19.863  18.956  1.00  0.00     0.143 C 
HETATM   39  C18 UNL     1      25.493  18.662  19.474  1.00  0.00     0.144 C 
HETATM   40  N6  UNL     1      26.187  18.158  20.635  1.00  0.00    -0.365 N 
HETATM   41  C21 UNL     1      27.473  18.715  20.950  1.00  0.00     0.168 C 
HETATM   42  C22 UNL     1      27.455  20.243  21.023  1.00  0.00     0.079 C 
BRANCH  40  43
HETATM   43  C19 UNL     1      25.664  17.144  21.466  1.00  0.00     0.069 C 
HETATM   44  C20 UNL     1      25.997  17.091  22.907  1.00  0.00     0.088 C 
HETATM   45  N7  UNL     1      24.889  16.254  20.974  1.00  0.00    -0.389 N 
ATOM     46  H72 UNL     1      24.659  16.290  19.981  1.00  0.00     0.157 HD
ATOM     47  H71 UNL     1      24.510  15.522  21.576  1.00  0.00     0.157 HD
ENDBRANCH  40  43
ENDBRANCH  34  37
ENDBRANCH  31  34
ENDBRANCH  29  30
ENDBRANCH  24  29
ENDBRANCH   4  22
ENDBRANCH   1   4
TORSDOF 12
ENDMDL
MODEL 2
REMARK VINA RESULT: -8.584038132      3.044      5.602
REMARK  12 active torsions:
REMARK  status: ('A' for Active; 'I' for Inactive)
REMARK    1  A    between atoms: C2_2  and  C3_3 
REMARK    2  A    between atoms: C3_3  and  C4_4 
REMARK    3  A    between atoms: C4_4  and  C5_5 
REMARK    4  A    between atoms: C5_5  and  N1_6 
REMARK    5  A    between atoms: C7_8  and  C8_9 
REMARK    6  A    between atoms: C7_8  and  N3_12 
REMARK    7  A    between atoms: C11_14  and  C12_15 
REMARK    8  A    between atoms: C12_15  and  N4_16 
REMARK       I    between atoms: N4_16  and  C13_18 
REMARK    9  A    between atoms: C13_18  and  C14_20 
REMARK   10  A    between atoms: C14_20  and  C15_21 
REMARK   11  A    between atoms: C14_20  and  N5_23 
REMARK   12  A    between atoms: N6_26  and  C19_27 
ROOT
HETATM    1  C8  UNL     1      18.814  21.832  19.776  1.00  0.00     0.181 C 
HETATM    2  C9  UNL     1      17.527  21.148  19.531  1.00  0.00     0.063 C 
HETATM    3  N2  UNL     1      16.511  20.619  19.355  1.00  0.00    -0.197 NA
ENDROOT
BRANCH   1   4
HETATM    4  C7  UNL     1      18.811  23.070  18.895  1.00  0.00     0.159 A 
HETATM    5  C6  UNL     1      18.351  22.754  17.511  1.00  0.00     0.185 A 
HETATM    6  N1  UNL     1      17.161  23.544  17.288  1.00  0.00    -0.320 N 
HETATM    7  C24 UNL     1      16.881  24.257  18.470  1.00  0.00     0.323 A 
HETATM    8  N10 UNL     1      17.890  24.001  19.457  1.00  0.00    -0.307 N 
HETATM    9  O2  UNL     1      15.921  25.045  18.770  1.00  0.00    -0.247 OA
HETATM   10  C23 UNL     1      18.009  24.556  20.793  1.00  0.00     0.157 C 
BRANCH   6  11
HETATM   11  C5  UNL     1      16.347  23.628  16.073  1.00  0.00     0.037 C 
HETATM   12  C25 UNL     1      16.847  22.666  15.021  1.00  0.00     0.031 C 
HETATM   13  C26 UNL     1      15.959  21.474  14.821  1.00  0.00     0.002 C 
HETATM   14  C27 UNL     1      14.830  21.748  13.856  1.00  0.00     0.000 C 
HETATM   15  C28 UNL     1      13.651  22.395  14.486  1.00  0.00     0.000 C 
HETATM   16  C29 UNL     1      13.939  23.615  15.311  1.00  0.00     0.002 C 
HETATM   17  C30 UNL     1      14.915  23.424  16.419  1.00  0.00     0.031 C 
BRANCH  11  18
HETATM   18  C4  UNL     1      16.564  25.011  15.499  1.00  0.00     0.031 C 
BRANCH  18  19
HETATM   19  C3  UNL     1      18.031  25.205  15.096  1.00  0.00     0.002 C 
BRANCH  19  20
HETATM   20  C2  UNL     1      18.112  26.513  14.309  1.00  0.00    -0.004 C 
HETATM   21  C1  UNL     1      19.469  27.126  14.414  1.00  0.00     0.005 C 
ENDBRANCH  19  20
ENDBRANCH  18  19
ENDBRANCH  11  18
ENDBRANCH   6  11
BRANCH   4  22
HETATM   22  N3  UNL     1      20.132  23.700  18.894  1.00  0.00    -0.255 N 
HETATM   23  C10 UNL     1      21.117  23.375  19.733  1.00  0.00     0.143 A 
HETATM   24  C11 UNL     1      22.219  24.151  19.458  1.00  0.00     0.062 A 
HETATM   25  N8  UNL     1      21.835  24.946  18.421  1.00  0.00    -0.287 N 
HETATM   26  N9  UNL     1      20.585  24.648  18.112  1.00  0.00    -0.238 N 
ATOM     27  H8  UNL     1      22.412  25.650  17.961  1.00  0.00     0.188 HD
ATOM     28  H9  UNL     1      20.048  25.094  17.369  1.00  0.00     0.208 HD
BRANCH  24  29
HETATM   29  C12 UNL     1      23.556  24.186  20.096  1.00  0.00     0.182 C 
BRANCH  29  30
HETATM   30  N4  UNL     1      24.622  24.582  19.242  1.00  0.00    -0.354 N 
HETATM   31  C13 UNL     1      25.587  25.555  19.584  1.00  0.00     0.240 C 
HETATM   32  O1  UNL     1      25.460  26.091  20.739  1.00  0.00    -0.271 OA
ATOM     33  H4  UNL     1      24.694  24.136  18.327  1.00  0.00     0.162 HD
BRANCH  31  34
HETATM   34  C14 UNL     1      26.715  26.004  18.745  1.00  0.00     0.175 C 
BRANCH  34  35
HETATM   35  C15 UNL     1      27.398  24.823  18.067  1.00  0.00     0.030 C 
HETATM   36  C16 UNL     1      28.261  24.025  19.010  1.00  0.00     0.007 C 
ENDBRANCH  34  35
BRANCH  34  37
HETATM   37  N5  UNL     1      26.476  27.107  17.897  1.00  0.00    -0.377 N 
HETATM   38  C17 UNL     1      27.433  27.368  16.887  1.00  0.00     0.143 C 
HETATM   39  C18 UNL     1      27.532  28.817  16.481  1.00  0.00     0.144 C 
HETATM   40  N6  UNL     1      26.195  29.349  16.366  1.00  0.00    -0.365 N 
HETATM   41  C21 UNL     1      25.091  28.433  16.452  1.00  0.00     0.168 C 
HETATM   42  C22 UNL     1      25.153  27.547  17.697  1.00  0.00     0.079 C 
BRANCH  40  43
HETATM   43  C19 UNL     1      25.925  30.721  16.169  1.00  0.00     0.069 C 
HETATM   44  C20 UNL     1      26.915  31.607  15.517  1.00  0.00     0.088 C 
HETATM   45  N7  UNL     1      24.810  31.212  16.557  1.00  0.00    -0.389 N 
ATOM     46  H72 UNL     1      24.129  30.601  17.006  1.00  0.00     0.157 HD
ATOM     47  H71 UNL     1      24.615  32.203  16.414  1.00  0.00     0.157 HD
ENDBRANCH  40  43
ENDBRANCH  34  37
ENDBRANCH  31  34
ENDBRANCH  29  30
ENDBRANCH  24  29
ENDBRANCH   4  22
ENDBRANCH   1   4
TORSDOF 12
ENDMDL
MODEL 3
REMARK VINA RESULT: -8.535821987      3.178     10.050
REMARK  12 active torsions:
REMARK  status: ('A' for Active; 'I' for Inactive)
REMARK    1  A    between atoms: C2_2  and  C3_3 
REMARK    2  A    between atoms: C3_3  and  C4_4 
REMARK    3  A    between atoms: C4_4  and  C5_5 
REMARK    4  A    between atoms: C5_5  and  N1_6 
REMARK    5  A    between atoms: C7_8  and  C8_9 
REMARK    6  A    between atoms: C7_8  and  N3_12 
REMARK    7  A    between atoms: C11_14  and  C12_15 
REMARK    8  A    between atoms: C12_15  and  N4_16 
REMARK       I    between atoms: N4_16  and  C13_18 
REMARK    9  A    between atoms: C13_18  and  C14_20 
REMARK   10  A    between atoms: C14_20  and  C15_21 
REMARK   11  A    between atoms: C14_20  and  N5_23 
REMARK   12  A    between atoms: N6_26  and  C19_27 
ROOT
HETATM    1  C8  UNL     1      21.066  27.339  18.429  1.00  0.00     0.181 C 
HETATM    2  C9  UNL     1      21.140  27.929  17.076  1.00  0.00     0.063 C 
HETATM    3  N2  UNL     1      21.215  28.401  16.020  1.00  0.00    -0.197 NA
ENDROOT
BRANCH   1   4
HETATM    4  C7  UNL     1      21.576  25.914  18.298  1.00  0.00     0.159 A 
HETATM    5  C6  UNL     1      23.055  25.879  18.100  1.00  0.00     0.185 A 
HETATM    6  N1  UNL     1      23.597  25.143  19.220  1.00  0.00    -0.320 N 
HETATM    7  C24 UNL     1      22.531  24.794  20.072  1.00  0.00     0.323 A 
HETATM    8  N10 UNL     1      21.284  25.233  19.516  1.00  0.00    -0.307 N 
HETATM    9  O2  UNL     1      22.517  24.184  21.195  1.00  0.00    -0.247 OA
HETATM   10  C23 UNL     1      19.944  25.050  20.043  1.00  0.00     0.157 C 
BRANCH   6  11
HETATM   11  C5  UNL     1      24.996  24.794  19.479  1.00  0.00     0.037 C 
HETATM   12  C25 UNL     1      25.867  25.142  18.295  1.00  0.00     0.031 C 
HETATM   13  C26 UNL     1      26.743  26.338  18.520  1.00  0.00     0.002 C 
HETATM   14  C27 UNL     1      28.039  25.986  19.212  1.00  0.00     0.000 C 
HETATM   15  C28 UNL     1      27.925  25.916  20.690  1.00  0.00     0.000 C 
HETATM   16  C29 UNL     1      26.805  25.070  21.220  1.00  0.00     0.002 C 
HETATM   17  C30 UNL     1      25.443  25.437  20.743  1.00  0.00     0.031 C 
BRANCH  11  18
HETATM   18  C4  UNL     1      25.053  23.286  19.600  1.00  0.00     0.031 C 
BRANCH  18  19
HETATM   19  C3  UNL     1      26.105  22.707  18.646  1.00  0.00     0.002 C 
BRANCH  19  20
HETATM   20  C2  UNL     1      26.520  21.347  19.207  1.00  0.00    -0.004 C 
HETATM   21  C1  UNL     1      25.740  20.240  18.577  1.00  0.00     0.005 C 
ENDBRANCH  19  20
ENDBRANCH  18  19
ENDBRANCH  11  18
ENDBRANCH   6  11
BRANCH   4  22
HETATM   22  N3  UNL     1      20.871  25.215  17.221  1.00  0.00    -0.255 N 
HETATM   23  C10 UNL     1      19.674  24.643  17.359  1.00  0.00     0.143 A 
HETATM   24  C11 UNL     1      19.301  24.084  16.159  1.00  0.00     0.062 A 
HETATM   25  N8  UNL     1      20.334  24.353  15.312  1.00  0.00    -0.287 N 
HETATM   26  N9  UNL     1      21.251  25.029  15.982  1.00  0.00    -0.238 N 
ATOM     27  H8  UNL     1      20.390  24.079  14.332  1.00  0.00     0.188 HD
ATOM     28  H9  UNL     1      22.132  25.359  15.588  1.00  0.00     0.208 HD
BRANCH  24  29
HETATM   29  C12 UNL     1      18.077  23.337  15.783  1.00  0.00     0.182 C 
BRANCH  29  30
HETATM   30  N4  UNL     1      17.366  22.757  16.869  1.00  0.00    -0.354 N 
HETATM   31  C13 UNL     1      17.481  21.403  17.254  1.00  0.00     0.240 C 
HETATM   32  O1  UNL     1      18.281  20.686  16.560  1.00  0.00    -0.271 OA
ATOM     33  H4  UNL     1      16.734  23.355  17.402  1.00  0.00     0.162 HD
BRANCH  31  34
HETATM   34  C14 UNL     1      16.774  20.746  18.371  1.00  0.00     0.175 C 
BRANCH  34  35
HETATM   35  C15 UNL     1      17.039  21.466  19.687  1.00  0.00     0.030 C 
HETATM   36  C16 UNL     1      18.496  21.469  20.070  1.00  0.00     0.007 C 
ENDBRANCH  34  35
BRANCH  34  37
HETATM   37  N5  UNL     1      15.420  20.405  18.153  1.00  0.00    -0.377 N 
HETATM   38  C17 UNL     1      14.520  20.606  19.227  1.00  0.00     0.143 C 
HETATM   39  C18 UNL     1      13.336  19.673  19.230  1.00  0.00     0.144 C 
HETATM   40  N6  UNL     1      12.839  19.564  17.880  1.00  0.00    -0.365 N 
HETATM   41  C21 UNL     1      13.383  20.446  16.884  1.00  0.00     0.168 C 
HETATM   42  C22 UNL     1      14.912  20.417  16.840  1.00  0.00     0.079 C 
BRANCH  40  43
HETATM   43  C19 UNL     1      11.844  18.639  17.496  1.00  0.00     0.069 C 
HETATM   44  C20 UNL     1      11.087  17.869  18.508  1.00  0.00     0.088 C 
HETATM   45  N7  UNL     1      11.586  18.458  16.257  1.00  0.00    -0.389 N 
ATOM     46  H72 UNL     1      12.108  18.989  15.559  1.00  0.00     0.157 HD
ATOM     47  H71 UNL     1      10.867  17.790  15.980  1.00  0.00     0.157 HD
ENDBRANCH  40  43
ENDBRANCH  34  37
ENDBRANCH  31  34
ENDBRANCH  29  30
ENDBRANCH  24  29
ENDBRANCH   4  22
ENDBRANCH   1   4
TORSDOF 12
ENDMDL
MODEL 4
REMARK VINA RESULT: -8.473342865      5.717     10.825
REMARK  12 active torsions:
REMARK  status: ('A' for Active; 'I' for Inactive)
REMARK    1  A    between atoms: C2_2  and  C3_3 
REMARK    2  A    between atoms: C3_3  and  C4_4 
REMARK    3  A    between atoms: C4_4  and  C5_5 
REMARK    4  A    between atoms: C5_5  and  N1_6 
REMARK    5  A    between atoms: C7_8  and  C8_9 
REMARK    6  A    between atoms: C7_8  and  N3_12 
REMARK    7  A    between atoms: C11_14  and  C12_15 
REMARK    8  A    between atoms: C12_15  and  N4_16 
REMARK       I    between atoms: N4_16  and  C13_18 
REMARK    9  A    between atoms: C13_18  and  C14_20 
REMARK   10  A    between atoms: C14_20  and  C15_21 
REMARK   11  A    between atoms: C14_20  and  N5_23 
REMARK   12  A    between atoms: N6_26  and  C19_27 
ROOT
HETATM    1  C8  UNL     1      14.717  22.768  17.140  1.00  0.00     0.181 C 
HETATM    2  C9  UNL     1      15.112  23.811  18.109  1.00  0.00     0.063 C 
HETATM    3  N2  UNL     1      15.427  24.615  18.882  1.00  0.00    -0.197 NA
ENDROOT
BRANCH   1   4
HETATM    4  C7  UNL     1      15.873  22.637  16.163  1.00  0.00     0.159 A 
HETATM    5  C6  UNL     1      16.486  23.963  15.862  1.00  0.00     0.185 A 
HETATM    6  N1  UNL     1      17.863  23.882  16.295  1.00  0.00    -0.320 N 
HETATM    7  C24 UNL     1      18.067  22.613  16.869  1.00  0.00     0.323 A 
HETATM    8  N10 UNL     1      16.872  21.826  16.777  1.00  0.00    -0.307 N 
HETATM    9  O2  UNL     1      19.096  22.097  17.424  1.00  0.00    -0.247 OA
HETATM   10  C23 UNL     1      16.655  20.457  17.207  1.00  0.00     0.157 C 
BRANCH   6  11
HETATM   11  C5  UNL     1      18.906  24.906  16.187  1.00  0.00     0.037 C 
HETATM   12  C25 UNL     1      20.270  24.274  16.043  1.00  0.00     0.031 C 
HETATM   13  C26 UNL     1      20.846  24.387  14.663  1.00  0.00     0.002 C 
HETATM   14  C27 UNL     1      21.567  25.697  14.441  1.00  0.00     0.000 C 
HETATM   15  C28 UNL     1      20.668  26.811  14.049  1.00  0.00     0.000 C 
HETATM   16  C29 UNL     1      19.465  27.019  14.922  1.00  0.00     0.002 C 
HETATM   17  C30 UNL     1      18.573  25.838  15.077  1.00  0.00     0.031 C 
BRANCH  11  18
HETATM   18  C4  UNL     1      18.932  25.642  17.509  1.00  0.00     0.031 C 
BRANCH  18  19
HETATM   19  C3  UNL     1      20.317  25.533  18.160  1.00  0.00     0.002 C 
BRANCH  19  20
HETATM   20  C2  UNL     1      20.838  26.958  18.348  1.00  0.00    -0.004 C 
HETATM   21  C1  UNL     1      22.206  27.115  17.770  1.00  0.00     0.005 C 
ENDBRANCH  19  20
ENDBRANCH  18  19
ENDBRANCH  11  18
ENDBRANCH   6  11
BRANCH   4  22
HETATM   22  N3  UNL     1      15.437  21.954  14.943  1.00  0.00    -0.255 N 
HETATM   23  C10 UNL     1      14.424  21.087  14.893  1.00  0.00     0.143 A 
HETATM   24  C11 UNL     1      14.279  20.638  13.601  1.00  0.00     0.062 A 
HETATM   25  N8  UNL     1      15.253  21.279  12.897  1.00  0.00    -0.287 N 
HETATM   26  N9  UNL     1      15.923  22.055  13.732  1.00  0.00    -0.238 N 
ATOM     27  H8  UNL     1      15.435  21.178  11.899  1.00  0.00     0.188 HD
ATOM     28  H9  UNL     1      16.709  22.650  13.469  1.00  0.00     0.208 HD
BRANCH  24  29
HETATM   29  C12 UNL     1      13.316  19.674  13.018  1.00  0.00     0.182 C 
BRANCH  29  30
HETATM   30  N4  UNL     1      12.785  18.723  13.932  1.00  0.00    -0.354 N 
HETATM   31  C13 UNL     1      11.426  18.337  13.968  1.00  0.00     0.240 C 
HETATM   32  O1  UNL     1      10.659  18.900  13.114  1.00  0.00    -0.271 OA
ATOM     33  H4  UNL     1      13.424  18.294  14.602  1.00  0.00     0.162 HD
BRANCH  31  34
HETATM   34  C14 UNL     1      10.819  17.356  14.888  1.00  0.00     0.175 C 
BRANCH  34  35
HETATM   35  C15 UNL     1      11.070  15.931  14.414  1.00  0.00     0.030 C 
HETATM   36  C16 UNL     1       9.965  15.400  13.539  1.00  0.00     0.007 C 
ENDBRANCH  34  35
BRANCH  34  37
HETATM   37  N5  UNL     1      11.036  17.560  16.268  1.00  0.00    -0.377 N 
HETATM   38  C17 UNL     1      10.963  18.890  16.746  1.00  0.00     0.143 C 
HETATM   39  C18 UNL     1      11.810  19.163  17.963  1.00  0.00     0.144 C 
HETATM   40  N6  UNL     1      11.662  18.057  18.878  1.00  0.00    -0.365 N 
HETATM   41  C21 UNL     1      10.661  17.067  18.587  1.00  0.00     0.168 C 
HETATM   42  C22 UNL     1      10.774  16.509  17.168  1.00  0.00     0.079 C 
BRANCH  40  43
HETATM   43  C19 UNL     1      12.447  17.907  20.041  1.00  0.00     0.069 C 
HETATM   44  C20 UNL     1      13.632  18.760  20.277  1.00  0.00     0.088 C 
HETATM   45  N7  UNL     1      12.136  17.020  20.909  1.00  0.00    -0.389 N 
ATOM     46  H72 UNL     1      11.320  16.432  20.747  1.00  0.00     0.157 HD
ATOM     47  H71 UNL     1      12.704  16.913  21.750  1.00  0.00     0.157 HD
ENDBRANCH  40  43
ENDBRANCH  34  37
ENDBRANCH  31  34
ENDBRANCH  29  30
ENDBRANCH  24  29
ENDBRANCH   4  22
ENDBRANCH   1   4
TORSDOF 12
ENDMDL
MODEL 5
REMARK VINA RESULT: -8.445358084      2.855      3.794
REMARK  12 active torsions:
REMARK  status: ('A' for Active; 'I' for Inactive)
REMARK    1  A    between atoms: C2_2  and  C3_3 
REMARK    2  A    between atoms: C3_3  and  C4_4 
REMARK    3  A    between atoms: C4_4  and  C5_5 
REMARK    4  A    between atoms: C5_5  and  N1_6 
REMARK    5  A    between atoms: C7_8  and  C8_9 
REMARK    6  A    between atoms: C7_8  and  N3_12 
REMARK    7  A    between atoms: C11_14  and  C12_15 
REMARK    8  A    between atoms: C12_15  and  N4_16 
REMARK       I    between atoms: N4_16  and  C13_18 
REMARK    9  A    between atoms: C13_18  and  C14_20 
REMARK   10  A    between atoms: C14_20  and  C15_21 
REMARK   11  A    between atoms: C14_20  and  N5_23 
REMARK   12  A    between atoms: N6_26  and  C19_27 
ROOT
HETATM    1  C8  UNL     1      19.232  22.047  19.512  1.00  0.00     0.181 C 
HETATM    2  C9  UNL     1      17.964  21.295  19.405  1.00  0.00     0.063 C 
HETATM    3  N2  UNL     1      16.964  20.713  19.339  1.00  0.00    -0.197 NA
ENDROOT
BRANCH   1   4
HETATM    4  C7  UNL     1      19.044  23.315  18.697  1.00  0.00     0.159 A 
HETATM    5  C6  UNL     1      18.555  23.012  17.321  1.00  0.00     0.185 A 
HETATM    6  N1  UNL     1      17.274  23.668  17.192  1.00  0.00    -0.320 N 
HETATM    7  C24 UNL     1      16.974  24.288  18.419  1.00  0.00     0.323 A 
HETATM    8  N10 UNL     1      18.052  24.106  19.347  1.00  0.00    -0.307 N 
HETATM    9  O2  UNL     1      15.946  24.945  18.801  1.00  0.00    -0.247 OA
HETATM   10  C23 UNL     1      18.174  24.608  20.703  1.00  0.00     0.157 C 
BRANCH   6  11
HETATM   11  C5  UNL     1      16.396  23.713  16.019  1.00  0.00     0.037 C 
HETATM   12  C25 UNL     1      16.841  22.716  14.974  1.00  0.00     0.031 C 
HETATM   13  C26 UNL     1      15.944  21.520  14.861  1.00  0.00     0.002 C 
HETATM   14  C27 UNL     1      14.765  21.763  13.948  1.00  0.00     0.000 C 
HETATM   15  C28 UNL     1      13.621  22.431  14.618  1.00  0.00     0.000 C 
HETATM   16  C29 UNL     1      13.952  23.677  15.387  1.00  0.00     0.002 C 
HETATM   17  C30 UNL     1      14.985  23.521  16.446  1.00  0.00     0.031 C 
BRANCH  11  18
HETATM   18  C4  UNL     1      16.582  25.076  15.389  1.00  0.00     0.031 C 
BRANCH  18  19
HETATM   19  C3  UNL     1      17.940  25.165  14.682  1.00  0.00     0.002 C 
BRANCH  19  20
HETATM   20  C2  UNL     1      18.135  26.623  14.265  1.00  0.00    -0.004 C 
HETATM   21  C1  UNL     1      19.507  27.105  14.606  1.00  0.00     0.005 C 
ENDBRANCH  19  20
ENDBRANCH  18  19
ENDBRANCH  11  18
ENDBRANCH   6  11
BRANCH   4  22
HETATM   22  N3  UNL     1      20.284  24.093  18.671  1.00  0.00    -0.255 N 
HETATM   23  C10 UNL     1      20.418  25.265  18.048  1.00  0.00     0.143 A 
HETATM   24  C11 UNL     1      21.702  25.726  18.225  1.00  0.00     0.062 A 
HETATM   25  N8  UNL     1      22.315  24.770  18.978  1.00  0.00    -0.287 N 
HETATM   26  N9  UNL     1      21.437  23.813  19.223  1.00  0.00    -0.238 N 
ATOM     27  H8  UNL     1      23.283  24.789  19.297  1.00  0.00     0.188 HD
ATOM     28  H9  UNL     1      21.632  22.972  19.768  1.00  0.00     0.208 HD
BRANCH  24  29
HETATM   29  C12 UNL     1      22.358  26.963  17.740  1.00  0.00     0.182 C 
BRANCH  29  30
HETATM   30  N4  UNL     1      23.779  26.947  17.774  1.00  0.00    -0.354 N 
HETATM   31  C13 UNL     1      24.590  26.552  16.687  1.00  0.00     0.240 C 
HETATM   32  O1  UNL     1      23.971  26.192  15.626  1.00  0.00    -0.271 OA
ATOM     33  H4  UNL     1      24.241  27.239  18.636  1.00  0.00     0.162 HD
BRANCH  31  34
HETATM   34  C14 UNL     1      26.065  26.518  16.660  1.00  0.00     0.175 C 
BRANCH  34  35
HETATM   35  C15 UNL     1      26.643  27.915  16.482  1.00  0.00     0.030 C 
HETATM   36  C16 UNL     1      26.747  28.326  15.036  1.00  0.00     0.007 C 
ENDBRANCH  34  35
BRANCH  34  37
HETATM   37  N5  UNL     1      26.700  25.745  17.657  1.00  0.00    -0.377 N 
HETATM   38  C17 UNL     1      26.424  24.357  17.675  1.00  0.00     0.143 C 
HETATM   39  C18 UNL     1      26.532  23.717  19.036  1.00  0.00     0.144 C 
HETATM   40  N6  UNL     1      27.714  24.228  19.687  1.00  0.00    -0.365 N 
HETATM   41  C21 UNL     1      28.618  25.034  18.913  1.00  0.00     0.168 C 
HETATM   42  C22 UNL     1      27.918  26.193  18.203  1.00  0.00     0.079 C 
BRANCH  40  43
HETATM   43  C19 UNL     1      28.024  23.969  21.039  1.00  0.00     0.069 C 
HETATM   44  C20 UNL     1      27.506  22.763  21.723  1.00  0.00     0.088 C 
HETATM   45  N7  UNL     1      28.763  24.784  21.691  1.00  0.00    -0.389 N 
ATOM     46  H72 UNL     1      29.120  25.615  21.220  1.00  0.00     0.157 HD
ATOM     47  H71 UNL     1      28.987  24.596  22.668  1.00  0.00     0.157 HD
ENDBRANCH  40  43
ENDBRANCH  34  37
ENDBRANCH  31  34
ENDBRANCH  29  30
ENDBRANCH  24  29
ENDBRANCH   4  22
ENDBRANCH   1   4
TORSDOF 12
ENDMDL
