MODEL 1
REMARK VINA RESULT: -4.714337742      0.000      0.000
REMARK  14 active torsions:
REMARK  status: ('A' for Active; 'I' for Inactive)
REMARK    1  A    between atoms: C2_2  and  C4_4 
REMARK    2  A    between atoms: C4_4  and  C5_5 
REMARK    3  A    between atoms: C7_8  and  C8_9 
REMARK    4  A    between atoms: C10_11  and  O2_12 
REMARK    5  A    between atoms: C11_14  and  C12_15 
REMARK    6  A    between atoms: C12_15  and  C13_16 
REMARK    7  A    between atoms: C19_24  and  C20_25 
REMARK    8  A    between atoms: C20_25  and  C21_27 
REMARK    9  A    between atoms: C21_27  and  C22_28 
REMARK   10  A    between atoms: C23_30  and  C24_31 
REMARK   11  A    between atoms: C27_35  and  O8_36 
REMARK   12  A    between atoms: C30_40  and  C31_41 
REMARK   13  A    between atoms: C31_41  and  C32_42 
REMARK   14  A    between atoms: C32_42  and  O9_43 
ROOT
HETATM    1  C5  UNL     1       7.954  16.245  12.625  1.00  0.00     0.089 C 
HETATM    2  C6  UNL     1       7.469  14.948  12.080  1.00  0.00     0.142 C 
HETATM    3  O1  UNL     1       7.647  14.641  10.945  1.00  0.00    -0.297 OA
HETATM    4  C7  UNL     1       6.736  13.993  12.952  1.00  0.00     0.085 C 
HETATM    5  C10 UNL     1       7.532  13.222  13.941  1.00  0.00     0.140 C 
HETATM    6  C11 UNL     1       7.053  13.327  15.382  1.00  0.00     0.085 C 
HETATM    7  C15 UNL     1       8.238  13.475  16.308  1.00  0.00     0.144 C 
HETATM    8  O3  UNL     1       8.245  12.894  17.396  1.00  0.00    -0.297 OA
HETATM    9  C16 UNL     1       9.434  14.285  16.006  1.00  0.00     0.122 C 
HETATM   10  C17 UNL     1      10.655  13.359  15.987  1.00  0.00     0.026 C 
HETATM   11  C18 UNL     1       9.718  15.410  16.884  1.00  0.00     0.151 C 
HETATM   12  O4  UNL     1       9.021  15.780  17.761  1.00  0.00    -0.296 OA
HETATM   13  C19 UNL     1      11.017  16.156  16.637  1.00  0.00     0.155 C 
HETATM   14  C23 UNL     1      10.802  17.200  15.580  1.00  0.00     0.152 C 
HETATM   15  O7  UNL     1      10.786  16.655  14.340  1.00  0.00    -0.323 OA
HETATM   16  C27 UNL     1      11.275  16.347  13.210  1.00  0.00     0.184 C 
HETATM   17  C28 UNL     1      10.440  16.220  11.970  1.00  0.00    -0.001 C 
HETATM   18  C29 UNL     1      10.609  14.833  11.389  1.00  0.00     0.054 C 
HETATM   19  C30 UNL     1       9.122  16.847  11.939  1.00  0.00    -0.056 C 
ENDROOT
BRANCH  13  20
HETATM   20  C20 UNL     1      11.623  16.561  17.893  1.00  0.00     0.147 C 
HETATM   21  O5  UNL     1      12.863  16.693  17.929  1.00  0.00    -0.297 OA
BRANCH  20  22
HETATM   22  C21 UNL     1      10.906  16.842  19.160  1.00  0.00     0.148 C 
BRANCH  22  23
HETATM   23  C22 UNL     1      11.818  17.784  19.925  1.00  0.00     0.238 C 
HETATM   24  O6  UNL     1      11.399  18.572  20.739  1.00  0.00    -0.306 OA
ENDBRANCH  22  23
ENDBRANCH  20  22
ENDBRANCH  13  20
BRANCH  14  25
HETATM   25  C24 UNL     1      11.363  18.555  15.783  1.00  0.00     0.008 C 
HETATM   26  C25 UNL     1      10.625  19.430  16.761  1.00  0.00     0.012 C 
HETATM   27  C26 UNL     1      11.580  19.328  14.500  1.00  0.00     0.012 C 
ENDBRANCH  14  25
BRANCH  16  28
HETATM   28  O8  UNL     1      12.529  16.084  12.907  1.00  0.00    -0.341 OA
ATOM     29  H8  UNL     1      13.074  15.371  13.217  1.00  0.00     0.220 HD
ENDBRANCH  16  28
BRANCH   6  30
HETATM   30  C12 UNL     1       6.160  14.481  15.662  1.00  0.00     0.014 C 
BRANCH  30  31
HETATM   31  C13 UNL     1       4.837  14.049  16.231  1.00  0.00    -0.004 C 
HETATM   32  C14 UNL     1       4.544  12.579  16.131  1.00  0.00     0.005 C 
ENDBRANCH  30  31
ENDBRANCH   6  30
BRANCH   5  33
HETATM   33  O2  UNL     1       7.448  11.821  13.661  1.00  0.00    -0.394 OA
ATOM     34  H2  UNL     1       8.109  11.572  13.026  1.00  0.00     0.210 HD
ENDBRANCH   5  33
BRANCH  19  35
HETATM   35  C31 UNL     1       8.759  17.349  10.563  1.00  0.00     0.061 C 
BRANCH  35  36
HETATM   36  C32 UNL     1       9.932  17.864   9.758  1.00  0.00     0.168 C 
BRANCH  36  37
HETATM   37  O9  UNL     1       9.587  18.818   8.819  1.00  0.00    -0.401 OA
ATOM     38  H9  UNL     1       9.182  18.458   8.040  1.00  0.00     0.209 HD
ENDBRANCH  36  37
ENDBRANCH  35  36
ENDBRANCH  19  35
BRANCH   4  39
HETATM   39  C8  UNL     1       5.974  12.968  12.083  1.00  0.00     0.010 C 
HETATM   40  C9  UNL     1       4.518  12.909  12.365  1.00  0.00     0.006 C 
ENDBRANCH   4  39
BRANCH   1  41
HETATM   41  C4  UNL     1       6.720  17.121  12.433  1.00  0.00     0.049 C 
BRANCH  41  42
HETATM   42  C2  UNL     1       5.582  17.026  13.314  1.00  0.00    -0.092 C 
HETATM   43  C1  UNL     1       5.367  17.290  14.469  1.00  0.00     0.014 C 
HETATM   44  C3  UNL     1       4.289  16.582  12.537  1.00  0.00     0.042 C 
ENDBRANCH  41  42
ENDBRANCH   1  41
TORSDOF 14
ENDMDL
MODEL 2
REMARK VINA RESULT: -4.512409357     17.402     21.963
REMARK  14 active torsions:
REMARK  status: ('A' for Active; 'I' for Inactive)
REMARK    1  A    between atoms: C2_2  and  C4_4 
REMARK    2  A    between atoms: C4_4  and  C5_5 
REMARK    3  A    between atoms: C7_8  and  C8_9 
REMARK    4  A    between atoms: C10_11  and  O2_12 
REMARK    5  A    between atoms: C11_14  and  C12_15 
REMARK    6  A    between atoms: C12_15  and  C13_16 
REMARK    7  A    between atoms: C19_24  and  C20_25 
REMARK    8  A    between atoms: C20_25  and  C21_27 
REMARK    9  A    between atoms: C21_27  and  C22_28 
REMARK   10  A    between atoms: C23_30  and  C24_31 
REMARK   11  A    between atoms: C27_35  and  O8_36 
REMARK   12  A    between atoms: C30_40  and  C31_41 
REMARK   13  A    between atoms: C31_41  and  C32_42 
REMARK   14  A    between atoms: C32_42  and  O9_43 
ROOT
HETATM    1  C5  UNL     1      25.451  24.433  20.754  1.00  0.00     0.089 C 
HETATM    2  C6  UNL     1      26.328  23.917  21.840  1.00  0.00     0.142 C 
HETATM    3  O1  UNL     1      26.778  22.816  21.810  1.00  0.00    -0.297 OA
HETATM    4  C7  UNL     1      26.667  24.775  23.005  1.00  0.00     0.085 C 
HETATM    5  C10 UNL     1      27.658  25.861  22.789  1.00  0.00     0.140 C 
HETATM    6  C11 UNL     1      27.192  27.253  23.193  1.00  0.00     0.085 C 
HETATM    7  C15 UNL     1      27.622  28.260  22.152  1.00  0.00     0.144 C 
HETATM    8  O3  UNL     1      28.024  29.373  22.502  1.00  0.00    -0.297 OA
HETATM    9  C16 UNL     1      27.605  28.013  20.698  1.00  0.00     0.122 C 
HETATM   10  C17 UNL     1      29.039  28.137  20.168  1.00  0.00     0.026 C 
HETATM   11  C18 UNL     1      26.737  28.854  19.887  1.00  0.00     0.151 C 
HETATM   12  O4  UNL     1      25.980  29.654  20.309  1.00  0.00    -0.296 OA
HETATM   13  C19 UNL     1      26.824  28.673  18.383  1.00  0.00     0.155 C 
HETATM   14  C23 UNL     1      25.920  27.551  17.960  1.00  0.00     0.152 C 
HETATM   15  O7  UNL     1      26.474  26.343  18.218  1.00  0.00    -0.323 OA
HETATM   16  C27 UNL     1      27.090  25.272  17.927  1.00  0.00     0.184 C 
HETATM   17  C28 UNL     1      26.856  23.977  18.649  1.00  0.00    -0.001 C 
HETATM   18  C29 UNL     1      28.161  23.481  19.231  1.00  0.00     0.054 C 
HETATM   19  C30 UNL     1      25.626  23.812  19.420  1.00  0.00    -0.056 C 
ENDROOT
BRANCH  13  20
HETATM   20  C20 UNL     1      26.701  29.951  17.704  1.00  0.00     0.147 C 
HETATM   21  O5  UNL     1      25.554  30.363  17.436  1.00  0.00    -0.297 OA
BRANCH  20  22
HETATM   22  C21 UNL     1      27.818  30.834  17.292  1.00  0.00     0.148 C 
BRANCH  22  23
HETATM   23  C22 UNL     1      28.478  30.115  16.131  1.00  0.00     0.238 C 
HETATM   24  O6  UNL     1      28.017  30.128  15.014  1.00  0.00    -0.306 OA
ENDBRANCH  22  23
ENDBRANCH  20  22
ENDBRANCH  13  20
BRANCH  14  25
HETATM   25  C24 UNL     1      25.063  27.730  16.765  1.00  0.00     0.008 C 
HETATM   26  C25 UNL     1      23.713  27.068  16.824  1.00  0.00     0.012 C 
HETATM   27  C26 UNL     1      25.739  27.354  15.464  1.00  0.00     0.012 C 
ENDBRANCH  14  25
BRANCH  16  28
HETATM   28  O8  UNL     1      28.007  25.081  17.001  1.00  0.00    -0.341 OA
ATOM     29  H8  UNL     1      28.707  24.440  16.988  1.00  0.00     0.220 HD
ENDBRANCH  16  28
BRANCH   6  30
HETATM   30  C12 UNL     1      25.720  27.404  23.334  1.00  0.00     0.014 C 
BRANCH  30  31
HETATM   31  C13 UNL     1      25.319  27.741  24.743  1.00  0.00    -0.004 C 
HETATM   32  C14 UNL     1      26.452  27.883  25.719  1.00  0.00     0.005 C 
ENDBRANCH  30  31
ENDBRANCH   6  30
BRANCH   5  33
HETATM   33  O2  UNL     1      28.815  25.645  23.604  1.00  0.00    -0.394 OA
ATOM     34  H2  UNL     1      29.603  25.694  23.076  1.00  0.00     0.210 HD
ENDBRANCH   5  33
BRANCH  19  35
HETATM   35  C31 UNL     1      25.126  22.389  19.401  1.00  0.00     0.061 C 
BRANCH  35  36
HETATM   36  C32 UNL     1      25.971  21.442  18.577  1.00  0.00     0.168 C 
BRANCH  36  37
HETATM   37  O9  UNL     1      25.300  20.302  18.177  1.00  0.00    -0.401 OA
ATOM     38  H9  UNL     1      25.408  19.567  18.769  1.00  0.00     0.209 HD
ENDBRANCH  36  37
ENDBRANCH  35  36
ENDBRANCH  19  35
BRANCH   4  39
HETATM   39  C8  UNL     1      27.195  23.901  24.164  1.00  0.00     0.010 C 
HETATM   40  C9  UNL     1      26.508  24.142  25.458  1.00  0.00     0.006 C 
ENDBRANCH   4  39
BRANCH   1  41
HETATM   41  C4  UNL     1      24.071  24.101  21.314  1.00  0.00     0.049 C 
BRANCH  41  42
HETATM   42  C2  UNL     1      22.865  24.562  20.671  1.00  0.00    -0.092 C 
HETATM   43  C1  UNL     1      22.599  25.075  19.615  1.00  0.00     0.014 C 
HETATM   44  C3  UNL     1      21.588  24.190  21.509  1.00  0.00     0.042 C 
ENDBRANCH  41  42
ENDBRANCH   1  41
TORSDOF 14
ENDMDL
MODEL 3
REMARK VINA RESULT: -3.987023402      2.059      5.863
REMARK  14 active torsions:
REMARK  status: ('A' for Active; 'I' for Inactive)
REMARK    1  A    between atoms: C2_2  and  C4_4 
REMARK    2  A    between atoms: C4_4  and  C5_5 
REMARK    3  A    between atoms: C7_8  and  C8_9 
REMARK    4  A    between atoms: C10_11  and  O2_12 
REMARK    5  A    between atoms: C11_14  and  C12_15 
REMARK    6  A    between atoms: C12_15  and  C13_16 
REMARK    7  A    between atoms: C19_24  and  C20_25 
REMARK    8  A    between atoms: C20_25  and  C21_27 
REMARK    9  A    between atoms: C21_27  and  C22_28 
REMARK   10  A    between atoms: C23_30  and  C24_31 
REMARK   11  A    between atoms: C27_35  and  O8_36 
REMARK   12  A    between atoms: C30_40  and  C31_41 
REMARK   13  A    between atoms: C31_41  and  C32_42 
REMARK   14  A    between atoms: C32_42  and  O9_43 
ROOT
HETATM    1  C5  UNL     1       7.668  15.001  10.899  1.00  0.00     0.089 C 
HETATM    2  C6  UNL     1       7.930  16.058   9.886  1.00  0.00     0.142 C 
HETATM    3  O1  UNL     1       7.045  16.656   9.363  1.00  0.00    -0.297 OA
HETATM    4  C7  UNL     1       9.324  16.397   9.494  1.00  0.00     0.085 C 
HETATM    5  C10 UNL     1      10.131  17.190  10.457  1.00  0.00     0.140 C 
HETATM    6  C11 UNL     1      11.470  16.575  10.842  1.00  0.00     0.085 C 
HETATM    7  C15 UNL     1      11.702  16.737  12.326  1.00  0.00     0.144 C 
HETATM    8  O3  UNL     1      12.829  17.009  12.746  1.00  0.00    -0.297 OA
HETATM    9  C16 UNL     1      10.652  16.594  13.352  1.00  0.00     0.122 C 
HETATM   10  C17 UNL     1      10.520  17.927  14.099  1.00  0.00     0.026 C 
HETATM   11  C18 UNL     1      10.814  15.528  14.330  1.00  0.00     0.151 C 
HETATM   12  O4  UNL     1      11.668  14.715  14.313  1.00  0.00    -0.296 OA
HETATM   13  C19 UNL     1       9.795  15.473  15.453  1.00  0.00     0.155 C 
HETATM   14  C23 UNL     1       8.591  14.700  14.999  1.00  0.00     0.152 C 
HETATM   15  O7  UNL     1       7.791  15.448  14.202  1.00  0.00    -0.323 OA
HETATM   16  C27 UNL     1       6.786  16.176  13.936  1.00  0.00     0.184 C 
HETATM   17  C28 UNL     1       6.146  16.214  12.579  1.00  0.00    -0.001 C 
HETATM   18  C29 UNL     1       6.154  17.634  12.057  1.00  0.00     0.054 C 
HETATM   19  C30 UNL     1       6.396  15.114  11.650  1.00  0.00    -0.056 C 
ENDROOT
BRANCH  13  20
HETATM   20  C20 UNL     1      10.428  15.091  16.703  1.00  0.00     0.147 C 
HETATM   21  O5  UNL     1      11.066  14.019  16.733  1.00  0.00    -0.297 OA
BRANCH  20  22
HETATM   22  C21 UNL     1      10.397  15.859  17.970  1.00  0.00     0.148 C 
BRANCH  22  23
HETATM   23  C22 UNL     1      11.492  16.899  17.825  1.00  0.00     0.238 C 
HETATM   24  O6  UNL     1      12.663  16.603  17.770  1.00  0.00    -0.306 OA
ENDBRANCH  22  23
ENDBRANCH  20  22
ENDBRANCH  13  20
BRANCH  14  25
HETATM   25  C24 UNL     1       7.993  13.698  15.912  1.00  0.00     0.008 C 
HETATM   26  C25 UNL     1       7.430  12.467  15.254  1.00  0.00     0.012 C 
HETATM   27  C26 UNL     1       6.956  14.270  16.854  1.00  0.00     0.012 C 
ENDBRANCH  14  25
BRANCH  16  28
HETATM   28  O8  UNL     1       6.141  17.002  14.732  1.00  0.00    -0.341 OA
ATOM     29  H8  UNL     1       5.224  17.249  14.709  1.00  0.00     0.220 HD
ENDBRANCH  16  28
BRANCH   6  30
HETATM   30  C12 UNL     1      11.596  15.122  10.557  1.00  0.00     0.014 C 
BRANCH  30  31
HETATM   31  C13 UNL     1      12.774  14.818   9.673  1.00  0.00    -0.004 C 
HETATM   32  C14 UNL     1      12.518  13.821   8.579  1.00  0.00     0.005 C 
ENDBRANCH  30  31
ENDBRANCH   6  30
BRANCH   5  33
HETATM   33  O2  UNL     1      10.493  18.449   9.881  1.00  0.00    -0.394 OA
ATOM     34  H2  UNL     1      10.409  18.414   8.936  1.00  0.00     0.210 HD
ENDBRANCH   5  33
BRANCH  19  35
HETATM   35  C31 UNL     1       5.205  14.826  10.770  1.00  0.00     0.061 C 
BRANCH  35  36
HETATM   36  C32 UNL     1       4.302  13.727  11.285  1.00  0.00     0.168 C 
BRANCH  36  37
HETATM   37  O9  UNL     1       4.945  12.814  12.099  1.00  0.00    -0.401 OA
ATOM     38  H9  UNL     1       4.683  11.914  11.946  1.00  0.00     0.209 HD
ENDBRANCH  36  37
ENDBRANCH  35  36
ENDBRANCH  19  35
BRANCH   4  39
HETATM   39  C8  UNL     1       9.320  17.171   8.158  1.00  0.00     0.010 C 
HETATM   40  C9  UNL     1      10.402  16.765   7.226  1.00  0.00     0.006 C 
ENDBRANCH   4  39
BRANCH   1  41
HETATM   41  C4  UNL     1       7.653  13.753  10.019  1.00  0.00     0.049 C 
BRANCH  41  42
HETATM   42  C2  UNL     1       8.812  12.907   9.890  1.00  0.00    -0.092 C 
HETATM   43  C1  UNL     1       9.477  12.242  10.643  1.00  0.00     0.014 C 
HETATM   44  C3  UNL     1       9.222  12.719   8.384  1.00  0.00     0.042 C 
ENDBRANCH  41  42
ENDBRANCH   1  41
TORSDOF 14
ENDMDL
MODEL 4
REMARK VINA RESULT: -3.733670993     20.197     23.255
REMARK  14 active torsions:
REMARK  status: ('A' for Active; 'I' for Inactive)
REMARK    1  A    between atoms: C2_2  and  C4_4 
REMARK    2  A    between atoms: C4_4  and  C5_5 
REMARK    3  A    between atoms: C7_8  and  C8_9 
REMARK    4  A    between atoms: C10_11  and  O2_12 
REMARK    5  A    between atoms: C11_14  and  C12_15 
REMARK    6  A    between atoms: C12_15  and  C13_16 
REMARK    7  A    between atoms: C19_24  and  C20_25 
REMARK    8  A    between atoms: C20_25  and  C21_27 
REMARK    9  A    between atoms: C21_27  and  C22_28 
REMARK   10  A    between atoms: C23_30  and  C24_31 
REMARK   11  A    between atoms: C27_35  and  O8_36 
REMARK   12  A    between atoms: C30_40  and  C31_41 
REMARK   13  A    between atoms: C31_41  and  C32_42 
REMARK   14  A    between atoms: C32_42  and  O9_43 
ROOT
HETATM    1  C5  UNL     1      26.127  29.705  17.104  1.00  0.00     0.089 C 
HETATM    2  C6  UNL     1      27.047  28.626  16.656  1.00  0.00     0.142 C 
HETATM    3  O1  UNL     1      27.719  28.742  15.682  1.00  0.00    -0.297 OA
HETATM    4  C7  UNL     1      27.149  27.357  17.424  1.00  0.00     0.085 C 
HETATM    5  C10 UNL     1      27.897  27.393  18.707  1.00  0.00     0.140 C 
HETATM    6  C11 UNL     1      27.132  26.876  19.918  1.00  0.00     0.085 C 
HETATM    7  C15 UNL     1      27.384  27.776  21.106  1.00  0.00     0.144 C 
HETATM    8  O3  UNL     1      27.527  27.285  22.229  1.00  0.00    -0.297 OA
HETATM    9  C16 UNL     1      27.479  29.245  21.031  1.00  0.00     0.122 C 
HETATM   10  C17 UNL     1      28.875  29.666  21.506  1.00  0.00     0.026 C 
HETATM   11  C18 UNL     1      26.487  30.018  21.764  1.00  0.00     0.151 C 
HETATM   12  O4  UNL     1      25.562  29.564  22.338  1.00  0.00    -0.296 OA
HETATM   13  C19 UNL     1      26.673  31.524  21.782  1.00  0.00     0.155 C 
HETATM   14  C23 UNL     1      26.044  32.120  20.556  1.00  0.00     0.152 C 
HETATM   15  O7  UNL     1      26.828  31.955  19.465  1.00  0.00    -0.323 OA
HETATM   16  C27 UNL     1      27.668  32.317  18.583  1.00  0.00     0.184 C 
HETATM   17  C28 UNL     1      27.682  31.751  17.194  1.00  0.00    -0.001 C 
HETATM   18  C29 UNL     1      29.037  31.141  16.911  1.00  0.00     0.054 C 
HETATM   19  C30 UNL     1      26.484  31.083  16.691  1.00  0.00    -0.056 C 
ENDROOT
BRANCH  13  20
HETATM   20  C20 UNL     1      26.312  32.071  23.078  1.00  0.00     0.147 C 
HETATM   21  O5  UNL     1      27.202  32.639  23.742  1.00  0.00    -0.297 OA
BRANCH  20  22
HETATM   22  C21 UNL     1      24.969  32.027  23.702  1.00  0.00     0.148 C 
BRANCH  22  23
HETATM   23  C22 UNL     1      24.806  33.376  24.377  1.00  0.00     0.238 C 
HETATM   24  O6  UNL     1      23.807  33.680  24.986  1.00  0.00    -0.306 OA
ENDBRANCH  22  23
ENDBRANCH  20  22
ENDBRANCH  13  20
BRANCH  14  25
HETATM   25  C24 UNL     1      25.218  33.342  20.693  1.00  0.00     0.008 C 
HETATM   26  C25 UNL     1      24.273  33.625  19.556  1.00  0.00     0.012 C 
HETATM   27  C26 UNL     1      26.018  34.592  20.989  1.00  0.00     0.012 C 
ENDBRANCH  14  25
BRANCH  16  28
HETATM   28  O8  UNL     1      28.641  33.196  18.693  1.00  0.00    -0.341 OA
ATOM     29  H8  UNL     1      29.299  33.266  19.376  1.00  0.00     0.220 HD
ENDBRANCH  16  28
BRANCH   6  30
HETATM   30  C12 UNL     1      25.657  26.815  19.747  1.00  0.00     0.014 C 
BRANCH  30  31
HETATM   31  C13 UNL     1      25.145  25.402  19.751  1.00  0.00    -0.004 C 
HETATM   32  C14 UNL     1      26.142  24.357  20.164  1.00  0.00     0.005 C 
ENDBRANCH  30  31
ENDBRANCH   6  30
BRANCH   5  33
HETATM   33  O2  UNL     1      29.039  26.532  18.639  1.00  0.00    -0.394 OA
ATOM     34  H2  UNL     1      29.795  26.958  19.026  1.00  0.00     0.210 HD
ENDBRANCH   5  33
BRANCH  19  35
HETATM   35  C31 UNL     1      26.295  31.284  15.208  1.00  0.00     0.061 C 
BRANCH  35  36
HETATM   36  C32 UNL     1      26.237  32.734  14.778  1.00  0.00     0.168 C 
BRANCH  36  37
HETATM   37  O9  UNL     1      25.633  32.926  13.550  1.00  0.00    -0.401 OA
ATOM     38  H9  UNL     1      25.938  33.699  13.090  1.00  0.00     0.209 HD
ENDBRANCH  36  37
ENDBRANCH  35  36
ENDBRANCH  19  35
BRANCH   4  39
HETATM   39  C8  UNL     1      27.801  26.264  16.548  1.00  0.00     0.010 C 
HETATM   40  C9  UNL     1      27.004  25.016  16.455  1.00  0.00     0.006 C 
ENDBRANCH   4  39
BRANCH   1  41
HETATM   41  C4  UNL     1      24.825  29.274  16.434  1.00  0.00     0.049 C 
BRANCH  41  42
HETATM   42  C2  UNL     1      24.181  28.028  16.769  1.00  0.00    -0.092 C 
HETATM   43  C1  UNL     1      23.614  27.588  17.735  1.00  0.00     0.014 C 
HETATM   44  C3  UNL     1      24.102  27.070  15.524  1.00  0.00     0.042 C 
ENDBRANCH  41  42
ENDBRANCH   1  41
TORSDOF 14
ENDMDL
MODEL 5
REMARK VINA RESULT: -3.467942201     19.027     22.586
REMARK  14 active torsions:
REMARK  status: ('A' for Active; 'I' for Inactive)
REMARK    1  A    between atoms: C2_2  and  C4_4 
REMARK    2  A    between atoms: C4_4  and  C5_5 
REMARK    3  A    between atoms: C7_8  and  C8_9 
REMARK    4  A    between atoms: C10_11  and  O2_12 
REMARK    5  A    between atoms: C11_14  and  C12_15 
REMARK    6  A    between atoms: C12_15  and  C13_16 
REMARK    7  A    between atoms: C19_24  and  C20_25 
REMARK    8  A    between atoms: C20_25  and  C21_27 
REMARK    9  A    between atoms: C21_27  and  C22_28 
REMARK   10  A    between atoms: C23_30  and  C24_31 
REMARK   11  A    between atoms: C27_35  and  O8_36 
REMARK   12  A    between atoms: C30_40  and  C31_41 
REMARK   13  A    between atoms: C31_41  and  C32_42 
REMARK   14  A    between atoms: C32_42  and  O9_43 
ROOT
HETATM    1  C5  UNL     1      25.956  28.394  18.617  1.00  0.00     0.089 C 
HETATM    2  C6  UNL     1      26.740  27.204  18.186  1.00  0.00     0.142 C 
HETATM    3  O1  UNL     1      27.459  27.239  17.240  1.00  0.00    -0.297 OA
HETATM    4  C7  UNL     1      26.639  25.925  18.936  1.00  0.00     0.085 C 
HETATM    5  C10 UNL     1      27.334  25.846  20.247  1.00  0.00     0.140 C 
HETATM    6  C11 UNL     1      26.459  25.424  21.420  1.00  0.00     0.085 C 
HETATM    7  C15 UNL     1      26.782  26.268  22.631  1.00  0.00     0.144 C 
HETATM    8  O3  UNL     1      26.813  25.750  23.751  1.00  0.00    -0.297 OA
HETATM    9  C16 UNL     1      27.078  27.712  22.584  1.00  0.00     0.122 C 
HETATM   10  C17 UNL     1      28.498  27.934  23.118  1.00  0.00     0.026 C 
HETATM   11  C18 UNL     1      26.171  28.603  23.292  1.00  0.00     0.151 C 
HETATM   12  O4  UNL     1      25.171  28.273  23.823  1.00  0.00    -0.296 OA
HETATM   13  C19 UNL     1      26.558  30.070  23.341  1.00  0.00     0.155 C 
HETATM   14  C23 UNL     1      26.064  30.760  22.102  1.00  0.00     0.152 C 
HETATM   15  O7  UNL     1      26.861  30.502  21.038  1.00  0.00    -0.323 OA
HETATM   16  C27 UNL     1      27.776  30.756  20.195  1.00  0.00     0.184 C 
HETATM   17  C28 UNL     1      27.768  30.209  18.798  1.00  0.00    -0.001 C 
HETATM   18  C29 UNL     1      29.039  29.424  18.556  1.00  0.00     0.054 C 
HETATM   19  C30 UNL     1      26.512  29.715  18.240  1.00  0.00    -0.056 C 
ENDROOT
BRANCH  13  20
HETATM   20  C20 UNL     1      26.223  30.647  24.631  1.00  0.00     0.147 C 
HETATM   21  O5  UNL     1      25.016  30.735  24.937  1.00  0.00    -0.297 OA
BRANCH  20  22
HETATM   22  C21 UNL     1      27.184  31.150  25.641  1.00  0.00     0.148 C 
BRANCH  22  23
HETATM   23  C22 UNL     1      27.812  29.904  26.237  1.00  0.00     0.238 C 
HETATM   24  O6  UNL     1      27.181  29.114  26.900  1.00  0.00    -0.306 OA
ENDBRANCH  22  23
ENDBRANCH  20  22
ENDBRANCH  13  20
BRANCH  14  25
HETATM   25  C24 UNL     1      25.406  32.080  22.228  1.00  0.00     0.008 C 
HETATM   26  C25 UNL     1      24.526  32.486  21.076  1.00  0.00     0.012 C 
HETATM   27  C26 UNL     1      26.360  33.213  22.540  1.00  0.00     0.012 C 
ENDBRANCH  14  25
BRANCH  16  28
HETATM   28  O8  UNL     1      28.854  31.494  20.356  1.00  0.00    -0.341 OA
ATOM     29  H8  UNL     1      29.644  31.508  19.828  1.00  0.00     0.220 HD
ENDBRANCH  16  28
BRANCH   6  30
HETATM   30  C12 UNL     1      24.997  25.565  21.193  1.00  0.00     0.014 C 
BRANCH  30  31
HETATM   31  C13 UNL     1      24.261  24.275  21.425  1.00  0.00    -0.004 C 
HETATM   32  C14 UNL     1      22.777  24.332  21.200  1.00  0.00     0.005 C 
ENDBRANCH  30  31
ENDBRANCH   6  30
BRANCH   5  33
HETATM   33  O2  UNL     1      28.351  24.839  20.208  1.00  0.00    -0.394 OA
ATOM     34  H2  UNL     1      28.212  24.205  20.902  1.00  0.00     0.210 HD
ENDBRANCH   5  33
BRANCH  19  35
HETATM   35  C31 UNL     1      26.411  29.956  16.754  1.00  0.00     0.061 C 
BRANCH  35  36
HETATM   36  C32 UNL     1      25.966  31.353  16.379  1.00  0.00     0.168 C 
BRANCH  36  37
HETATM   37  O9  UNL     1      24.613  31.573  16.557  1.00  0.00    -0.401 OA
ATOM     38  H9  UNL     1      24.067  30.853  16.264  1.00  0.00     0.209 HD
ENDBRANCH  36  37
ENDBRANCH  35  36
ENDBRANCH  19  35
BRANCH   4  39
HETATM   39  C8  UNL     1      27.171  24.764  18.068  1.00  0.00     0.010 C 
HETATM   40  C9  UNL     1      26.345  23.534  18.140  1.00  0.00     0.006 C 
ENDBRANCH   4  39
BRANCH   1  41
HETATM   41  C4  UNL     1      24.636  28.150  17.892  1.00  0.00     0.049 C 
BRANCH  41  42
HETATM   42  C2  UNL     1      24.176  26.818  17.588  1.00  0.00    -0.092 C 
HETATM   43  C1  UNL     1      23.568  25.964  18.180  1.00  0.00     0.014 C 
HETATM   44  C3  UNL     1      24.432  26.452  16.080  1.00  0.00     0.042 C 
ENDBRANCH  41  42
ENDBRANCH   1  41
TORSDOF 14
ENDMDL
