MODEL 1
REMARK VINA RESULT: -8.198736949      0.000      0.000
REMARK  12 active torsions:
REMARK  status: ('A' for Active; 'I' for Inactive)
REMARK    1  A    between atoms: C8_8  and  C9_9 
REMARK    2  A    between atoms: C9_9  and  C10_10 
REMARK       I    between atoms: C10_10  and  N1_12 
REMARK    3  A    between atoms: N2_15  and  C13_16 
REMARK    4  A    between atoms: C13_16  and  C14_17 
REMARK    5  A    between atoms: C14_17  and  O2_18 
REMARK    6  A    between atoms: C23_30  and  S1_31 
REMARK    7  A    between atoms: S1_31  and  S2_32 
REMARK    8  A    between atoms: S2_32  and  C24_33 
REMARK    9  A    between atoms: C24_33  and  C25_34 
REMARK   10  A    between atoms: C25_34  and  N3_35 
REMARK   11  A    between atoms: N3_35  and  C26_37 
REMARK   12  A    between atoms: C26_37  and  C27_38 
ROOT
HETATM    1  C1  UNL     1      14.592  23.423  18.013  1.00  0.00     0.017 C 
HETATM    2  C2  UNL     1      15.562  22.531  17.226  1.00  0.00    -0.019 C 
HETATM    3  C3  UNL     1      15.323  21.125  17.662  1.00  0.00     0.011 C 
HETATM    4  C4  UNL     1      16.011  20.694  18.902  1.00  0.00     0.007 C 
HETATM    5  C5  UNL     1      17.338  21.308  19.156  1.00  0.00     0.002 C 
HETATM    6  C6  UNL     1      17.299  22.047  20.458  1.00  0.00     0.006 C 
HETATM    7  C7  UNL     1      18.665  22.471  20.946  1.00  0.00     0.013 C 
HETATM    8  C8  UNL     1      19.454  23.172  19.882  1.00  0.00     0.065 C 
HETATM    9  C17 UNL     1      19.135  22.782  18.498  1.00  0.00     0.141 C 
HETATM   10  O3  UNL     1      20.029  23.081  17.681  1.00  0.00    -0.297 OA
HETATM   11  C18 UNL     1      17.916  22.102  18.015  1.00  0.00     0.032 C 
HETATM   12  C19 UNL     1      18.348  21.066  16.965  1.00  0.00     0.025 C 
HETATM   13  C20 UNL     1      16.962  23.028  17.352  1.00  0.00     0.080 C 
HETATM   14  C21 UNL     1      17.336  23.424  15.994  1.00  0.00     0.134 C 
HETATM   15  O4  UNL     1      18.415  23.597  15.432  1.00  0.00    -0.297 OA
HETATM   16  C22 UNL     1      16.077  23.644  15.188  1.00  0.00     0.095 C 
HETATM   17  C23 UNL     1      15.166  22.587  15.759  1.00  0.00     0.074 C 
ENDROOT
BRANCH   8  18
HETATM   18  C9  UNL     1      19.473  24.677  20.045  1.00  0.00     0.115 C 
BRANCH  18  19
HETATM   19  C10 UNL     1      20.831  25.232  19.930  1.00  0.00     0.220 C 
HETATM   20  O1  UNL     1      21.612  25.051  20.923  1.00  0.00    -0.273 OA
HETATM   21  N1  UNL     1      21.343  25.946  18.822  1.00  0.00    -0.349 N 
HETATM   22  C11 UNL     1      22.726  26.405  18.883  1.00  0.00     0.156 C 
HETATM   23  C16 UNL     1      20.474  26.189  17.692  1.00  0.00     0.156 C 
HETATM   24  C12 UNL     1      23.098  27.303  17.728  1.00  0.00     0.292 C 
HETATM   25  N2  UNL     1      22.522  26.698  16.523  1.00  0.00     0.093 N 
HETATM   26  C15 UNL     1      21.102  26.994  16.596  1.00  0.00     0.292 C 
BRANCH  25  27
HETATM   27  C13 UNL     1      23.176  27.304  15.408  1.00  0.00     0.298 C 
BRANCH  27  28
HETATM   28  C14 UNL     1      24.654  27.519  15.608  1.00  0.00     0.194 C 
BRANCH  28  29
HETATM   29  O2  UNL     1      25.047  28.782  15.155  1.00  0.00    -0.399 OA
ATOM     30  H2  UNL     1      25.949  28.966  15.392  1.00  0.00     0.209 HD
ENDBRANCH  28  29
ENDBRANCH  27  28
ENDBRANCH  25  27
ENDBRANCH  18  19
ENDBRANCH   8  18
BRANCH  17  31
HETATM   31  S1  UNL     1      13.470  23.162  15.524  1.00  0.00    -0.091 SA
BRANCH  31  32
HETATM   32  S2  UNL     1      12.333  21.908  14.290  1.00  0.00    -0.096 SA
BRANCH  32  33
HETATM   33  C24 UNL     1      11.361  20.740  15.225  1.00  0.00     0.105 C 
BRANCH  33  34
HETATM   34  C25 UNL     1      12.171  19.880  16.172  1.00  0.00     0.125 C 
BRANCH  34  35
HETATM   35  N3  UNL     1      11.697  20.031  17.509  1.00  0.00    -0.413 N 
ATOM     36  H3  UNL     1      11.748  20.920  18.007  1.00  0.00     0.153 HD
BRANCH  35  37
HETATM   37  C26 UNL     1      11.144  18.848  18.107  1.00  0.00     0.206 C 
BRANCH  37  38
HETATM   38  C27 UNL     1      11.817  18.395  19.336  1.00  0.00     0.213 C 
HETATM   39  O5  UNL     1      11.276  18.492  20.411  1.00  0.00    -0.283 OA
HETATM   40  S3  UNL     1      13.453  17.691  19.256  1.00  0.00    -0.010 SA
ENDBRANCH  37  38
ENDBRANCH  35  37
ENDBRANCH  34  35
ENDBRANCH  33  34
ENDBRANCH  32  33
ENDBRANCH  31  32
ENDBRANCH  17  31
TORSDOF 12
ENDMDL
MODEL 2
REMARK VINA RESULT: -8.180498696      0.975      1.085
REMARK  12 active torsions:
REMARK  status: ('A' for Active; 'I' for Inactive)
REMARK    1  A    between atoms: C8_8  and  C9_9 
REMARK    2  A    between atoms: C9_9  and  C10_10 
REMARK       I    between atoms: C10_10  and  N1_12 
REMARK    3  A    between atoms: N2_15  and  C13_16 
REMARK    4  A    between atoms: C13_16  and  C14_17 
REMARK    5  A    between atoms: C14_17  and  O2_18 
REMARK    6  A    between atoms: C23_30  and  S1_31 
REMARK    7  A    between atoms: S1_31  and  S2_32 
REMARK    8  A    between atoms: S2_32  and  C24_33 
REMARK    9  A    between atoms: C24_33  and  C25_34 
REMARK   10  A    between atoms: C25_34  and  N3_35 
REMARK   11  A    between atoms: N3_35  and  C26_37 
REMARK   12  A    between atoms: C26_37  and  C27_38 
ROOT
HETATM    1  C1  UNL     1      14.694  23.372  18.096  1.00  0.00     0.017 C 
HETATM    2  C2  UNL     1      15.671  22.531  17.264  1.00  0.00    -0.019 C 
HETATM    3  C3  UNL     1      15.447  21.102  17.629  1.00  0.00     0.011 C 
HETATM    4  C4  UNL     1      16.143  20.616  18.844  1.00  0.00     0.007 C 
HETATM    5  C5  UNL     1      17.464  21.230  19.126  1.00  0.00     0.002 C 
HETATM    6  C6  UNL     1      17.420  21.901  20.464  1.00  0.00     0.006 C 
HETATM    7  C7  UNL     1      18.783  22.314  20.971  1.00  0.00     0.013 C 
HETATM    8  C8  UNL     1      19.563  23.076  19.942  1.00  0.00     0.065 C 
HETATM    9  C17 UNL     1      19.244  22.753  18.541  1.00  0.00     0.141 C 
HETATM   10  O3  UNL     1      20.134  23.102  17.738  1.00  0.00    -0.297 OA
HETATM   11  C18 UNL     1      18.032  22.086  18.026  1.00  0.00     0.032 C 
HETATM   12  C19 UNL     1      18.471  21.109  16.924  1.00  0.00     0.025 C 
HETATM   13  C20 UNL     1      17.066  23.035  17.413  1.00  0.00     0.080 C 
HETATM   14  C21 UNL     1      17.434  23.503  16.075  1.00  0.00     0.134 C 
HETATM   15  O4  UNL     1      18.509  23.714  15.521  1.00  0.00    -0.297 OA
HETATM   16  C22 UNL     1      16.171  23.751  15.283  1.00  0.00     0.095 C 
HETATM   17  C23 UNL     1      15.271  22.656  15.802  1.00  0.00     0.074 C 
ENDROOT
BRANCH   8  18
HETATM   18  C9  UNL     1      19.567  24.570  20.181  1.00  0.00     0.115 C 
BRANCH  18  19
HETATM   19  C10 UNL     1      20.857  25.186  19.835  1.00  0.00     0.220 C 
HETATM   20  O1  UNL     1      21.824  24.990  20.645  1.00  0.00    -0.273 OA
HETATM   21  N1  UNL     1      21.120  25.973  18.689  1.00  0.00    -0.349 N 
HETATM   22  C11 UNL     1      22.472  26.486  18.505  1.00  0.00     0.156 C 
HETATM   23  C16 UNL     1      20.038  26.235  17.766  1.00  0.00     0.156 C 
HETATM   24  C12 UNL     1      22.582  27.453  17.352  1.00  0.00     0.292 C 
HETATM   25  N2  UNL     1      21.799  26.883  16.250  1.00  0.00     0.093 N 
HETATM   26  C15 UNL     1      20.413  27.117  16.615  1.00  0.00     0.292 C 
BRANCH  25  27
HETATM   27  C13 UNL     1      22.202  27.570  15.064  1.00  0.00     0.298 C 
BRANCH  27  28
HETATM   28  C14 UNL     1      21.161  27.572  13.975  1.00  0.00     0.194 C 
BRANCH  28  29
HETATM   29  O2  UNL     1      20.041  28.321  14.350  1.00  0.00    -0.399 OA
ATOM     30  H2  UNL     1      19.445  27.804  14.880  1.00  0.00     0.209 HD
ENDBRANCH  28  29
ENDBRANCH  27  28
ENDBRANCH  25  27
ENDBRANCH  18  19
ENDBRANCH   8  18
BRANCH  17  31
HETATM   31  S1  UNL     1      13.569  23.225  15.599  1.00  0.00    -0.091 SA
BRANCH  31  32
HETATM   32  S2  UNL     1      12.432  22.004  14.334  1.00  0.00    -0.096 SA
BRANCH  32  33
HETATM   33  C24 UNL     1      11.442  20.828  15.240  1.00  0.00     0.105 C 
BRANCH  33  34
HETATM   34  C25 UNL     1      12.239  19.924  16.156  1.00  0.00     0.125 C 
BRANCH  34  35
HETATM   35  N3  UNL     1      11.798  20.070  17.505  1.00  0.00    -0.413 N 
ATOM     36  H3  UNL     1      11.844  20.961  17.999  1.00  0.00     0.153 HD
BRANCH  35  37
HETATM   37  C26 UNL     1      11.284  18.878  18.120  1.00  0.00     0.206 C 
BRANCH  37  38
HETATM   38  C27 UNL     1      11.964  18.472  19.361  1.00  0.00     0.213 C 
HETATM   39  O5  UNL     1      11.414  18.570  20.431  1.00  0.00    -0.283 OA
HETATM   40  S3  UNL     1      13.623  17.821  19.303  1.00  0.00    -0.010 SA
ENDBRANCH  37  38
ENDBRANCH  35  37
ENDBRANCH  34  35
ENDBRANCH  33  34
ENDBRANCH  32  33
ENDBRANCH  31  32
ENDBRANCH  17  31
TORSDOF 12
ENDMDL
MODEL 3
REMARK VINA RESULT: -7.880681233      3.653     10.507
REMARK  12 active torsions:
REMARK  status: ('A' for Active; 'I' for Inactive)
REMARK    1  A    between atoms: C8_8  and  C9_9 
REMARK    2  A    between atoms: C9_9  and  C10_10 
REMARK       I    between atoms: C10_10  and  N1_12 
REMARK    3  A    between atoms: N2_15  and  C13_16 
REMARK    4  A    between atoms: C13_16  and  C14_17 
REMARK    5  A    between atoms: C14_17  and  O2_18 
REMARK    6  A    between atoms: C23_30  and  S1_31 
REMARK    7  A    between atoms: S1_31  and  S2_32 
REMARK    8  A    between atoms: S2_32  and  C24_33 
REMARK    9  A    between atoms: C24_33  and  C25_34 
REMARK   10  A    between atoms: C25_34  and  N3_35 
REMARK   11  A    between atoms: N3_35  and  C26_37 
REMARK   12  A    between atoms: C26_37  and  C27_38 
ROOT
HETATM    1  C1  UNL     1      20.064  23.810  15.972  1.00  0.00     0.017 C 
HETATM    2  C2  UNL     1      18.955  24.679  16.579  1.00  0.00    -0.019 C 
HETATM    3  C3  UNL     1      19.517  25.322  17.803  1.00  0.00     0.011 C 
HETATM    4  C4  UNL     1      19.490  24.512  19.043  1.00  0.00     0.007 C 
HETATM    5  C5  UNL     1      18.347  23.576  19.185  1.00  0.00     0.002 C 
HETATM    6  C6  UNL     1      18.867  22.177  19.305  1.00  0.00     0.006 C 
HETATM    7  C7  UNL     1      17.812  21.182  19.731  1.00  0.00     0.013 C 
HETATM    8  C8  UNL     1      16.565  21.290  18.907  1.00  0.00     0.065 C 
HETATM    9  C17 UNL     1      16.291  22.625  18.349  1.00  0.00     0.141 C 
HETATM   10  O3  UNL     1      15.102  22.782  18.002  1.00  0.00    -0.297 OA
HETATM   11  C18 UNL     1      17.245  23.739  18.173  1.00  0.00     0.032 C 
HETATM   12  C19 UNL     1      16.518  25.038  18.556  1.00  0.00     0.025 C 
HETATM   13  C20 UNL     1      17.704  23.891  16.768  1.00  0.00     0.080 C 
HETATM   14  C21 UNL     1      16.733  24.519  15.870  1.00  0.00     0.134 C 
HETATM   15  O4  UNL     1      15.506  24.521  15.824  1.00  0.00    -0.297 OA
HETATM   16  C22 UNL     1      17.481  25.305  14.820  1.00  0.00     0.095 C 
HETATM   17  C23 UNL     1      18.663  25.813  15.609  1.00  0.00     0.074 C 
ENDROOT
BRANCH   8  18
HETATM   18  C9  UNL     1      16.450  20.212  17.851  1.00  0.00     0.115 C 
BRANCH  18  19
HETATM   19  C10 UNL     1      15.113  20.170  17.240  1.00  0.00     0.220 C 
HETATM   20  O1  UNL     1      15.002  20.658  16.066  1.00  0.00    -0.273 OA
HETATM   21  N1  UNL     1      13.945  19.640  17.836  1.00  0.00    -0.349 N 
HETATM   22  C11 UNL     1      12.708  19.670  17.065  1.00  0.00     0.156 C 
HETATM   23  C16 UNL     1      14.034  19.102  19.176  1.00  0.00     0.156 C 
HETATM   24  C12 UNL     1      11.504  19.245  17.870  1.00  0.00     0.292 C 
HETATM   25  N2  UNL     1      11.914  18.076  18.654  1.00  0.00     0.093 N 
HETATM   26  C15 UNL     1      12.730  18.612  19.728  1.00  0.00     0.292 C 
BRANCH  25  27
HETATM   27  C13 UNL     1      10.715  17.445  19.107  1.00  0.00     0.298 C 
BRANCH  27  28
HETATM   28  C14 UNL     1      10.265  16.296  18.243  1.00  0.00     0.194 C 
BRANCH  28  29
HETATM   29  O2  UNL     1       8.959  15.907  18.559  1.00  0.00    -0.399 OA
ATOM     30  H2  UNL     1       8.566  16.504  19.186  1.00  0.00     0.209 HD
ENDBRANCH  28  29
ENDBRANCH  27  28
ENDBRANCH  25  27
ENDBRANCH  18  19
ENDBRANCH   8  18
BRANCH  17  31
HETATM   31  S1  UNL     1      20.011  26.081  14.436  1.00  0.00    -0.091 SA
BRANCH  31  32
HETATM   32  S2  UNL     1      20.902  27.967  14.615  1.00  0.00    -0.096 SA
BRANCH  32  33
HETATM   33  C24 UNL     1      22.066  28.039  15.966  1.00  0.00     0.105 C 
BRANCH  33  34
HETATM   34  C25 UNL     1      22.528  26.684  16.457  1.00  0.00     0.125 C 
BRANCH  34  35
HETATM   35  N3  UNL     1      23.774  26.336  15.855  1.00  0.00    -0.413 N 
ATOM     36  H3  UNL     1      23.934  25.426  15.422  1.00  0.00     0.153 HD
BRANCH  35  37
HETATM   37  C26 UNL     1      24.787  27.353  15.899  1.00  0.00     0.206 C 
BRANCH  37  38
HETATM   38  C27 UNL     1      26.160  26.878  15.659  1.00  0.00     0.213 C 
HETATM   39  O5  UNL     1      26.466  25.730  15.873  1.00  0.00    -0.283 OA
HETATM   40  S3  UNL     1      27.401  27.998  15.041  1.00  0.00    -0.010 SA
ENDBRANCH  37  38
ENDBRANCH  35  37
ENDBRANCH  34  35
ENDBRANCH  33  34
ENDBRANCH  32  33
ENDBRANCH  31  32
ENDBRANCH  17  31
TORSDOF 12
ENDMDL
MODEL 4
REMARK VINA RESULT: -7.830813651      3.585      9.996
REMARK  12 active torsions:
REMARK  status: ('A' for Active; 'I' for Inactive)
REMARK    1  A    between atoms: C8_8  and  C9_9 
REMARK    2  A    between atoms: C9_9  and  C10_10 
REMARK       I    between atoms: C10_10  and  N1_12 
REMARK    3  A    between atoms: N2_15  and  C13_16 
REMARK    4  A    between atoms: C13_16  and  C14_17 
REMARK    5  A    between atoms: C14_17  and  O2_18 
REMARK    6  A    between atoms: C23_30  and  S1_31 
REMARK    7  A    between atoms: S1_31  and  S2_32 
REMARK    8  A    between atoms: S2_32  and  C24_33 
REMARK    9  A    between atoms: C24_33  and  C25_34 
REMARK   10  A    between atoms: C25_34  and  N3_35 
REMARK   11  A    between atoms: N3_35  and  C26_37 
REMARK   12  A    between atoms: C26_37  and  C27_38 
ROOT
HETATM    1  C1  UNL     1      20.393  24.163  15.903  1.00  0.00     0.017 C 
HETATM    2  C2  UNL     1      19.241  24.972  16.515  1.00  0.00    -0.019 C 
HETATM    3  C3  UNL     1      19.768  25.632  17.744  1.00  0.00     0.011 C 
HETATM    4  C4  UNL     1      19.780  24.812  18.978  1.00  0.00     0.007 C 
HETATM    5  C5  UNL     1      18.684  23.820  19.111  1.00  0.00     0.002 C 
HETATM    6  C6  UNL     1      19.273  22.447  19.221  1.00  0.00     0.006 C 
HETATM    7  C7  UNL     1      18.268  21.397  19.637  1.00  0.00     0.013 C 
HETATM    8  C8  UNL     1      17.019  21.450  18.811  1.00  0.00     0.065 C 
HETATM    9  C17 UNL     1      16.679  22.774  18.263  1.00  0.00     0.141 C 
HETATM   10  O3  UNL     1      15.485  22.874  17.915  1.00  0.00    -0.297 OA
HETATM   11  C18 UNL     1      17.577  23.935  18.098  1.00  0.00     0.032 C 
HETATM   12  C19 UNL     1      16.785  25.194  18.490  1.00  0.00     0.025 C 
HETATM   13  C20 UNL     1      18.031  24.120  16.695  1.00  0.00     0.080 C 
HETATM   14  C21 UNL     1      17.031  24.706  15.800  1.00  0.00     0.134 C 
HETATM   15  O4  UNL     1      15.806  24.648  15.751  1.00  0.00    -0.297 OA
HETATM   16  C22 UNL     1      17.741  25.537  14.757  1.00  0.00     0.095 C 
HETATM   17  C23 UNL     1      18.895  26.097  15.552  1.00  0.00     0.074 C 
ENDROOT
BRANCH   8  18
HETATM   18  C9  UNL     1      16.959  20.375  17.747  1.00  0.00     0.115 C 
BRANCH  18  19
HETATM   19  C10 UNL     1      15.676  20.374  17.028  1.00  0.00     0.220 C 
HETATM   20  O1  UNL     1      15.684  20.833  15.838  1.00  0.00    -0.273 OA
HETATM   21  N1  UNL     1      14.440  19.909  17.537  1.00  0.00    -0.349 N 
HETATM   22  C11 UNL     1      13.274  19.971  16.665  1.00  0.00     0.156 C 
HETATM   23  C16 UNL     1      14.395  19.405  18.892  1.00  0.00     0.156 C 
HETATM   24  C12 UNL     1      11.990  19.619  17.376  1.00  0.00     0.292 C 
HETATM   25  N2  UNL     1      12.282  18.455  18.219  1.00  0.00     0.093 N 
HETATM   26  C15 UNL     1      13.030  18.986  19.345  1.00  0.00     0.292 C 
BRANCH  25  27
HETATM   27  C13 UNL     1      11.023  17.888  18.585  1.00  0.00     0.298 C 
BRANCH  27  28
HETATM   28  C14 UNL     1      10.846  16.458  18.148  1.00  0.00     0.194 C 
BRANCH  28  29
HETATM   29  O2  UNL     1      11.774  16.113  17.160  1.00  0.00    -0.399 OA
ATOM     30  H2  UNL     1      11.553  15.282  16.755  1.00  0.00     0.209 HD
ENDBRANCH  28  29
ENDBRANCH  27  28
ENDBRANCH  25  27
ENDBRANCH  18  19
ENDBRANCH   8  18
BRANCH  17  31
HETATM   31  S1  UNL     1      20.229  26.440  14.384  1.00  0.00    -0.091 SA
BRANCH  31  32
HETATM   32  S2  UNL     1      21.680  27.745  15.144  1.00  0.00    -0.096 SA
BRANCH  32  33
HETATM   33  C24 UNL     1      23.028  26.875  15.927  1.00  0.00     0.105 C 
BRANCH  33  34
HETATM   34  C25 UNL     1      23.146  27.129  17.415  1.00  0.00     0.125 C 
BRANCH  34  35
HETATM   35  N3  UNL     1      23.584  25.949  18.086  1.00  0.00    -0.413 N 
ATOM     36  H3  UNL     1      22.961  25.161  18.264  1.00  0.00     0.153 HD
BRANCH  35  37
HETATM   37  C26 UNL     1      24.962  25.945  18.495  1.00  0.00     0.206 C 
BRANCH  37  38
HETATM   38  C27 UNL     1      25.814  24.959  17.808  1.00  0.00     0.213 C 
HETATM   39  O5  UNL     1      26.189  25.145  16.676  1.00  0.00    -0.283 OA
HETATM   40  S3  UNL     1      26.311  23.466  18.646  1.00  0.00    -0.010 SA
ENDBRANCH  37  38
ENDBRANCH  35  37
ENDBRANCH  34  35
ENDBRANCH  33  34
ENDBRANCH  32  33
ENDBRANCH  31  32
ENDBRANCH  17  31
TORSDOF 12
ENDMDL
MODEL 5
REMARK VINA RESULT: -7.829090732      3.257     10.446
REMARK  12 active torsions:
REMARK  status: ('A' for Active; 'I' for Inactive)
REMARK    1  A    between atoms: C8_8  and  C9_9 
REMARK    2  A    between atoms: C9_9  and  C10_10 
REMARK       I    between atoms: C10_10  and  N1_12 
REMARK    3  A    between atoms: N2_15  and  C13_16 
REMARK    4  A    between atoms: C13_16  and  C14_17 
REMARK    5  A    between atoms: C14_17  and  O2_18 
REMARK    6  A    between atoms: C23_30  and  S1_31 
REMARK    7  A    between atoms: S1_31  and  S2_32 
REMARK    8  A    between atoms: S2_32  and  C24_33 
REMARK    9  A    between atoms: C24_33  and  C25_34 
REMARK   10  A    between atoms: C25_34  and  N3_35 
REMARK   11  A    between atoms: N3_35  and  C26_37 
REMARK   12  A    between atoms: C26_37  and  C27_38 
ROOT
HETATM    1  C1  UNL     1      17.463  25.255  17.582  1.00  0.00     0.017 C 
HETATM    2  C2  UNL     1      18.245  23.991  17.198  1.00  0.00    -0.019 C 
HETATM    3  C3  UNL     1      18.449  24.027  15.722  1.00  0.00     0.011 C 
HETATM    4  C4  UNL     1      17.330  23.526  14.890  1.00  0.00     0.007 C 
HETATM    5  C5  UNL     1      16.526  22.424  15.475  1.00  0.00     0.002 C 
HETATM    6  C6  UNL     1      15.101  22.866  15.602  1.00  0.00     0.006 C 
HETATM    7  C7  UNL     1      14.151  21.735  15.924  1.00  0.00     0.013 C 
HETATM    8  C8  UNL     1      14.627  20.907  17.079  1.00  0.00     0.065 C 
HETATM    9  C17 UNL     1      16.087  20.862  17.265  1.00  0.00     0.141 C 
HETATM   10  O3  UNL     1      16.468  19.902  17.964  1.00  0.00    -0.297 OA
HETATM   11  C18 UNL     1      17.091  21.802  16.725  1.00  0.00     0.032 C 
HETATM   12  C19 UNL     1      18.302  20.974  16.265  1.00  0.00     0.025 C 
HETATM   13  C20 UNL     1      17.581  22.771  17.739  1.00  0.00     0.080 C 
HETATM   14  C21 UNL     1      18.541  22.222  18.697  1.00  0.00     0.134 C 
HETATM   15  O4  UNL     1      18.694  21.109  19.195  1.00  0.00    -0.297 OA
HETATM   16  C22 UNL     1      19.504  23.314  19.101  1.00  0.00     0.095 C 
HETATM   17  C23 UNL     1      19.632  24.092  17.814  1.00  0.00     0.074 C 
ENDROOT
BRANCH   8  18
HETATM   18  C9  UNL     1      13.910  21.220  18.375  1.00  0.00     0.115 C 
BRANCH  18  19
HETATM   19  C10 UNL     1      13.599  20.006  19.146  1.00  0.00     0.220 C 
HETATM   20  O1  UNL     1      14.163  19.889  20.285  1.00  0.00    -0.273 OA
HETATM   21  N1  UNL     1      12.735  18.964  18.739  1.00  0.00    -0.349 N 
HETATM   22  C11 UNL     1      12.535  17.844  19.652  1.00  0.00     0.156 C 
HETATM   23  C16 UNL     1      12.100  19.056  17.443  1.00  0.00     0.156 C 
HETATM   24  C12 UNL     1      11.740  16.719  19.035  1.00  0.00     0.292 C 
HETATM   25  N2  UNL     1      10.636  17.340  18.296  1.00  0.00     0.093 N 
HETATM   26  C15 UNL     1      11.245  17.877  17.093  1.00  0.00     0.292 C 
BRANCH  25  27
HETATM   27  C13 UNL     1       9.682  16.307  18.043  1.00  0.00     0.298 C 
BRANCH  27  28
HETATM   28  C14 UNL     1       9.694  15.797  16.625  1.00  0.00     0.194 C 
BRANCH  28  29
HETATM   29  O2  UNL     1       8.474  16.046  15.989  1.00  0.00    -0.399 OA
ATOM     30  H2  UNL     1       8.471  15.699  15.104  1.00  0.00     0.209 HD
ENDBRANCH  28  29
ENDBRANCH  27  28
ENDBRANCH  25  27
ENDBRANCH  18  19
ENDBRANCH   8  18
BRANCH  17  31
HETATM   31  S1  UNL     1      20.067  25.788  18.259  1.00  0.00    -0.091 SA
BRANCH  31  32
HETATM   32  S2  UNL     1      22.098  26.033  18.703  1.00  0.00    -0.096 SA
BRANCH  32  33
HETATM   33  C24 UNL     1      22.921  27.105  17.538  1.00  0.00     0.105 C 
BRANCH  33  34
HETATM   34  C25 UNL     1      23.416  26.401  16.292  1.00  0.00     0.125 C 
BRANCH  34  35
HETATM   35  N3  UNL     1      22.320  26.069  15.441  1.00  0.00    -0.413 N 
ATOM     36  H3  UNL     1      21.869  25.155  15.466  1.00  0.00     0.153 HD
BRANCH  35  37
HETATM   37  C26 UNL     1      21.895  27.110  14.546  1.00  0.00     0.206 C 
BRANCH  37  38
HETATM   38  C27 UNL     1      20.596  27.722  14.873  1.00  0.00     0.213 C 
HETATM   39  O5  UNL     1      20.528  28.681  15.603  1.00  0.00    -0.283 OA
HETATM   40  S3  UNL     1      19.092  27.053  14.188  1.00  0.00    -0.010 SA
ENDBRANCH  37  38
ENDBRANCH  35  37
ENDBRANCH  34  35
ENDBRANCH  33  34
ENDBRANCH  32  33
ENDBRANCH  31  32
ENDBRANCH  17  31
TORSDOF 12
ENDMDL
