MODEL 1
REMARK VINA RESULT: -8.813416174      0.000      0.000
REMARK  14 active torsions:
REMARK  status: ('A' for Active; 'I' for Inactive)
REMARK    1  A    between atoms: S1_2  and  N1_4 
REMARK    2  A    between atoms: S1_2  and  O4_23 
REMARK    3  A    between atoms: N1_4  and  C1_6 
REMARK    4  A    between atoms: C1_6  and  N2_8 
REMARK    5  A    between atoms: N2_8  and  C2_10 
REMARK    6  A    between atoms: C2_10  and  C3_11 
REMARK    7  A    between atoms: C3_11  and  C4_16 
REMARK    8  A    between atoms: N3_12  and  O3_14 
REMARK    9  A    between atoms: O4_23  and  C11_24 
REMARK   10  A    between atoms: C11_24  and  C12_25 
REMARK   11  A    between atoms: C13_27  and  C14_28 
REMARK   12  A    between atoms: C14_28  and  O6_29 
REMARK   13  A    between atoms: C15_31  and  O7_32 
REMARK   14  A    between atoms: C16_34  and  O8_35 
ROOT
HETATM    1  N1  UNL     1       7.817   1.802  14.772  1.00  0.00    -0.237 N 
ATOM      2  H1  UNL     1       7.890   2.626  14.176  1.00  0.00     0.183 HD
ENDROOT
BRANCH   1   3
HETATM    3  S1  UNL     1       6.340   1.503  15.574  1.00  0.00     0.363 S 
HETATM    4  O1  UNL     1       5.578   0.430  14.871  1.00  0.00    -0.175 OA
HETATM    5  O2  UNL     1       6.629   1.061  17.008  1.00  0.00    -0.175 OA
BRANCH   3   6
HETATM    6  O4  UNL     1       5.468   2.956  15.652  1.00  0.00    -0.257 OA
BRANCH   6   7
HETATM    7  C11 UNL     1       5.559   3.390  16.973  1.00  0.00     0.226 C 
BRANCH   7   8
HETATM    8  C12 UNL     1       5.873   4.885  16.931  1.00  0.00     0.178 C 
HETATM    9  O5  UNL     1       5.186   5.497  17.949  1.00  0.00    -0.371 OA
HETATM   10  C13 UNL     1       6.062   6.356  18.600  1.00  0.00     0.177 C 
HETATM   11  C15 UNL     1       7.417   5.641  18.538  1.00  0.00     0.180 C 
HETATM   12  C16 UNL     1       7.343   5.062  17.139  1.00  0.00     0.180 C 
BRANCH  10  13
HETATM   13  C14 UNL     1       5.648   6.640  20.006  1.00  0.00     0.198 C 
BRANCH  13  14
HETATM   14  O6  UNL     1       6.467   5.958  20.873  1.00  0.00    -0.398 OA
ATOM     15  H6  UNL     1       6.252   6.197  21.768  1.00  0.00     0.209 HD
ENDBRANCH  13  14
ENDBRANCH  10  13
BRANCH  11  16
HETATM   16  O7  UNL     1       8.469   6.510  18.703  1.00  0.00    -0.390 OA
ATOM     17  H7  UNL     1       9.229   6.084  19.083  1.00  0.00     0.210 HD
ENDBRANCH  11  16
BRANCH  12  18
HETATM   18  O8  UNL     1       8.051   3.872  17.024  1.00  0.00    -0.390 OA
ATOM     19  H8  UNL     1       8.717   3.903  16.348  1.00  0.00     0.210 HD
ENDBRANCH  12  18
ENDBRANCH   7   8
ENDBRANCH   6   7
ENDBRANCH   3   6
ENDBRANCH   1   3
BRANCH   1  20
HETATM   20  C1  UNL     1       8.942   0.957  14.899  1.00  0.00     0.186 C 
HETATM   21  S2  UNL     1      10.246   1.515  15.768  1.00  0.00    -0.040 SA
BRANCH  20  22
HETATM   22  N2  UNL     1       9.049  -0.332  14.346  1.00  0.00    -0.341 N 
ATOM     23  H2  UNL     1       8.697  -1.100  14.918  1.00  0.00     0.167 HD
BRANCH  22  24
HETATM   24  C2  UNL     1       9.587  -0.684  13.091  1.00  0.00     0.117 C 
BRANCH  24  25
HETATM   25  C3  UNL     1       8.722  -1.272  12.066  1.00  0.00     0.051 C 
HETATM   26  N3  UNL     1       8.496  -2.554  12.106  1.00  0.00    -0.272 N 
ATOM     27  H3  UNL     1       7.896  -2.986  11.404  1.00  0.00     0.194 HD
BRANCH  26  28
HETATM   28  O3  UNL     1       9.058  -3.321  13.082  1.00  0.00    -0.290 OA
ATOM     29  H3  UNL     1      10.003  -3.380  13.162  1.00  0.00     0.244 HD
ENDBRANCH  26  28
BRANCH  25  30
HETATM   30  C4  UNL     1       8.110  -0.537  10.933  1.00  0.00     0.043 C 
HETATM   31  C5  UNL     1       9.017  -0.266   9.765  1.00  0.00     0.016 C 
HETATM   32  C6  UNL     1       8.693   1.192   9.394  1.00  0.00    -0.013 C 
HETATM   33  C7  UNL     1       7.265   1.270   9.026  1.00  0.00     0.005 C 
HETATM   34  C10 UNL     1       8.693   1.738  10.838  1.00  0.00     0.010 C 
HETATM   35  C8  UNL     1       6.505   1.212  10.356  1.00  0.00     0.006 C 
HETATM   36  C9  UNL     1       7.599   0.810  11.345  1.00  0.00    -0.004 C 
ENDBRANCH  25  30
ENDBRANCH  24  25
ENDBRANCH  22  24
ENDBRANCH  20  22
ENDBRANCH   1  20
TORSDOF 14
ENDMDL
MODEL 2
REMARK VINA RESULT: -8.671038768      2.114      3.038
REMARK  14 active torsions:
REMARK  status: ('A' for Active; 'I' for Inactive)
REMARK    1  A    between atoms: S1_2  and  N1_4 
REMARK    2  A    between atoms: S1_2  and  O4_23 
REMARK    3  A    between atoms: N1_4  and  C1_6 
REMARK    4  A    between atoms: C1_6  and  N2_8 
REMARK    5  A    between atoms: N2_8  and  C2_10 
REMARK    6  A    between atoms: C2_10  and  C3_11 
REMARK    7  A    between atoms: C3_11  and  C4_16 
REMARK    8  A    between atoms: N3_12  and  O3_14 
REMARK    9  A    between atoms: O4_23  and  C11_24 
REMARK   10  A    between atoms: C11_24  and  C12_25 
REMARK   11  A    between atoms: C13_27  and  C14_28 
REMARK   12  A    between atoms: C14_28  and  O6_29 
REMARK   13  A    between atoms: C15_31  and  O7_32 
REMARK   14  A    between atoms: C16_34  and  O8_35 
ROOT
HETATM    1  N1  UNL     1       7.694   1.893  14.676  1.00  0.00    -0.237 N 
ATOM      2  H1  UNL     1       7.802   2.853  14.350  1.00  0.00     0.183 HD
ENDROOT
BRANCH   1   3
HETATM    3  S1  UNL     1       6.250   1.458  15.475  1.00  0.00     0.363 S 
HETATM    4  O1  UNL     1       5.554   0.370  14.729  1.00  0.00    -0.175 OA
HETATM    5  O2  UNL     1       6.583   0.972  16.885  1.00  0.00    -0.175 OA
BRANCH   3   6
HETATM    6  O4  UNL     1       5.283   2.845  15.627  1.00  0.00    -0.257 OA
BRANCH   6   7
HETATM    7  C11 UNL     1       5.454   3.293  16.936  1.00  0.00     0.226 C 
BRANCH   7   8
HETATM    8  C12 UNL     1       5.796   4.780  16.857  1.00  0.00     0.178 C 
HETATM    9  O5  UNL     1       5.130   5.428  17.866  1.00  0.00    -0.371 OA
HETATM   10  C13 UNL     1       6.027   6.284  18.490  1.00  0.00     0.177 C 
HETATM   11  C15 UNL     1       7.369   5.543  18.433  1.00  0.00     0.180 C 
HETATM   12  C16 UNL     1       7.271   4.933  17.049  1.00  0.00     0.180 C 
BRANCH  10  13
HETATM   13  C14 UNL     1       5.631   6.608  19.893  1.00  0.00     0.198 C 
BRANCH  13  14
HETATM   14  O6  UNL     1       6.399   5.877  20.768  1.00  0.00    -0.398 OA
ATOM     15  H6  UNL     1       6.533   6.376  21.565  1.00  0.00     0.209 HD
ENDBRANCH  13  14
ENDBRANCH  10  13
BRANCH  11  16
HETATM   16  O7  UNL     1       8.437   6.395  18.570  1.00  0.00    -0.390 OA
ATOM     17  H7  UNL     1       9.249   6.002  18.269  1.00  0.00     0.210 HD
ENDBRANCH  11  16
BRANCH  12  18
HETATM   18  O8  UNL     1       7.955   3.728  16.955  1.00  0.00    -0.390 OA
ATOM     19  H8  UNL     1       8.851   3.835  16.658  1.00  0.00     0.210 HD
ENDBRANCH  12  18
ENDBRANCH   7   8
ENDBRANCH   6   7
ENDBRANCH   3   6
ENDBRANCH   1   3
BRANCH   1  20
HETATM   20  C1  UNL     1       8.747   0.979  14.447  1.00  0.00     0.186 C 
HETATM   21  S2  UNL     1      10.164   1.190  15.293  1.00  0.00    -0.040 SA
BRANCH  20  22
HETATM   22  N2  UNL     1       8.693  -0.107  13.554  1.00  0.00    -0.341 N 
ATOM     23  H2  UNL     1       8.563  -1.028  13.970  1.00  0.00     0.167 HD
BRANCH  22  24
HETATM   24  C2  UNL     1       8.798  -0.066  12.149  1.00  0.00     0.117 C 
BRANCH  24  25
HETATM   25  C3  UNL     1       9.936   0.610  11.522  1.00  0.00     0.051 C 
HETATM   26  N3  UNL     1       9.819   1.873  11.223  1.00  0.00    -0.272 N 
ATOM     27  H3  UNL     1      10.598   2.365  10.787  1.00  0.00     0.194 HD
BRANCH  26  28
HETATM   28  O3  UNL     1       8.661   2.538  11.489  1.00  0.00    -0.290 OA
ATOM     29  H3  UNL     1       8.370   2.656  12.385  1.00  0.00     0.244 HD
ENDBRANCH  26  28
BRANCH  25  30
HETATM   30  C4  UNL     1      11.215  -0.035  11.140  1.00  0.00     0.043 C 
HETATM   31  C5  UNL     1      11.145  -1.513  10.871  1.00  0.00     0.016 C 
HETATM   32  C6  UNL     1      12.399  -2.061  11.574  1.00  0.00    -0.013 C 
HETATM   33  C7  UNL     1      13.587  -1.434  10.960  1.00  0.00     0.005 C 
HETATM   34  C10 UNL     1      12.232  -1.250  12.876  1.00  0.00     0.010 C 
HETATM   35  C8  UNL     1      13.627  -0.011  11.529  1.00  0.00     0.006 C 
HETATM   36  C9  UNL     1      12.261   0.114  12.204  1.00  0.00    -0.004 C 
ENDBRANCH  25  30
ENDBRANCH  24  25
ENDBRANCH  22  24
ENDBRANCH  20  22
ENDBRANCH   1  20
TORSDOF 14
ENDMDL
MODEL 3
REMARK VINA RESULT: -8.649314986      1.621      2.458
REMARK  14 active torsions:
REMARK  status: ('A' for Active; 'I' for Inactive)
REMARK    1  A    between atoms: S1_2  and  N1_4 
REMARK    2  A    between atoms: S1_2  and  O4_23 
REMARK    3  A    between atoms: N1_4  and  C1_6 
REMARK    4  A    between atoms: C1_6  and  N2_8 
REMARK    5  A    between atoms: N2_8  and  C2_10 
REMARK    6  A    between atoms: C2_10  and  C3_11 
REMARK    7  A    between atoms: C3_11  and  C4_16 
REMARK    8  A    between atoms: N3_12  and  O3_14 
REMARK    9  A    between atoms: O4_23  and  C11_24 
REMARK   10  A    between atoms: C11_24  and  C12_25 
REMARK   11  A    between atoms: C13_27  and  C14_28 
REMARK   12  A    between atoms: C14_28  and  O6_29 
REMARK   13  A    between atoms: C15_31  and  O7_32 
REMARK   14  A    between atoms: C16_34  and  O8_35 
ROOT
HETATM    1  N1  UNL     1       7.694   2.048  14.874  1.00  0.00    -0.237 N 
ATOM      2  H1  UNL     1       7.825   3.016  14.581  1.00  0.00     0.183 HD
ENDROOT
BRANCH   1   3
HETATM    3  S1  UNL     1       6.208   1.605  15.588  1.00  0.00     0.363 S 
HETATM    4  O1  UNL     1       5.531   0.560  14.768  1.00  0.00    -0.175 OA
HETATM    5  O2  UNL     1       6.470   1.056  16.991  1.00  0.00    -0.175 OA
BRANCH   3   6
HETATM    6  O4  UNL     1       5.257   3.000  15.755  1.00  0.00    -0.257 OA
BRANCH   6   7
HETATM    7  C11 UNL     1       5.434   3.434  17.067  1.00  0.00     0.226 C 
BRANCH   7   8
HETATM    8  C12 UNL     1       5.795   4.918  17.001  1.00  0.00     0.178 C 
HETATM    9  O5  UNL     1       5.147   5.563  18.024  1.00  0.00    -0.371 OA
HETATM   10  C13 UNL     1       6.062   6.401  18.649  1.00  0.00     0.177 C 
HETATM   11  C15 UNL     1       7.392   5.643  18.570  1.00  0.00     0.180 C 
HETATM   12  C16 UNL     1       7.273   5.050  17.181  1.00  0.00     0.180 C 
BRANCH  10  13
HETATM   13  C14 UNL     1       5.683   6.714  20.058  1.00  0.00     0.198 C 
BRANCH  13  14
HETATM   14  O6  UNL     1       6.440   5.955  20.918  1.00  0.00    -0.398 OA
ATOM     15  H6  UNL     1       6.088   5.073  20.956  1.00  0.00     0.209 HD
ENDBRANCH  13  14
ENDBRANCH  10  13
BRANCH  11  16
HETATM   16  O7  UNL     1       8.474   6.479  18.706  1.00  0.00    -0.390 OA
ATOM     17  H7  UNL     1       9.198   6.222  18.147  1.00  0.00     0.210 HD
ENDBRANCH  11  16
BRANCH  12  18
HETATM   18  O8  UNL     1       7.941   3.837  17.067  1.00  0.00    -0.390 OA
ATOM     19  H8  UNL     1       8.392   3.588  17.865  1.00  0.00     0.210 HD
ENDBRANCH  12  18
ENDBRANCH   7   8
ENDBRANCH   6   7
ENDBRANCH   3   6
ENDBRANCH   1   3
BRANCH   1  20
HETATM   20  C1  UNL     1       8.749   1.131  14.670  1.00  0.00     0.186 C 
HETATM   21  S2  UNL     1      10.180   1.393  15.476  1.00  0.00    -0.040 SA
BRANCH  20  22
HETATM   22  N2  UNL     1       8.686   0.001  13.833  1.00  0.00    -0.341 N 
ATOM     23  H2  UNL     1       8.591  -0.901  14.299  1.00  0.00     0.167 HD
BRANCH  22  24
HETATM   24  C2  UNL     1       8.738  -0.026  12.425  1.00  0.00     0.117 C 
BRANCH  24  25
HETATM   25  C3  UNL     1       9.061  -1.274  11.731  1.00  0.00     0.051 C 
HETATM   26  N3  UNL     1       8.138  -2.188  11.637  1.00  0.00    -0.272 N 
ATOM     27  H3  UNL     1       8.339  -3.065  11.157  1.00  0.00     0.194 HD
BRANCH  26  28
HETATM   28  O3  UNL     1       6.905  -1.978  12.176  1.00  0.00    -0.290 OA
ATOM     29  H3  UNL     1       6.129  -2.321  11.748  1.00  0.00     0.244 HD
ENDBRANCH  26  28
BRANCH  25  30
HETATM   30  C4  UNL     1      10.385  -1.622  11.161  1.00  0.00     0.043 C 
HETATM   31  C5  UNL     1      11.312  -2.373  12.076  1.00  0.00     0.016 C 
HETATM   32  C6  UNL     1      12.670  -1.687  11.846  1.00  0.00    -0.013 C 
HETATM   33  C7  UNL     1      13.034  -1.846  10.424  1.00  0.00     0.005 C 
HETATM   34  C10 UNL     1      12.139  -0.239  11.892  1.00  0.00     0.010 C 
HETATM   35  C8  UNL     1      12.156  -0.841   9.671  1.00  0.00     0.006 C 
HETATM   36  C9  UNL     1      11.156  -0.407  10.743  1.00  0.00    -0.004 C 
ENDBRANCH  25  30
ENDBRANCH  24  25
ENDBRANCH  22  24
ENDBRANCH  20  22
ENDBRANCH   1  20
TORSDOF 14
ENDMDL
MODEL 4
REMARK VINA RESULT: -8.514900395      1.810      2.378
REMARK  14 active torsions:
REMARK  status: ('A' for Active; 'I' for Inactive)
REMARK    1  A    between atoms: S1_2  and  N1_4 
REMARK    2  A    between atoms: S1_2  and  O4_23 
REMARK    3  A    between atoms: N1_4  and  C1_6 
REMARK    4  A    between atoms: C1_6  and  N2_8 
REMARK    5  A    between atoms: N2_8  and  C2_10 
REMARK    6  A    between atoms: C2_10  and  C3_11 
REMARK    7  A    between atoms: C3_11  and  C4_16 
REMARK    8  A    between atoms: N3_12  and  O3_14 
REMARK    9  A    between atoms: O4_23  and  C11_24 
REMARK   10  A    between atoms: C11_24  and  C12_25 
REMARK   11  A    between atoms: C13_27  and  C14_28 
REMARK   12  A    between atoms: C14_28  and  O6_29 
REMARK   13  A    between atoms: C15_31  and  O7_32 
REMARK   14  A    between atoms: C16_34  and  O8_35 
ROOT
HETATM    1  N1  UNL     1       8.735   0.683  15.687  1.00  0.00    -0.237 N 
ATOM      2  H1  UNL     1       8.778  -0.336  15.671  1.00  0.00     0.183 HD
ENDROOT
BRANCH   1   3
HETATM    3  S1  UNL     1       7.207   1.434  15.811  1.00  0.00     0.363 S 
HETATM    4  O1  UNL     1       6.354   1.067  14.643  1.00  0.00    -0.175 OA
HETATM    5  O2  UNL     1       6.526   0.975  17.099  1.00  0.00    -0.175 OA
BRANCH   3   6
HETATM    6  O4  UNL     1       7.442   3.110  15.927  1.00  0.00    -0.257 OA
BRANCH   6   7
HETATM    7  C11 UNL     1       6.910   3.491  17.157  1.00  0.00     0.226 C 
BRANCH   7   8
HETATM    8  C12 UNL     1       6.800   5.015  17.143  1.00  0.00     0.178 C 
HETATM    9  O5  UNL     1       5.598   5.364  17.707  1.00  0.00    -0.371 OA
HETATM   10  C13 UNL     1       5.831   6.394  18.608  1.00  0.00     0.177 C 
HETATM   11  C15 UNL     1       7.210   6.080  19.202  1.00  0.00     0.180 C 
HETATM   12  C16 UNL     1       7.919   5.575  17.961  1.00  0.00     0.180 C 
BRANCH  10  13
HETATM   13  C14 UNL     1       4.779   6.482  19.664  1.00  0.00     0.198 C 
BRANCH  13  14
HETATM   14  O6  UNL     1       3.674   7.124  19.159  1.00  0.00    -0.398 OA
ATOM     15  H6  UNL     1       2.919   6.549  19.215  1.00  0.00     0.209 HD
ENDBRANCH  13  14
ENDBRANCH  10  13
BRANCH  11  16
HETATM   16  O7  UNL     1       7.805   7.193  19.744  1.00  0.00    -0.390 OA
ATOM     17  H7  UNL     1       7.196   7.709  20.260  1.00  0.00     0.210 HD
ENDBRANCH  11  16
BRANCH  12  18
HETATM   18  O8  UNL     1       8.893   4.631  18.259  1.00  0.00    -0.390 OA
ATOM     19  H8  UNL     1       9.424   4.398  17.506  1.00  0.00     0.210 HD
ENDBRANCH  12  18
ENDBRANCH   7   8
ENDBRANCH   6   7
ENDBRANCH   3   6
ENDBRANCH   1   3
BRANCH   1  20
HETATM   20  C1  UNL     1       9.943   1.411  15.605  1.00  0.00     0.186 C 
HETATM   21  S2  UNL     1      10.754   1.741  17.018  1.00  0.00    -0.040 SA
BRANCH  20  22
HETATM   22  N2  UNL     1      10.521   1.882  14.412  1.00  0.00    -0.341 N 
ATOM     23  H2  UNL     1      11.026   2.766  14.473  1.00  0.00     0.167 HD
BRANCH  22  24
HETATM   24  C2  UNL     1      10.482   1.272  13.142  1.00  0.00     0.117 C 
BRANCH  24  25
HETATM   25  C3  UNL     1       9.312   1.456  12.280  1.00  0.00     0.051 C 
HETATM   26  N3  UNL     1       9.039   2.656  11.855  1.00  0.00    -0.272 N 
ATOM     27  H3  UNL     1       8.231   2.809  11.253  1.00  0.00     0.194 HD
BRANCH  26  28
HETATM   28  O3  UNL     1       9.827   3.709  12.211  1.00  0.00    -0.290 OA
ATOM     29  H3  UNL     1      10.003   4.407  11.593  1.00  0.00     0.244 HD
ENDBRANCH  26  28
BRANCH  25  30
HETATM   30  C4  UNL     1       8.362   0.390  11.882  1.00  0.00     0.043 C 
HETATM   31  C5  UNL     1       8.974  -0.951  11.581  1.00  0.00     0.016 C 
HETATM   32  C6  UNL     1       8.235  -1.401  10.309  1.00  0.00    -0.013 C 
HETATM   33  C7  UNL     1       6.794  -1.498  10.621  1.00  0.00     0.005 C 
HETATM   34  C10 UNL     1       8.324  -0.048   9.573  1.00  0.00     0.010 C 
HETATM   35  C8  UNL     1       6.295  -0.051  10.658  1.00  0.00     0.006 C 
HETATM   36  C9  UNL     1       7.597   0.750  10.645  1.00  0.00    -0.004 C 
ENDBRANCH  25  30
ENDBRANCH  24  25
ENDBRANCH  22  24
ENDBRANCH  20  22
ENDBRANCH   1  20
TORSDOF 14
ENDMDL
MODEL 5
REMARK VINA RESULT: -8.472113776      2.370      4.435
REMARK  14 active torsions:
REMARK  status: ('A' for Active; 'I' for Inactive)
REMARK    1  A    between atoms: S1_2  and  N1_4 
REMARK    2  A    between atoms: S1_2  and  O4_23 
REMARK    3  A    between atoms: N1_4  and  C1_6 
REMARK    4  A    between atoms: C1_6  and  N2_8 
REMARK    5  A    between atoms: N2_8  and  C2_10 
REMARK    6  A    between atoms: C2_10  and  C3_11 
REMARK    7  A    between atoms: C3_11  and  C4_16 
REMARK    8  A    between atoms: N3_12  and  O3_14 
REMARK    9  A    between atoms: O4_23  and  C11_24 
REMARK   10  A    between atoms: C11_24  and  C12_25 
REMARK   11  A    between atoms: C13_27  and  C14_28 
REMARK   12  A    between atoms: C14_28  and  O6_29 
REMARK   13  A    between atoms: C15_31  and  O7_32 
REMARK   14  A    between atoms: C16_34  and  O8_35 
ROOT
HETATM    1  N1  UNL     1       6.630   1.128  13.290  1.00  0.00    -0.237 N 
ATOM      2  H1  UNL     1       6.525   2.012  12.793  1.00  0.00     0.183 HD
ENDROOT
BRANCH   1   3
HETATM    3  S1  UNL     1       5.982   0.993  14.863  1.00  0.00     0.363 S 
HETATM    4  O1  UNL     1       5.043  -0.164  14.937  1.00  0.00    -0.175 OA
HETATM    5  O2  UNL     1       7.123   0.783  15.858  1.00  0.00    -0.175 OA
BRANCH   3   6
HETATM    6  O4  UNL     1       5.223   2.457  15.257  1.00  0.00    -0.257 OA
BRANCH   6   7
HETATM    7  C11 UNL     1       5.744   2.844  16.491  1.00  0.00     0.226 C 
BRANCH   7   8
HETATM    8  C12 UNL     1       6.191   4.298  16.350  1.00  0.00     0.178 C 
HETATM    9  O5  UNL     1       5.414   5.068  17.178  1.00  0.00    -0.371 OA
HETATM   10  C13 UNL     1       6.252   5.931  17.872  1.00  0.00     0.177 C 
HETATM   11  C15 UNL     1       7.533   5.119  18.101  1.00  0.00     0.180 C 
HETATM   12  C16 UNL     1       7.622   4.392  16.774  1.00  0.00     0.180 C 
BRANCH  10  13
HETATM   13  C14 UNL     1       5.654   6.400  19.157  1.00  0.00     0.198 C 
BRANCH  13  14
HETATM   14  O6  UNL     1       6.461   6.023  20.204  1.00  0.00    -0.398 OA
ATOM     15  H6  UNL     1       7.004   5.290  19.939  1.00  0.00     0.209 HD
ENDBRANCH  13  14
ENDBRANCH  10  13
BRANCH  11  16
HETATM   16  O7  UNL     1       8.618   5.924  18.346  1.00  0.00    -0.390 OA
ATOM     17  H7  UNL     1       8.398   6.664  18.901  1.00  0.00     0.210 HD
ENDBRANCH  11  16
BRANCH  12  18
HETATM   18  O8  UNL     1       8.232   3.150  16.894  1.00  0.00    -0.390 OA
ATOM     19  H8  UNL     1       8.667   3.032  17.730  1.00  0.00     0.210 HD
ENDBRANCH  12  18
ENDBRANCH   7   8
ENDBRANCH   6   7
ENDBRANCH   3   6
ENDBRANCH   1   3
BRANCH   1  20
HETATM   20  C1  UNL     1       7.307   0.068  12.646  1.00  0.00     0.186 C 
HETATM   21  S2  UNL     1       6.637  -0.561  11.260  1.00  0.00    -0.040 SA
BRANCH  20  22
HETATM   22  N2  UNL     1       8.516  -0.503  13.086  1.00  0.00    -0.341 N 
ATOM     23  H2  UNL     1       8.497  -1.503  13.285  1.00  0.00     0.167 HD
BRANCH  22  24
HETATM   24  C2  UNL     1       9.749   0.150  13.282  1.00  0.00     0.117 C 
BRANCH  24  25
HETATM   25  C3  UNL     1      10.050   0.768  14.576  1.00  0.00     0.051 C 
HETATM   26  N3  UNL     1       9.662   1.994  14.782  1.00  0.00    -0.272 N 
ATOM     27  H3  UNL     1       9.859   2.445  15.676  1.00  0.00     0.194 HD
BRANCH  26  28
HETATM   28  O3  UNL     1       8.996   2.678  13.811  1.00  0.00    -0.290 OA
ATOM     29  H3  UNL     1       8.088   2.924  13.934  1.00  0.00     0.244 HD
ENDBRANCH  26  28
BRANCH  25  30
HETATM   30  C4  UNL     1      10.815   0.131  15.675  1.00  0.00     0.043 C 
HETATM   31  C5  UNL     1      11.025   0.979  16.900  1.00  0.00     0.016 C 
HETATM   32  C6  UNL     1      12.498   0.721  17.261  1.00  0.00    -0.013 C 
HETATM   33  C7  UNL     1      12.661  -0.721  17.540  1.00  0.00     0.005 C 
HETATM   34  C10 UNL     1      13.050   0.844  15.825  1.00  0.00     0.010 C 
HETATM   35  C8  UNL     1      12.657  -1.397  16.166  1.00  0.00     0.006 C 
HETATM   36  C9  UNL     1      12.193  -0.270  15.243  1.00  0.00    -0.004 C 
ENDBRANCH  25  30
ENDBRANCH  24  25
ENDBRANCH  22  24
ENDBRANCH  20  22
ENDBRANCH   1  20
TORSDOF 14
ENDMDL
