MODEL 1
REMARK VINA RESULT: -8.198811169      0.000      0.000
REMARK  14 active torsions:
REMARK  status: ('A' for Active; 'I' for Inactive)
REMARK    1  A    between atoms: O1_1  and  C1_3 
REMARK    2  A    between atoms: C1_3  and  C2_4 
REMARK    3  A    between atoms: C2_4  and  O2_5 
REMARK    4  A    between atoms: O2_5  and  C3_6 
REMARK    5  A    between atoms: C3_6  and  C4_7 
REMARK    6  A    between atoms: C5_9  and  O4_10 
REMARK    7  A    between atoms: O4_10  and  C6_11 
REMARK    8  A    between atoms: C8_13  and  O5_14 
REMARK    9  A    between atoms: C9_16  and  O6_17 
REMARK   10  A    between atoms: C10_19  and  O7_20 
REMARK   11  A    between atoms: C11_22  and  O8_23 
REMARK   12  A    between atoms: O8_23  and  C12_24 
REMARK   13  A    between atoms: C20_32  and  O9_33 
REMARK   14  A    between atoms: C22_36  and  O10_37 
ROOT
HETATM    1  C6  UNL     1       8.313   0.759  15.292  1.00  0.00     0.158 C 
HETATM    2  C7  UNL     1       6.946   0.937  16.005  1.00  0.00     0.069 C 
HETATM    3  C8  UNL     1       6.561   2.369  15.723  1.00  0.00     0.152 C 
HETATM    4  C9  UNL     1       7.589   3.294  16.258  1.00  0.00     0.178 C 
HETATM    5  C10 UNL     1       8.672   2.569  16.982  1.00  0.00     0.180 C 
HETATM    6  C11 UNL     1       9.305   1.439  16.210  1.00  0.00     0.182 C 
ENDROOT
BRANCH   1   7
HETATM    7  O4  UNL     1       8.197   1.455  14.127  1.00  0.00    -0.353 OA
BRANCH   7   8
HETATM    8  C5  UNL     1       8.281   0.769  12.955  1.00  0.00     0.266 C 
HETATM    9  O3  UNL     1       8.893  -0.495  13.110  1.00  0.00    -0.350 OA
HETATM   10  C4  UNL     1       8.955  -0.995  11.788  1.00  0.00     0.183 C 
HETATM   11  C22 UNL     1       7.552  -1.134  11.320  1.00  0.00     0.099 C 
HETATM   12  C19 UNL     1       6.909   0.159  10.928  1.00  0.00     0.062 C 
HETATM   13  C21 UNL     1       6.517  -0.933  12.372  1.00  0.00     0.062 C 
HETATM   14  C18 UNL     1       6.935   0.514  12.389  1.00  0.00     0.060 C 
HETATM   15  C20 UNL     1       5.595  -0.505  11.257  1.00  0.00     0.133 C 
BRANCH  10  16
HETATM   16  C3  UNL     1       9.668  -2.330  11.751  1.00  0.00     0.202 C 
BRANCH  16  17
HETATM   17  O2  UNL     1      10.971  -2.252  12.138  1.00  0.00    -0.386 OA
BRANCH  17  18
HETATM   18  C2  UNL     1      11.704  -1.456  11.293  1.00  0.00     0.193 C 
BRANCH  18  19
HETATM   19  C1  UNL     1      12.519  -0.444  12.027  1.00  0.00     0.190 C 
BRANCH  19  20
HETATM   20  O1  UNL     1      11.771   0.762  12.160  1.00  0.00    -0.399 OA
ATOM     21  H1  UNL     1      11.370   0.792  13.020  1.00  0.00     0.209 HD
ENDBRANCH  19  20
ENDBRANCH  18  19
ENDBRANCH  17  18
ENDBRANCH  16  17
ENDBRANCH  10  16
BRANCH  11  22
HETATM   22  O10 UNL     1       7.400  -2.189  10.460  1.00  0.00    -0.386 OA
ATOM     23  H10 UNL     1       6.956  -2.921  10.870  1.00  0.00     0.210 HD
ENDBRANCH  11  22
BRANCH  15  24
HETATM   24  O9  UNL     1       5.143  -1.464  10.398  1.00  0.00    -0.395 OA
ATOM     25  H9  UNL     1       4.309  -1.873  10.598  1.00  0.00     0.210 HD
ENDBRANCH  15  24
ENDBRANCH   7   8
ENDBRANCH   1   7
BRANCH   6  26
HETATM   26  O8  UNL     1      10.417   1.894  15.567  1.00  0.00    -0.375 OA
BRANCH  26  27
HETATM   27  C12 UNL     1      11.524   1.075  15.646  1.00  0.00     0.122 C 
HETATM   28  C13 UNL     1      11.284  -0.385  15.588  1.00  0.00     0.032 C 
HETATM   29  C14 UNL     1      12.588  -1.093  15.989  1.00  0.00     0.002 C 
HETATM   30  C15 UNL     1      12.931  -0.849  17.424  1.00  0.00     0.000 C 
HETATM   31  C16 UNL     1      12.381   0.466  17.933  1.00  0.00     0.002 C 
HETATM   32  C17 UNL     1      12.337   1.510  16.841  1.00  0.00     0.032 C 
ENDBRANCH  26  27
ENDBRANCH   6  26
BRANCH   3  33
HETATM   33  O5  UNL     1       5.340   2.678  16.320  1.00  0.00    -0.393 OA
ATOM     34  H5  UNL     1       4.667   2.064  16.049  1.00  0.00     0.210 HD
ENDBRANCH   3  33
BRANCH   5  35
HETATM   35  O7  UNL     1       9.703   3.515  17.215  1.00  0.00    -0.390 OA
ATOM     36  H7  UNL     1      10.454   3.024  17.522  1.00  0.00     0.210 HD
ENDBRANCH   5  35
BRANCH   4  37
HETATM   37  O6  UNL     1       8.177   4.071  15.234  1.00  0.00    -0.390 OA
ATOM     38  H6  UNL     1       7.597   4.766  14.944  1.00  0.00     0.210 HD
ENDBRANCH   4  37
TORSDOF 14
ENDMDL
MODEL 2
REMARK VINA RESULT: -8.065853419      0.855      1.511
REMARK  14 active torsions:
REMARK  status: ('A' for Active; 'I' for Inactive)
REMARK    1  A    between atoms: O1_1  and  C1_3 
REMARK    2  A    between atoms: C1_3  and  C2_4 
REMARK    3  A    between atoms: C2_4  and  O2_5 
REMARK    4  A    between atoms: O2_5  and  C3_6 
REMARK    5  A    between atoms: C3_6  and  C4_7 
REMARK    6  A    between atoms: C5_9  and  O4_10 
REMARK    7  A    between atoms: O4_10  and  C6_11 
REMARK    8  A    between atoms: C8_13  and  O5_14 
REMARK    9  A    between atoms: C9_16  and  O6_17 
REMARK   10  A    between atoms: C10_19  and  O7_20 
REMARK   11  A    between atoms: C11_22  and  O8_23 
REMARK   12  A    between atoms: O8_23  and  C12_24 
REMARK   13  A    between atoms: C20_32  and  O9_33 
REMARK   14  A    between atoms: C22_36  and  O10_37 
ROOT
HETATM    1  C6  UNL     1       8.366   0.800  15.230  1.00  0.00     0.158 C 
HETATM    2  C7  UNL     1       7.022   0.922  15.994  1.00  0.00     0.069 C 
HETATM    3  C8  UNL     1       6.700   2.396  15.951  1.00  0.00     0.152 C 
HETATM    4  C9  UNL     1       7.780   3.178  16.601  1.00  0.00     0.178 C 
HETATM    5  C10 UNL     1       8.839   2.301  17.175  1.00  0.00     0.180 C 
HETATM    6  C11 UNL     1       9.405   1.281  16.219  1.00  0.00     0.182 C 
ENDROOT
BRANCH   1   7
HETATM    7  O4  UNL     1       8.264   1.677  14.193  1.00  0.00    -0.353 OA
BRANCH   7   8
HETATM    8  C5  UNL     1       8.362   1.191  12.925  1.00  0.00     0.266 C 
HETATM    9  O3  UNL     1       9.310   0.149  12.816  1.00  0.00    -0.350 OA
HETATM   10  C4  UNL     1       9.315  -0.148  11.433  1.00  0.00     0.183 C 
HETATM   11  C22 UNL     1       7.951  -0.630  11.097  1.00  0.00     0.099 C 
HETATM   12  C19 UNL     1       6.931   0.459  10.981  1.00  0.00     0.062 C 
HETATM   13  C21 UNL     1       7.063  -0.865  12.269  1.00  0.00     0.062 C 
HETATM   14  C18 UNL     1       7.069   0.628  12.468  1.00  0.00     0.060 C 
HETATM   15  C20 UNL     1       5.909  -0.592  11.336  1.00  0.00     0.133 C 
BRANCH  10  16
HETATM   16  C3  UNL     1      10.352  -1.205  11.115  1.00  0.00     0.202 C 
BRANCH  16  17
HETATM   17  O2  UNL     1      10.834  -1.833  12.222  1.00  0.00    -0.386 OA
BRANCH  17  18
HETATM   18  C2  UNL     1      10.692  -3.195  12.135  1.00  0.00     0.193 C 
BRANCH  18  19
HETATM   19  C1  UNL     1       9.456  -3.683  12.816  1.00  0.00     0.190 C 
BRANCH  19  20
HETATM   20  O1  UNL     1       9.514  -5.102  12.943  1.00  0.00    -0.399 OA
ATOM     21  H1  UNL     1      10.051  -5.330  13.693  1.00  0.00     0.209 HD
ENDBRANCH  19  20
ENDBRANCH  18  19
ENDBRANCH  17  18
ENDBRANCH  16  17
ENDBRANCH  10  16
BRANCH  11  22
HETATM   22  O10 UNL     1       7.970  -1.572  10.103  1.00  0.00    -0.386 OA
ATOM     23  H10 UNL     1       8.826  -1.974  10.011  1.00  0.00     0.210 HD
ENDBRANCH  11  22
BRANCH  15  24
HETATM   24  O9  UNL     1       5.616  -1.529  10.389  1.00  0.00    -0.395 OA
ATOM     25  H9  UNL     1       4.811  -1.418   9.897  1.00  0.00     0.210 HD
ENDBRANCH  15  24
ENDBRANCH   7   8
ENDBRANCH   1   7
BRANCH   6  26
HETATM   26  O8  UNL     1      10.527   1.784  15.629  1.00  0.00    -0.375 OA
BRANCH  26  27
HETATM   27  C12 UNL     1      11.625   0.948  15.636  1.00  0.00     0.122 C 
HETATM   28  C13 UNL     1      11.363  -0.504  15.518  1.00  0.00     0.032 C 
HETATM   29  C14 UNL     1      12.669  -1.246  15.847  1.00  0.00     0.002 C 
HETATM   30  C15 UNL     1      13.058  -1.073  17.280  1.00  0.00     0.000 C 
HETATM   31  C16 UNL     1      12.541   0.223  17.867  1.00  0.00     0.002 C 
HETATM   32  C17 UNL     1      12.478   1.318  16.826  1.00  0.00     0.032 C 
ENDBRANCH  26  27
ENDBRANCH   6  26
BRANCH   3  33
HETATM   33  O5  UNL     1       5.505   2.659  16.620  1.00  0.00    -0.393 OA
ATOM     34  H5  UNL     1       4.899   1.934  16.525  1.00  0.00     0.210 HD
ENDBRANCH   3  33
BRANCH   5  35
HETATM   35  O7  UNL     1       9.917   3.151  17.530  1.00  0.00    -0.390 OA
ATOM     36  H7  UNL     1      10.352   2.741  18.268  1.00  0.00     0.210 HD
ENDBRANCH   5  35
BRANCH   4  37
HETATM   37  O6  UNL     1       8.386   4.082  15.699  1.00  0.00    -0.390 OA
ATOM     38  H6  UNL     1       8.702   3.642  14.919  1.00  0.00     0.210 HD
ENDBRANCH   4  37
TORSDOF 14
ENDMDL
MODEL 3
REMARK VINA RESULT: -7.978882186      1.579      2.087
REMARK  14 active torsions:
REMARK  status: ('A' for Active; 'I' for Inactive)
REMARK    1  A    between atoms: O1_1  and  C1_3 
REMARK    2  A    between atoms: C1_3  and  C2_4 
REMARK    3  A    between atoms: C2_4  and  O2_5 
REMARK    4  A    between atoms: O2_5  and  C3_6 
REMARK    5  A    between atoms: C3_6  and  C4_7 
REMARK    6  A    between atoms: C5_9  and  O4_10 
REMARK    7  A    between atoms: O4_10  and  C6_11 
REMARK    8  A    between atoms: C8_13  and  O5_14 
REMARK    9  A    between atoms: C9_16  and  O6_17 
REMARK   10  A    between atoms: C10_19  and  O7_20 
REMARK   11  A    between atoms: C11_22  and  O8_23 
REMARK   12  A    between atoms: O8_23  and  C12_24 
REMARK   13  A    between atoms: C20_32  and  O9_33 
REMARK   14  A    between atoms: C22_36  and  O10_37 
ROOT
HETATM    1  C6  UNL     1       8.985   0.979  15.037  1.00  0.00     0.158 C 
HETATM    2  C7  UNL     1       7.464   0.895  15.333  1.00  0.00     0.069 C 
HETATM    3  C8  UNL     1       7.014   2.334  15.388  1.00  0.00     0.152 C 
HETATM    4  C9  UNL     1       7.746   3.063  16.453  1.00  0.00     0.178 C 
HETATM    5  C10 UNL     1       8.662   2.168  17.215  1.00  0.00     0.180 C 
HETATM    6  C11 UNL     1       9.604   1.353  16.366  1.00  0.00     0.182 C 
ENDROOT
BRANCH   1   7
HETATM    7  O4  UNL     1       9.116   2.005  14.152  1.00  0.00    -0.353 OA
BRANCH   7   8
HETATM    8  C5  UNL     1       9.783   1.772  12.988  1.00  0.00     0.266 C 
HETATM    9  O3  UNL     1      10.540   0.580  13.027  1.00  0.00    -0.350 OA
HETATM   10  C4  UNL     1      11.205   0.571  11.778  1.00  0.00     0.183 C 
HETATM   11  C22 UNL     1      10.149   0.498  10.736  1.00  0.00     0.099 C 
HETATM   12  C19 UNL     1       9.446   1.796  10.488  1.00  0.00     0.062 C 
HETATM   13  C21 UNL     1       8.774   0.249  11.253  1.00  0.00     0.062 C 
HETATM   14  C18 UNL     1       8.840   1.629  11.853  1.00  0.00     0.060 C 
HETATM   15  C20 UNL     1       8.278   0.964  10.020  1.00  0.00     0.133 C 
BRANCH  10  16
HETATM   16  C3  UNL     1      12.142  -0.614  11.677  1.00  0.00     0.202 C 
BRANCH  16  17
HETATM   17  O2  UNL     1      11.877  -1.586  12.593  1.00  0.00    -0.386 OA
BRANCH  17  18
HETATM   18  C2  UNL     1      11.379  -2.719  12.000  1.00  0.00     0.193 C 
BRANCH  18  19
HETATM   19  C1  UNL     1       9.991  -3.033  12.447  1.00  0.00     0.190 C 
BRANCH  19  20
HETATM   20  O1  UNL     1       9.671  -2.244  13.590  1.00  0.00    -0.399 OA
ATOM     21  H1  UNL     1       8.950  -2.645  14.060  1.00  0.00     0.209 HD
ENDBRANCH  19  20
ENDBRANCH  18  19
ENDBRANCH  17  18
ENDBRANCH  16  17
ENDBRANCH  10  16
BRANCH  11  22
HETATM   22  O10 UNL     1      10.562  -0.205   9.636  1.00  0.00    -0.386 OA
ATOM     23  H10 UNL     1      10.049   0.007   8.866  1.00  0.00     0.210 HD
ENDBRANCH  11  22
BRANCH  15  24
HETATM   24  O9  UNL     1       8.399   0.329   8.819  1.00  0.00    -0.395 OA
ATOM     25  H9  UNL     1       7.885  -0.459   8.686  1.00  0.00     0.210 HD
ENDBRANCH  15  24
ENDBRANCH   7   8
ENDBRANCH   1   7
BRANCH   6  26
HETATM   26  O8  UNL     1      10.793   2.011  16.245  1.00  0.00    -0.375 OA
BRANCH  26  27
HETATM   27  C12 UNL     1      11.919   1.218  16.324  1.00  0.00     0.122 C 
HETATM   28  C13 UNL     1      11.724  -0.242  16.175  1.00  0.00     0.032 C 
HETATM   29  C14 UNL     1      13.031  -0.937  16.590  1.00  0.00     0.002 C 
HETATM   30  C15 UNL     1      13.309  -0.766  18.050  1.00  0.00     0.000 C 
HETATM   31  C16 UNL     1      12.701   0.503  18.608  1.00  0.00     0.002 C 
HETATM   32  C17 UNL     1      12.670   1.606  17.575  1.00  0.00     0.032 C 
ENDBRANCH  26  27
ENDBRANCH   6  26
BRANCH   3  33
HETATM   33  O5  UNL     1       5.649   2.414  15.662  1.00  0.00    -0.393 OA
ATOM     34  H5  UNL     1       5.460   2.080  16.531  1.00  0.00     0.210 HD
ENDBRANCH   3  33
BRANCH   5  35
HETATM   35  O7  UNL     1       9.477   3.012  18.011  1.00  0.00    -0.390 OA
ATOM     36  H7  UNL     1       8.899   3.663  18.392  1.00  0.00     0.210 HD
ENDBRANCH   5  35
BRANCH   4  37
HETATM   37  O6  UNL     1       8.501   4.136  15.927  1.00  0.00    -0.390 OA
ATOM     38  H6  UNL     1       8.871   4.677  16.615  1.00  0.00     0.210 HD
ENDBRANCH   4  37
TORSDOF 14
ENDMDL
MODEL 4
REMARK VINA RESULT: -7.960988922      0.902      1.393
REMARK  14 active torsions:
REMARK  status: ('A' for Active; 'I' for Inactive)
REMARK    1  A    between atoms: O1_1  and  C1_3 
REMARK    2  A    between atoms: C1_3  and  C2_4 
REMARK    3  A    between atoms: C2_4  and  O2_5 
REMARK    4  A    between atoms: O2_5  and  C3_6 
REMARK    5  A    between atoms: C3_6  and  C4_7 
REMARK    6  A    between atoms: C5_9  and  O4_10 
REMARK    7  A    between atoms: O4_10  and  C6_11 
REMARK    8  A    between atoms: C8_13  and  O5_14 
REMARK    9  A    between atoms: C9_16  and  O6_17 
REMARK   10  A    between atoms: C10_19  and  O7_20 
REMARK   11  A    between atoms: C11_22  and  O8_23 
REMARK   12  A    between atoms: O8_23  and  C12_24 
REMARK   13  A    between atoms: C20_32  and  O9_33 
REMARK   14  A    between atoms: C22_36  and  O10_37 
ROOT
HETATM    1  C6  UNL     1       8.499   0.988  15.285  1.00  0.00     0.158 C 
HETATM    2  C7  UNL     1       7.112   1.070  15.975  1.00  0.00     0.069 C 
HETATM    3  C8  UNL     1       6.806   2.547  16.026  1.00  0.00     0.152 C 
HETATM    4  C9  UNL     1       7.853   3.263  16.796  1.00  0.00     0.178 C 
HETATM    5  C10 UNL     1       8.867   2.330  17.363  1.00  0.00     0.180 C 
HETATM    6  C11 UNL     1       9.480   1.378  16.368  1.00  0.00     0.182 C 
ENDROOT
BRANCH   1   7
HETATM    7  O4  UNL     1       8.467   1.941  14.313  1.00  0.00    -0.353 OA
BRANCH   7   8
HETATM    8  C5  UNL     1       8.658   1.553  13.022  1.00  0.00     0.266 C 
HETATM    9  O3  UNL     1       9.924   0.961  12.816  1.00  0.00    -0.350 OA
HETATM   10  C4  UNL     1       9.949   0.714  11.424  1.00  0.00     0.183 C 
HETATM   11  C22 UNL     1       8.856  -0.252  11.144  1.00  0.00     0.099 C 
HETATM   12  C19 UNL     1       7.490   0.359  11.133  1.00  0.00     0.062 C 
HETATM   13  C21 UNL     1       8.209  -0.833  12.354  1.00  0.00     0.062 C 
HETATM   14  C18 UNL     1       7.654   0.542  12.615  1.00  0.00     0.060 C 
HETATM   15  C20 UNL     1       6.978  -1.011  11.499  1.00  0.00     0.133 C 
BRANCH  10  16
HETATM   16  C3  UNL     1      11.288   0.146  11.002  1.00  0.00     0.202 C 
BRANCH  16  17
HETATM   17  O2  UNL     1      12.119  -0.101  12.053  1.00  0.00    -0.386 OA
BRANCH  17  18
HETATM   18  C2  UNL     1      12.767  -1.303  11.914  1.00  0.00     0.193 C 
BRANCH  18  19
HETATM   19  C1  UNL     1      11.820  -2.450  11.791  1.00  0.00     0.190 C 
BRANCH  19  20
HETATM   20  O1  UNL     1      11.086  -2.591  13.004  1.00  0.00    -0.399 OA
ATOM     21  H1  UNL     1      10.540  -3.367  12.955  1.00  0.00     0.209 HD
ENDBRANCH  19  20
ENDBRANCH  18  19
ENDBRANCH  17  18
ENDBRANCH  16  17
ENDBRANCH  10  16
BRANCH  11  22
HETATM   22  O10 UNL     1       9.168  -1.095  10.112  1.00  0.00    -0.386 OA
ATOM     23  H10 UNL     1       8.421  -1.262   9.550  1.00  0.00     0.210 HD
ENDBRANCH  11  22
BRANCH  15  24
HETATM   24  O9  UNL     1       7.004  -1.972  10.531  1.00  0.00    -0.395 OA
ATOM     25  H9  UNL     1       6.253  -2.031   9.952  1.00  0.00     0.210 HD
ENDBRANCH  15  24
ENDBRANCH   7   8
ENDBRANCH   1   7
BRANCH   6  26
HETATM   26  O8  UNL     1      10.640   1.908  15.885  1.00  0.00    -0.375 OA
BRANCH  26  27
HETATM   27  C12 UNL     1      11.717   1.046  15.854  1.00  0.00     0.122 C 
HETATM   28  C13 UNL     1      11.420  -0.393  15.674  1.00  0.00     0.032 C 
HETATM   29  C14 UNL     1      12.707  -1.180  15.967  1.00  0.00     0.002 C 
HETATM   30  C15 UNL     1      13.101  -1.080  17.406  1.00  0.00     0.000 C 
HETATM   31  C16 UNL     1      12.617   0.202  18.049  1.00  0.00     0.002 C 
HETATM   32  C17 UNL     1      12.580   1.342  17.057  1.00  0.00     0.032 C 
ENDBRANCH  26  27
ENDBRANCH   6  26
BRANCH   3  33
HETATM   33  O5  UNL     1       5.576   2.776  16.640  1.00  0.00    -0.393 OA
ATOM     34  H5  UNL     1       5.536   3.656  16.996  1.00  0.00     0.210 HD
ENDBRANCH   3  33
BRANCH   5  35
HETATM   35  O7  UNL     1       9.930   3.137  17.845  1.00  0.00    -0.390 OA
ATOM     36  H7  UNL     1      10.576   2.543  18.207  1.00  0.00     0.210 HD
ENDBRANCH   5  35
BRANCH   4  37
HETATM   37  O6  UNL     1       8.520   4.224  16.003  1.00  0.00    -0.390 OA
ATOM     38  H6  UNL     1       8.718   5.011  16.496  1.00  0.00     0.210 HD
ENDBRANCH   4  37
TORSDOF 14
ENDMDL
MODEL 5
REMARK VINA RESULT: -7.908407718      1.731      6.696
REMARK  14 active torsions:
REMARK  status: ('A' for Active; 'I' for Inactive)
REMARK    1  A    between atoms: O1_1  and  C1_3 
REMARK    2  A    between atoms: C1_3  and  C2_4 
REMARK    3  A    between atoms: C2_4  and  O2_5 
REMARK    4  A    between atoms: O2_5  and  C3_6 
REMARK    5  A    between atoms: C3_6  and  C4_7 
REMARK    6  A    between atoms: C5_9  and  O4_10 
REMARK    7  A    between atoms: O4_10  and  C6_11 
REMARK    8  A    between atoms: C8_13  and  O5_14 
REMARK    9  A    between atoms: C9_16  and  O6_17 
REMARK   10  A    between atoms: C10_19  and  O7_20 
REMARK   11  A    between atoms: C11_22  and  O8_23 
REMARK   12  A    between atoms: O8_23  and  C12_24 
REMARK   13  A    between atoms: C20_32  and  O9_33 
REMARK   14  A    between atoms: C22_36  and  O10_37 
ROOT
HETATM    1  C6  UNL     1       9.207   0.591  11.635  1.00  0.00     0.158 C 
HETATM    2  C7  UNL     1       7.795   1.205  11.446  1.00  0.00     0.069 C 
HETATM    3  C8  UNL     1       6.871   0.242  12.152  1.00  0.00     0.152 C 
HETATM    4  C9  UNL     1       6.975  -1.109  11.546  1.00  0.00     0.178 C 
HETATM    5  C10 UNL     1       7.897  -1.128  10.375  1.00  0.00     0.180 C 
HETATM    6  C11 UNL     1       9.261  -0.540  10.632  1.00  0.00     0.182 C 
ENDROOT
BRANCH   1   7
HETATM    7  O4  UNL     1       9.211   0.096  12.903  1.00  0.00    -0.353 OA
BRANCH   7   8
HETATM    8  C5  UNL     1       9.824   0.822  13.878  1.00  0.00     0.266 C 
HETATM    9  O3  UNL     1       9.019   0.971  15.029  1.00  0.00    -0.350 OA
HETATM   10  C4  UNL     1       9.795   1.808  15.866  1.00  0.00     0.183 C 
HETATM   11  C22 UNL     1      11.040   1.060  16.178  1.00  0.00     0.099 C 
HETATM   12  C19 UNL     1      12.039   1.048  15.064  1.00  0.00     0.062 C 
HETATM   13  C21 UNL     1      11.044  -0.362  15.737  1.00  0.00     0.062 C 
HETATM   14  C18 UNL     1      11.074   0.163  14.326  1.00  0.00     0.060 C 
HETATM   15  C20 UNL     1      12.546  -0.240  15.663  1.00  0.00     0.133 C 
BRANCH  10  16
HETATM   16  C3  UNL     1       9.040   2.147  17.134  1.00  0.00     0.202 C 
BRANCH  16  17
HETATM   17  O2  UNL     1       9.093   3.471  17.450  1.00  0.00    -0.386 OA
BRANCH  17  18
HETATM   18  C2  UNL     1       7.992   4.147  16.986  1.00  0.00     0.193 C 
BRANCH  18  19
HETATM   19  C1  UNL     1       7.560   5.235  17.912  1.00  0.00     0.190 C 
BRANCH  19  20
HETATM   20  O1  UNL     1       8.665   5.643  18.713  1.00  0.00    -0.399 OA
ATOM     21  H1  UNL     1       8.346   6.015  19.526  1.00  0.00     0.209 HD
ENDBRANCH  19  20
ENDBRANCH  18  19
ENDBRANCH  17  18
ENDBRANCH  16  17
ENDBRANCH  10  16
BRANCH  11  22
HETATM   22  O10 UNL     1      11.510   1.349  17.431  1.00  0.00    -0.386 OA
ATOM     23  H10 UNL     1      12.300   1.875  17.402  1.00  0.00     0.210 HD
ENDBRANCH  11  22
BRANCH  15  24
HETATM   24  O9  UNL     1      13.241  -0.159  16.834  1.00  0.00    -0.395 OA
ATOM     25  H9  UNL     1      13.018   0.548  17.428  1.00  0.00     0.210 HD
ENDBRANCH  15  24
ENDBRANCH   7   8
ENDBRANCH   1   7
BRANCH   6  26
HETATM   26  O8  UNL     1      10.127  -1.535  10.981  1.00  0.00    -0.375 OA
BRANCH  26  27
HETATM   27  C12 UNL     1      11.464  -1.201  10.927  1.00  0.00     0.122 C 
HETATM   28  C13 UNL     1      12.034  -0.926   9.588  1.00  0.00     0.032 C 
HETATM   29  C14 UNL     1      13.564  -0.876   9.729  1.00  0.00     0.002 C 
HETATM   30  C15 UNL     1      14.131  -2.213  10.085  1.00  0.00     0.000 C 
HETATM   31  C16 UNL     1      13.145  -3.074  10.846  1.00  0.00     0.002 C 
HETATM   32  C17 UNL     1      12.231  -2.238  11.712  1.00  0.00     0.032 C 
ENDBRANCH  26  27
ENDBRANCH   6  26
BRANCH   3  33
HETATM   33  O5  UNL     1       5.547   0.666  12.053  1.00  0.00    -0.393 OA
ATOM     34  H5  UNL     1       4.982  -0.053  11.794  1.00  0.00     0.210 HD
ENDBRANCH   3  33
BRANCH   5  35
HETATM   35  O7  UNL     1       8.108  -2.493  10.052  1.00  0.00    -0.390 OA
ATOM     36  H7  UNL     1       7.740  -2.998  10.768  1.00  0.00     0.210 HD
ENDBRANCH   5  35
BRANCH   4  37
HETATM   37  O6  UNL     1       7.420  -2.069  12.483  1.00  0.00    -0.390 OA
ATOM     38  H6  UNL     1       8.221  -2.492  12.199  1.00  0.00     0.210 HD
ENDBRANCH   4  37
TORSDOF 14
ENDMDL
