MODEL 1
REMARK VINA RESULT: -8.458676610      0.000      0.000
REMARK  11 active torsions:
REMARK  status: ('A' for Active; 'I' for Inactive)
REMARK    1  A    between atoms: O1_2  and  C2_3 
REMARK    2  A    between atoms: C4_6  and  O3_7 
REMARK    3  A    between atoms: O3_7  and  C5_8 
REMARK    4  A    between atoms: C9_12  and  O4_14 
REMARK    5  A    between atoms: C11_16  and  O5_17 
REMARK    6  A    between atoms: C12_19  and  O6_20 
REMARK    7  A    between atoms: O6_20  and  C13_21 
REMARK    8  A    between atoms: C16_24  and  O7_25 
REMARK    9  A    between atoms: C17_27  and  C18_28 
REMARK   10  A    between atoms: C18_28  and  O8_29 
REMARK   11  A    between atoms: C19_32  and  N1_33 
REMARK       I    between atoms: N1_33  and  C20_35 
ROOT
HETATM    1  C2  UNL     1       8.167   3.292  16.944  1.00  0.00     0.170 C 
HETATM    2  C3  UNL     1       7.273   2.735  15.872  1.00  0.00     0.205 C 
HETATM    3  O2  UNL     1       8.152   2.440  14.806  1.00  0.00    -0.356 OA
HETATM    4  C4  UNL     1       8.697   1.193  15.165  1.00  0.00     0.291 C 
HETATM    5  C12 UNL     1       9.776   1.484  16.147  1.00  0.00     0.205 C 
HETATM    6  C19 UNL     1       9.555   2.735  16.954  1.00  0.00     0.149 C 
ENDROOT
BRANCH   4   7
HETATM    7  O3  UNL     1       9.194   0.521  14.078  1.00  0.00    -0.351 OA
BRANCH   7   8
HETATM    8  C5  UNL     1       8.531   0.710  12.897  1.00  0.00     0.156 C 
HETATM    9  C6  UNL     1       7.290  -0.055  12.648  1.00  0.00     0.035 C 
HETATM   10  C7  UNL     1       6.546   0.655  11.499  1.00  0.00     0.006 C 
HETATM   11  C8  UNL     1       7.386   0.372  10.264  1.00  0.00     0.040 C 
HETATM   12  C9  UNL     1       8.696   1.110  10.496  1.00  0.00     0.082 C 
HETATM   13  C10 UNL     1       9.523   1.099   9.234  1.00  0.00     0.049 C 
HETATM   14  C11 UNL     1       9.442   0.550  11.682  1.00  0.00     0.181 C 
BRANCH  12  15
HETATM   15  O4  UNL     1       8.361   2.430  10.793  1.00  0.00    -0.388 OA
ATOM     16  H4  UNL     1       9.000   2.978  10.351  1.00  0.00     0.210 HD
ENDBRANCH  12  15
BRANCH  14  17
HETATM   17  O5  UNL     1       9.903  -0.728  11.505  1.00  0.00    -0.390 OA
ATOM     18  H5  UNL     1      10.434  -1.046  12.226  1.00  0.00     0.210 HD
ENDBRANCH  14  17
ENDBRANCH   7   8
ENDBRANCH   4   7
BRANCH   5  19
HETATM   19  O6  UNL     1      10.995   1.498  15.484  1.00  0.00    -0.349 OA
BRANCH  19  20
HETATM   20  C13 UNL     1      12.006   0.791  16.071  1.00  0.00     0.261 C 
HETATM   21  C14 UNL     1      12.205  -0.448  15.185  1.00  0.00     0.063 C 
HETATM   22  C15 UNL     1      13.336  -1.309  15.636  1.00  0.00     0.039 C 
HETATM   23  C16 UNL     1      13.666  -0.924  17.049  1.00  0.00     0.149 C 
HETATM   24  C17 UNL     1      12.427  -0.623  17.870  1.00  0.00     0.176 C 
HETATM   25  O9  UNL     1      11.642   0.384  17.361  1.00  0.00    -0.351 OA
BRANCH  23  26
HETATM   26  O7  UNL     1      14.304  -1.994  17.678  1.00  0.00    -0.393 OA
ATOM     27  H7  UNL     1      14.341  -1.829  18.613  1.00  0.00     0.210 HD
ENDBRANCH  23  26
BRANCH  24  28
HETATM   28  C18 UNL     1      12.979  -0.137  19.220  1.00  0.00     0.198 C 
BRANCH  28  29
HETATM   29  O8  UNL     1      14.002   0.790  18.910  1.00  0.00    -0.398 OA
ATOM     30  H8  UNL     1      14.717   0.599  19.506  1.00  0.00     0.209 HD
ENDBRANCH  28  29
ENDBRANCH  24  28
ENDBRANCH  19  20
ENDBRANCH   5  19
BRANCH   6  31
HETATM   31  N1  UNL     1       9.925   2.552  18.343  1.00  0.00    -0.352 N 
HETATM   32  C20 UNL     1      11.166   3.017  18.847  1.00  0.00     0.214 C 
HETATM   33  C21 UNL     1      11.601   2.864  20.239  1.00  0.00     0.117 C 
HETATM   34  O10 UNL     1      11.947   3.597  18.048  1.00  0.00    -0.274 OA
ATOM     35  H1  UNL     1       9.277   2.078  18.973  1.00  0.00     0.163 HD
ENDBRANCH   6  31
BRANCH   1  36
HETATM   36  O1  UNL     1       8.173   4.690  16.770  1.00  0.00    -0.386 OA
HETATM   37  C1  UNL     1       7.539   5.365  17.781  1.00  0.00     0.202 C 
ENDBRANCH   1  36
TORSDOF 11
ENDMDL
MODEL 2
REMARK VINA RESULT: -8.198716771      1.501      4.946
REMARK  11 active torsions:
REMARK  status: ('A' for Active; 'I' for Inactive)
REMARK    1  A    between atoms: O1_2  and  C2_3 
REMARK    2  A    between atoms: C4_6  and  O3_7 
REMARK    3  A    between atoms: O3_7  and  C5_8 
REMARK    4  A    between atoms: C9_12  and  O4_14 
REMARK    5  A    between atoms: C11_16  and  O5_17 
REMARK    6  A    between atoms: C12_19  and  O6_20 
REMARK    7  A    between atoms: O6_20  and  C13_21 
REMARK    8  A    between atoms: C16_24  and  O7_25 
REMARK    9  A    between atoms: C17_27  and  C18_28 
REMARK   10  A    between atoms: C18_28  and  O8_29 
REMARK   11  A    between atoms: C19_32  and  N1_33 
REMARK       I    between atoms: N1_33  and  C20_35 
ROOT
HETATM    1  C2  UNL     1      11.586   0.754  15.673  1.00  0.00     0.170 C 
HETATM    2  C3  UNL     1      11.369   0.257  14.272  1.00  0.00     0.205 C 
HETATM    3  O2  UNL     1      10.060  -0.272  14.290  1.00  0.00    -0.356 OA
HETATM    4  C4  UNL     1       9.244   0.866  14.139  1.00  0.00     0.291 C 
HETATM    5  C12 UNL     1       9.152   1.486  15.488  1.00  0.00     0.205 C 
HETATM    6  C19 UNL     1      10.351   1.238  16.364  1.00  0.00     0.149 C 
ENDROOT
BRANCH   4   7
HETATM    7  O3  UNL     1       7.999   0.541  13.665  1.00  0.00    -0.351 OA
BRANCH   7   8
HETATM    8  C5  UNL     1       7.754   0.844  12.354  1.00  0.00     0.156 C 
HETATM    9  C6  UNL     1       6.491   0.376  11.741  1.00  0.00     0.035 C 
HETATM   10  C7  UNL     1       6.278   1.205  10.459  1.00  0.00     0.006 C 
HETATM   11  C8  UNL     1       7.344   0.705   9.495  1.00  0.00     0.040 C 
HETATM   12  C9  UNL     1       8.668   1.130  10.110  1.00  0.00     0.082 C 
HETATM   13  C10 UNL     1       9.790   0.896   9.129  1.00  0.00     0.049 C 
HETATM   14  C11 UNL     1       8.907   0.447  11.435  1.00  0.00     0.181 C 
BRANCH  12  15
HETATM   15  O4  UNL     1       8.573   2.499  10.353  1.00  0.00    -0.388 OA
ATOM     16  H4  UNL     1       9.455   2.847  10.299  1.00  0.00     0.210 HD
ENDBRANCH  12  15
BRANCH  14  17
HETATM   17  O5  UNL     1       9.096  -0.907  11.344  1.00  0.00    -0.390 OA
ATOM     18  H5  UNL     1       9.998  -1.176  11.472  1.00  0.00     0.210 HD
ENDBRANCH  14  17
ENDBRANCH   7   8
ENDBRANCH   4   7
BRANCH   5  19
HETATM   19  O6  UNL     1       7.971   1.078  16.091  1.00  0.00    -0.349 OA
BRANCH  19  20
HETATM   20  C13 UNL     1       7.172   2.072  16.582  1.00  0.00     0.261 C 
HETATM   21  C14 UNL     1       5.980   2.153  15.616  1.00  0.00     0.063 C 
HETATM   22  C15 UNL     1       4.954   3.146  16.043  1.00  0.00     0.039 C 
HETATM   23  C16 UNL     1       5.591   4.054  17.054  1.00  0.00     0.149 C 
HETATM   24  C17 UNL     1       7.027   4.390  16.704  1.00  0.00     0.176 C 
HETATM   25  O9  UNL     1       7.852   3.297  16.583  1.00  0.00    -0.351 OA
BRANCH  23  26
HETATM   26  O7  UNL     1       4.899   5.265  17.083  1.00  0.00    -0.393 OA
ATOM     27  H7  UNL     1       5.350   5.895  16.533  1.00  0.00     0.210 HD
ENDBRANCH  23  26
BRANCH  24  28
HETATM   28  C18 UNL     1       7.525   5.209  17.906  1.00  0.00     0.198 C 
BRANCH  28  29
HETATM   29  O8  UNL     1       8.800   4.690  18.229  1.00  0.00    -0.398 OA
ATOM     30  H8  UNL     1       8.647   3.822  18.584  1.00  0.00     0.209 HD
ENDBRANCH  28  29
ENDBRANCH  24  28
ENDBRANCH  19  20
ENDBRANCH   5  19
BRANCH   6  31
HETATM   31  N1  UNL     1      10.724   2.422  17.112  1.00  0.00    -0.352 N 
HETATM   32  C20 UNL     1      11.322   2.329  18.395  1.00  0.00     0.214 C 
HETATM   33  C21 UNL     1      11.722   3.485  19.203  1.00  0.00     0.117 C 
HETATM   34  O10 UNL     1      11.520   1.182  18.872  1.00  0.00    -0.274 OA
ATOM     35  H1  UNL     1      10.553   3.342  16.707  1.00  0.00     0.163 HD
ENDBRANCH   6  31
BRANCH   1  36
HETATM   36  O1  UNL     1      12.192  -0.304  16.381  1.00  0.00    -0.386 OA
HETATM   37  C1  UNL     1      13.003  -1.085  15.599  1.00  0.00     0.202 C 
ENDBRANCH   1  36
TORSDOF 11
ENDMDL
MODEL 3
REMARK VINA RESULT: -8.099090201      1.962      5.054
REMARK  11 active torsions:
REMARK  status: ('A' for Active; 'I' for Inactive)
REMARK    1  A    between atoms: O1_2  and  C2_3 
REMARK    2  A    between atoms: C4_6  and  O3_7 
REMARK    3  A    between atoms: O3_7  and  C5_8 
REMARK    4  A    between atoms: C9_12  and  O4_14 
REMARK    5  A    between atoms: C11_16  and  O5_17 
REMARK    6  A    between atoms: C12_19  and  O6_20 
REMARK    7  A    between atoms: O6_20  and  C13_21 
REMARK    8  A    between atoms: C16_24  and  O7_25 
REMARK    9  A    between atoms: C17_27  and  C18_28 
REMARK   10  A    between atoms: C18_28  and  O8_29 
REMARK   11  A    between atoms: C19_32  and  N1_33 
REMARK       I    between atoms: N1_33  and  C20_35 
ROOT
HETATM    1  C2  UNL     1      12.183  -0.435  13.145  1.00  0.00     0.170 C 
HETATM    2  C3  UNL     1      11.517  -0.017  11.865  1.00  0.00     0.205 C 
HETATM    3  O2  UNL     1      10.137  -0.045  12.167  1.00  0.00    -0.356 OA
HETATM    4  C4  UNL     1       9.919   1.183  12.820  1.00  0.00     0.291 C 
HETATM    5  C12 UNL     1      10.364   0.984  14.226  1.00  0.00     0.205 C 
HETATM    6  C19 UNL     1      11.452  -0.043  14.389  1.00  0.00     0.149 C 
ENDROOT
BRANCH   4   7
HETATM    7  O3  UNL     1       8.601   1.558  12.774  1.00  0.00    -0.351 OA
BRANCH   7   8
HETATM    8  C5  UNL     1       7.751   0.701  12.132  1.00  0.00     0.156 C 
HETATM    9  C6  UNL     1       7.224   1.085  10.804  1.00  0.00     0.035 C 
HETATM   10  C7  UNL     1       6.684  -0.201  10.145  1.00  0.00     0.006 C 
HETATM   11  C8  UNL     1       5.430  -0.541  10.936  1.00  0.00     0.040 C 
HETATM   12  C9  UNL     1       5.924  -0.904  12.328  1.00  0.00     0.082 C 
HETATM   13  C10 UNL     1       4.793  -1.487  13.139  1.00  0.00     0.049 C 
HETATM   14  C11 UNL     1       6.575   0.276  13.008  1.00  0.00     0.181 C 
BRANCH  12  15
HETATM   15  O4  UNL     1       6.899  -1.885  12.162  1.00  0.00    -0.388 OA
ATOM     16  H4  UNL     1       7.110  -2.208  13.030  1.00  0.00     0.210 HD
ENDBRANCH  12  15
BRANCH  14  17
HETATM   17  O5  UNL     1       5.714   1.300  13.306  1.00  0.00    -0.390 OA
ATOM     18  H5  UNL     1       5.955   1.787  14.086  1.00  0.00     0.210 HD
ENDBRANCH  14  17
ENDBRANCH   7   8
ENDBRANCH   4   7
BRANCH   5  19
HETATM   19  O6  UNL     1       9.257   0.701  15.012  1.00  0.00    -0.349 OA
BRANCH  19  20
HETATM   20  C13 UNL     1       9.038   1.541  16.068  1.00  0.00     0.261 C 
HETATM   21  C14 UNL     1       8.390   2.796  15.464  1.00  0.00     0.063 C 
HETATM   22  C15 UNL     1       8.007   3.804  16.494  1.00  0.00     0.039 C 
HETATM   23  C16 UNL     1       8.745   3.469  17.757  1.00  0.00     0.149 C 
HETATM   24  C17 UNL     1      10.162   2.999  17.490  1.00  0.00     0.176 C 
HETATM   25  O9  UNL     1      10.249   1.893  16.678  1.00  0.00    -0.351 OA
BRANCH  23  26
HETATM   26  O7  UNL     1       8.852   4.615  18.544  1.00  0.00    -0.393 OA
ATOM     27  H7  UNL     1       9.090   4.366  19.430  1.00  0.00     0.210 HD
ENDBRANCH  23  26
BRANCH  24  28
HETATM   28  C18 UNL     1      10.691   2.593  18.876  1.00  0.00     0.198 C 
BRANCH  28  29
HETATM   29  O8  UNL     1      11.405   3.713  19.363  1.00  0.00    -0.398 OA
ATOM     30  H8  UNL     1      11.595   4.252  18.603  1.00  0.00     0.209 HD
ENDBRANCH  28  29
ENDBRANCH  24  28
ENDBRANCH  19  20
ENDBRANCH   5  19
BRANCH   6  31
HETATM   31  N1  UNL     1      12.452   0.380  15.349  1.00  0.00    -0.352 N 
HETATM   32  C20 UNL     1      12.908  -0.486  16.375  1.00  0.00     0.214 C 
HETATM   33  C21 UNL     1      13.915  -0.121  17.376  1.00  0.00     0.117 C 
HETATM   34  O10 UNL     1      12.416  -1.643  16.432  1.00  0.00    -0.274 OA
ATOM     35  H1  UNL     1      12.836   1.323  15.285  1.00  0.00     0.163 HD
ENDBRANCH   6  31
BRANCH   1  36
HETATM   36  O1  UNL     1      12.355  -1.832  13.066  1.00  0.00    -0.386 OA
HETATM   37  C1  UNL     1      12.615  -2.275  11.795  1.00  0.00     0.202 C 
ENDBRANCH   1  36
TORSDOF 11
ENDMDL
MODEL 4
REMARK VINA RESULT: -8.016260299      2.193      5.604
REMARK  11 active torsions:
REMARK  status: ('A' for Active; 'I' for Inactive)
REMARK    1  A    between atoms: O1_2  and  C2_3 
REMARK    2  A    between atoms: C4_6  and  O3_7 
REMARK    3  A    between atoms: O3_7  and  C5_8 
REMARK    4  A    between atoms: C9_12  and  O4_14 
REMARK    5  A    between atoms: C11_16  and  O5_17 
REMARK    6  A    between atoms: C12_19  and  O6_20 
REMARK    7  A    between atoms: O6_20  and  C13_21 
REMARK    8  A    between atoms: C16_24  and  O7_25 
REMARK    9  A    between atoms: C17_27  and  C18_28 
REMARK   10  A    between atoms: C18_28  and  O8_29 
REMARK   11  A    between atoms: C19_32  and  N1_33 
REMARK       I    between atoms: N1_33  and  C20_35 
ROOT
HETATM    1  C2  UNL     1       9.667   0.290  11.352  1.00  0.00     0.170 C 
HETATM    2  C3  UNL     1       8.347   0.871  11.774  1.00  0.00     0.205 C 
HETATM    3  O2  UNL     1       8.113   0.311  13.049  1.00  0.00    -0.356 OA
HETATM    4  C4  UNL     1       8.878   1.121  13.909  1.00  0.00     0.291 C 
HETATM    5  C12 UNL     1      10.277   0.623  13.803  1.00  0.00     0.205 C 
HETATM    6  C19 UNL     1      10.611  -0.001  12.475  1.00  0.00     0.149 C 
ENDROOT
BRANCH   4   7
HETATM    7  O3  UNL     1       8.433   1.053  15.204  1.00  0.00    -0.351 OA
BRANCH   7   8
HETATM    8  C5  UNL     1       8.084   2.241  15.786  1.00  0.00     0.156 C 
HETATM    9  C6  UNL     1       8.736   2.629  17.055  1.00  0.00     0.035 C 
HETATM   10  C7  UNL     1       8.503   4.143  17.237  1.00  0.00     0.006 C 
HETATM   11  C8  UNL     1       7.020   4.268  17.551  1.00  0.00     0.040 C 
HETATM   12  C9  UNL     1       6.306   3.837  16.279  1.00  0.00     0.082 C 
HETATM   13  C10 UNL     1       4.832   4.143  16.388  1.00  0.00     0.049 C 
HETATM   14  C11 UNL     1       6.574   2.386  15.960  1.00  0.00     0.181 C 
BRANCH  12  15
HETATM   15  O4  UNL     1       6.840   4.602  15.243  1.00  0.00    -0.388 OA
ATOM     16  H4  UNL     1       7.272   5.344  15.650  1.00  0.00     0.210 HD
ENDBRANCH  12  15
BRANCH  14  17
HETATM   17  O5  UNL     1       6.037   1.504  16.861  1.00  0.00    -0.390 OA
ATOM     18  H5  UNL     1       5.605   1.924  17.596  1.00  0.00     0.210 HD
ENDBRANCH  14  17
ENDBRANCH   7   8
ENDBRANCH   4   7
BRANCH   5  19
HETATM   19  O6  UNL     1      10.529  -0.237  14.862  1.00  0.00    -0.349 OA
BRANCH  19  20
HETATM   20  C13 UNL     1      11.579   0.097  15.671  1.00  0.00     0.261 C 
HETATM   21  C14 UNL     1      12.233  -1.235  16.064  1.00  0.00     0.063 C 
HETATM   22  C15 UNL     1      13.458  -1.059  16.896  1.00  0.00     0.039 C 
HETATM   23  C16 UNL     1      13.441   0.341  17.439  1.00  0.00     0.149 C 
HETATM   24  C17 UNL     1      12.049   0.787  17.843  1.00  0.00     0.176 C 
HETATM   25  O9  UNL     1      11.125   0.749  16.826  1.00  0.00    -0.351 OA
BRANCH  23  26
HETATM   26  O7  UNL     1      14.222   0.392  18.594  1.00  0.00    -0.393 OA
ATOM     27  H7  UNL     1      14.621   1.252  18.663  1.00  0.00     0.210 HD
ENDBRANCH  23  26
BRANCH  24  28
HETATM   28  C18 UNL     1      12.229   2.260  18.245  1.00  0.00     0.198 C 
BRANCH  28  29
HETATM   29  O8  UNL     1      12.332   2.267  19.655  1.00  0.00    -0.398 OA
ATOM     30  H8  UNL     1      11.577   2.751  19.970  1.00  0.00     0.209 HD
ENDBRANCH  28  29
ENDBRANCH  24  28
ENDBRANCH  19  20
ENDBRANCH   5  19
BRANCH   6  31
HETATM   31  N1  UNL     1      11.934   0.378  12.021  1.00  0.00    -0.352 N 
HETATM   32  C20 UNL     1      12.865  -0.588  11.564  1.00  0.00     0.214 C 
HETATM   33  C21 UNL     1      14.217  -0.273  11.092  1.00  0.00     0.117 C 
HETATM   34  O10 UNL     1      12.511  -1.796  11.565  1.00  0.00    -0.274 OA
ATOM     35  H1  UNL     1      12.201   1.363  12.030  1.00  0.00     0.163 HD
ENDBRANCH   6  31
BRANCH   1  36
HETATM   36  O1  UNL     1       9.371  -0.873  10.613  1.00  0.00    -0.386 OA
HETATM   37  C1  UNL     1       9.333  -0.660   9.259  1.00  0.00     0.202 C 
ENDBRANCH   1  36
TORSDOF 11
ENDMDL
MODEL 5
REMARK VINA RESULT: -7.905696788      2.069      5.628
REMARK  11 active torsions:
REMARK  status: ('A' for Active; 'I' for Inactive)
REMARK    1  A    between atoms: O1_2  and  C2_3 
REMARK    2  A    between atoms: C4_6  and  O3_7 
REMARK    3  A    between atoms: O3_7  and  C5_8 
REMARK    4  A    between atoms: C9_12  and  O4_14 
REMARK    5  A    between atoms: C11_16  and  O5_17 
REMARK    6  A    between atoms: C12_19  and  O6_20 
REMARK    7  A    between atoms: O6_20  and  C13_21 
REMARK    8  A    between atoms: C16_24  and  O7_25 
REMARK    9  A    between atoms: C17_27  and  C18_28 
REMARK   10  A    between atoms: C18_28  and  O8_29 
REMARK   11  A    between atoms: C19_32  and  N1_33 
REMARK       I    between atoms: N1_33  and  C20_35 
ROOT
HETATM    1  C2  UNL     1      12.057  -0.540  13.406  1.00  0.00     0.170 C 
HETATM    2  C3  UNL     1      11.445  -0.200  12.077  1.00  0.00     0.205 C 
HETATM    3  O2  UNL     1      10.059  -0.133  12.339  1.00  0.00    -0.356 OA
HETATM    4  C4  UNL     1       9.889   1.155  12.881  1.00  0.00     0.291 C 
HETATM    5  C12 UNL     1      10.288   1.054  14.310  1.00  0.00     0.205 C 
HETATM    6  C19 UNL     1      11.316  -0.008  14.591  1.00  0.00     0.149 C 
ENDROOT
BRANCH   4   7
HETATM    7  O3  UNL     1       8.594   1.590  12.764  1.00  0.00    -0.351 OA
BRANCH   7   8
HETATM    8  C5  UNL     1       7.729   0.747  12.122  1.00  0.00     0.156 C 
HETATM    9  C6  UNL     1       7.157   1.169  10.825  1.00  0.00     0.035 C 
HETATM   10  C7  UNL     1       6.604  -0.099  10.143  1.00  0.00     0.006 C 
HETATM   11  C8  UNL     1       5.378  -0.473  10.962  1.00  0.00     0.040 C 
HETATM   12  C9  UNL     1       5.919  -0.876  12.326  1.00  0.00     0.082 C 
HETATM   13  C10 UNL     1       4.819  -1.493  13.153  1.00  0.00     0.049 C 
HETATM   14  C11 UNL     1       6.584   0.286  13.022  1.00  0.00     0.181 C 
BRANCH  12  15
HETATM   15  O4  UNL     1       6.895  -1.845  12.096  1.00  0.00    -0.388 OA
ATOM     16  H4  UNL     1       6.448  -2.598  11.730  1.00  0.00     0.210 HD
ENDBRANCH  12  15
BRANCH  14  17
HETATM   17  O5  UNL     1       5.727   1.294  13.380  1.00  0.00    -0.390 OA
ATOM     18  H5  UNL     1       4.813   1.034  13.381  1.00  0.00     0.210 HD
ENDBRANCH  14  17
ENDBRANCH   7   8
ENDBRANCH   4   7
BRANCH   5  19
HETATM   19  O6  UNL     1       9.147   0.895  15.085  1.00  0.00    -0.349 OA
BRANCH  19  20
HETATM   20  C13 UNL     1       8.626   2.035  15.629  1.00  0.00     0.261 C 
HETATM   21  C14 UNL     1       9.442   2.290  16.905  1.00  0.00     0.063 C 
HETATM   22  C15 UNL     1       9.057   3.552  17.598  1.00  0.00     0.039 C 
HETATM   23  C16 UNL     1       7.716   3.972  17.069  1.00  0.00     0.149 C 
HETATM   24  C17 UNL     1       6.790   2.792  16.842  1.00  0.00     0.176 C 
HETATM   25  O9  UNL     1       7.279   1.849  15.970  1.00  0.00    -0.351 OA
BRANCH  23  26
HETATM   26  O7  UNL     1       7.088   4.789  18.010  1.00  0.00    -0.393 OA
ATOM     27  H7  UNL     1       6.302   4.357  18.323  1.00  0.00     0.210 HD
ENDBRANCH  23  26
BRANCH  24  28
HETATM   28  C18 UNL     1       5.543   3.414  16.193  1.00  0.00     0.198 C 
BRANCH  28  29
HETATM   29  O8  UNL     1       4.685   3.767  17.261  1.00  0.00    -0.398 OA
ATOM     30  H8  UNL     1       4.754   3.064  17.896  1.00  0.00     0.209 HD
ENDBRANCH  28  29
ENDBRANCH  24  28
ENDBRANCH  19  20
ENDBRANCH   5  19
BRANCH   6  31
HETATM   31  N1  UNL     1      12.312   0.445  15.541  1.00  0.00    -0.352 N 
HETATM   32  C20 UNL     1      12.790  -0.400  16.574  1.00  0.00     0.214 C 
HETATM   33  C21 UNL     1      13.795  -0.004  17.566  1.00  0.00     0.117 C 
HETATM   34  O10 UNL     1      12.321  -1.566  16.647  1.00  0.00    -0.274 OA
ATOM     35  H1  UNL     1      12.677   1.395  15.465  1.00  0.00     0.163 HD
ENDBRANCH   6  31
BRANCH   1  36
HETATM   36  O1  UNL     1      12.157  -1.946  13.450  1.00  0.00    -0.386 OA
HETATM   37  C1  UNL     1      12.258  -2.520  12.209  1.00  0.00     0.202 C 
ENDBRANCH   1  36
TORSDOF 11
ENDMDL
