MODEL 1
REMARK VINA RESULT: -8.774998304      0.000      0.000
REMARK  13 active torsions:
REMARK  status: ('A' for Active; 'I' for Inactive)
REMARK    1  A    between atoms: O1_1  and  C1_3 
REMARK    2  A    between atoms: C1_3  and  C2_4 
REMARK    3  A    between atoms: C7_10  and  O3_11 
REMARK    4  A    between atoms: O3_11  and  C8_12 
REMARK    5  A    between atoms: C8_12  and  C9_13 
REMARK    6  A    between atoms: C10_15  and  C11_16 
REMARK    7  A    between atoms: C11_16  and  N1_17 
REMARK    8  A    between atoms: N1_17  and  C12_20 
REMARK    9  A    between atoms: C18_26  and  O5_27 
REMARK   10  A    between atoms: C19_29  and  O6_30 
REMARK   11  A    between atoms: C20_32  and  O7_33 
REMARK   12  A    between atoms: C21_35  and  O8_36 
REMARK   13  A    between atoms: C22_38  and  O9_39 
ROOT
HETATM    1  O3  UNL     1      11.079  -0.558  14.457  1.00  0.00    -0.378 OA
ENDROOT
BRANCH   1   2
HETATM    2  C7  UNL     1      11.234   0.121  13.232  1.00  0.00     0.187 C 
HETATM    3  C3  UNL     1      11.031  -0.975  12.132  1.00  0.00     0.090 C 
HETATM    4  O2  UNL     1      10.224  -0.615  11.120  1.00  0.00    -0.367 OA
HETATM    5  C4  UNL     1      10.886  -2.358  12.664  1.00  0.00     0.041 C 
HETATM    6  C6  UNL     1      12.402  -1.400  11.584  1.00  0.00     0.041 C 
HETATM    7  C2  UNL     1       9.003  -0.151  11.142  1.00  0.00     0.177 C 
HETATM    8  C22 UNL     1       8.724   1.363  11.162  1.00  0.00     0.180 C 
HETATM    9  C21 UNL     1       9.329   2.025  12.441  1.00  0.00     0.180 C 
HETATM   10  C20 UNL     1      10.355   1.199  12.945  1.00  0.00     0.181 C 
HETATM   11  C5  UNL     1      11.858  -2.821  11.571  1.00  0.00     0.006 C 
BRANCH   7  12
HETATM   12  C1  UNL     1       8.327  -0.583   9.817  1.00  0.00     0.198 C 
BRANCH  12  13
HETATM   13  O1  UNL     1       8.720   0.353   8.876  1.00  0.00    -0.398 OA
ATOM     14  H1  UNL     1       9.548   0.698   9.189  1.00  0.00     0.209 HD
ENDBRANCH  12  13
ENDBRANCH   7  12
BRANCH   8  15
HETATM   15  O9  UNL     1       7.334   1.486  11.220  1.00  0.00    -0.390 OA
ATOM     16  H9  UNL     1       7.170   2.385  11.478  1.00  0.00     0.210 HD
ENDBRANCH   8  15
BRANCH   9  17
HETATM   17  O8  UNL     1       9.706   3.329  12.038  1.00  0.00    -0.390 OA
ATOM     18  H8  UNL     1       9.880   3.454  11.112  1.00  0.00     0.210 HD
ENDBRANCH   9  17
BRANCH  10  19
HETATM   19  O7  UNL     1      11.050   1.412  11.713  1.00  0.00    -0.390 OA
ATOM     20  H7  UNL     1      11.492   2.156  12.105  1.00  0.00     0.210 HD
ENDBRANCH  10  19
ENDBRANCH   1   2
BRANCH   1  21
HETATM   21  C8  UNL     1      12.137  -0.352  15.334  1.00  0.00     0.203 C 
BRANCH  21  22
HETATM   22  C9  UNL     1      11.858   0.910  16.080  1.00  0.00     0.177 C 
HETATM   23  O4  UNL     1      10.507   1.243  16.114  1.00  0.00    -0.371 OA
HETATM   24  C10 UNL     1      10.433   2.271  17.057  1.00  0.00     0.179 C 
HETATM   25  C18 UNL     1      11.471   1.960  18.105  1.00  0.00     0.180 C 
HETATM   26  C19 UNL     1      12.113   0.705  17.557  1.00  0.00     0.180 C 
BRANCH  24  27
HETATM   27  C11 UNL     1       9.086   2.316  17.728  1.00  0.00     0.267 C 
BRANCH  27  28
HETATM   28  N1  UNL     1       8.383   3.508  17.365  1.00  0.00    -0.068 N 
ATOM     29  H12 UNL     1       7.676   3.732  18.065  1.00  0.00     0.277 HD
ATOM     30  H11 UNL     1       8.987   4.324  17.462  1.00  0.00     0.277 HD
BRANCH  28  31
HETATM   31  C12 UNL     1       7.800   3.471  16.061  1.00  0.00     0.186 C 
HETATM   32  C13 UNL     1       6.929   2.261  15.920  1.00  0.00     0.033 C 
HETATM   33  C14 UNL     1       5.691   2.293  16.755  1.00  0.00     0.002 C 
HETATM   34  C15 UNL     1       4.935   3.592  16.672  1.00  0.00     0.000 C 
HETATM   35  C16 UNL     1       5.912   4.733  16.965  1.00  0.00     0.002 C 
HETATM   36  C17 UNL     1       6.940   4.701  15.854  1.00  0.00     0.033 C 
ENDBRANCH  28  31
ENDBRANCH  27  28
ENDBRANCH  24  27
BRANCH  25  37
HETATM   37  O5  UNL     1      12.436   2.964  18.060  1.00  0.00    -0.390 OA
ATOM     38  H5  UNL     1      12.256   3.571  18.768  1.00  0.00     0.210 HD
ENDBRANCH  25  37
BRANCH  26  39
HETATM   39  O6  UNL     1      13.462   0.629  17.856  1.00  0.00    -0.390 OA
ATOM     40  H6  UNL     1      13.884  -0.117  17.446  1.00  0.00     0.210 HD
ENDBRANCH  26  39
ENDBRANCH  21  22
ENDBRANCH   1  21
TORSDOF 13
ENDMDL
MODEL 2
REMARK VINA RESULT: -8.690977421      2.699      6.084
REMARK  13 active torsions:
REMARK  status: ('A' for Active; 'I' for Inactive)
REMARK    1  A    between atoms: O1_1  and  C1_3 
REMARK    2  A    between atoms: C1_3  and  C2_4 
REMARK    3  A    between atoms: C7_10  and  O3_11 
REMARK    4  A    between atoms: O3_11  and  C8_12 
REMARK    5  A    between atoms: C8_12  and  C9_13 
REMARK    6  A    between atoms: C10_15  and  C11_16 
REMARK    7  A    between atoms: C11_16  and  N1_17 
REMARK    8  A    between atoms: N1_17  and  C12_20 
REMARK    9  A    between atoms: C18_26  and  O5_27 
REMARK   10  A    between atoms: C19_29  and  O6_30 
REMARK   11  A    between atoms: C20_32  and  O7_33 
REMARK   12  A    between atoms: C21_35  and  O8_36 
REMARK   13  A    between atoms: C22_38  and  O9_39 
ROOT
HETATM    1  O3  UNL     1       9.565   2.102  17.682  1.00  0.00    -0.378 OA
ENDROOT
BRANCH   1   2
HETATM    2  C7  UNL     1       9.089   3.165  16.889  1.00  0.00     0.187 C 
HETATM    3  C3  UNL     1       8.053   2.513  15.913  1.00  0.00     0.090 C 
HETATM    4  O2  UNL     1       6.894   3.181  15.792  1.00  0.00    -0.367 OA
HETATM    5  C4  UNL     1       7.980   1.028  16.000  1.00  0.00     0.041 C 
HETATM    6  C6  UNL     1       8.703   2.334  14.533  1.00  0.00     0.041 C 
HETATM    7  C2  UNL     1       6.054   3.582  16.710  1.00  0.00     0.177 C 
HETATM    8  C22 UNL     1       6.155   4.989  17.325  1.00  0.00     0.180 C 
HETATM    9  C21 UNL     1       7.522   5.183  18.055  1.00  0.00     0.180 C 
HETATM   10  C20 UNL     1       8.453   4.257  17.539  1.00  0.00     0.181 C 
HETATM   11  C5  UNL     1       7.987   0.993  14.467  1.00  0.00     0.006 C 
BRANCH   7  12
HETATM   12  C1  UNL     1       4.650   3.620  16.056  1.00  0.00     0.198 C 
BRANCH  12  13
HETATM   13  O1  UNL     1       4.767   2.899  14.881  1.00  0.00    -0.398 OA
ATOM     14  H1  UNL     1       3.892   2.581  14.688  1.00  0.00     0.209 HD
ENDBRANCH  12  13
ENDBRANCH   7  12
BRANCH   8  15
HETATM   15  O9  UNL     1       5.136   5.054  18.279  1.00  0.00    -0.390 OA
ATOM     16  H9  UNL     1       5.036   5.976  18.481  1.00  0.00     0.210 HD
ENDBRANCH   8  15
BRANCH   9  17
HETATM   17  O8  UNL     1       7.837   6.553  17.892  1.00  0.00    -0.390 OA
ATOM     18  H8  UNL     1       7.247   7.176  18.301  1.00  0.00     0.210 HD
ENDBRANCH   9  17
BRANCH  10  19
HETATM   19  O7  UNL     1       8.298   4.897  16.270  1.00  0.00    -0.390 OA
ATOM     20  H7  UNL     1       8.984   5.509  16.509  1.00  0.00     0.210 HD
ENDBRANCH  10  19
ENDBRANCH   1   2
BRANCH   1  21
HETATM   21  C8  UNL     1      10.946   2.112  17.839  1.00  0.00     0.203 C 
BRANCH  21  22
HETATM   22  C9  UNL     1      11.448   0.762  17.449  1.00  0.00     0.177 C 
HETATM   23  O4  UNL     1      11.293   0.486  16.094  1.00  0.00    -0.371 OA
HETATM   24  C10 UNL     1      12.047  -0.673  15.894  1.00  0.00     0.179 C 
HETATM   25  C18 UNL     1      13.231  -0.575  16.822  1.00  0.00     0.180 C 
HETATM   26  C19 UNL     1      12.957   0.722  17.552  1.00  0.00     0.180 C 
BRANCH  24  27
HETATM   27  C11 UNL     1      12.563  -0.765  14.483  1.00  0.00     0.267 C 
BRANCH  27  28
HETATM   28  N1  UNL     1      11.547  -0.387  13.548  1.00  0.00    -0.068 N 
ATOM     29  H12 UNL     1      10.621  -0.528  13.952  1.00  0.00     0.277 HD
ATOM     30  H11 UNL     1      11.532   0.626  13.428  1.00  0.00     0.277 HD
BRANCH  28  31
HETATM   31  C12 UNL     1      11.646  -1.039  12.281  1.00  0.00     0.186 C 
HETATM   32  C13 UNL     1      10.585  -2.087  12.157  1.00  0.00     0.033 C 
HETATM   33  C14 UNL     1       9.195  -1.550  12.063  1.00  0.00     0.002 C 
HETATM   34  C15 UNL     1       9.045  -0.422  11.077  1.00  0.00     0.000 C 
HETATM   35  C16 UNL     1      10.101   0.638  11.398  1.00  0.00     0.002 C 
HETATM   36  C17 UNL     1      11.443  -0.026  11.172  1.00  0.00     0.033 C 
ENDBRANCH  28  31
ENDBRANCH  27  28
ENDBRANCH  24  27
BRANCH  25  37
HETATM   37  O5  UNL     1      13.123  -1.599  17.760  1.00  0.00    -0.390 OA
ATOM     38  H5  UNL     1      13.859  -1.525  18.357  1.00  0.00     0.210 HD
ENDBRANCH  25  37
BRANCH  26  39
HETATM   39  O6  UNL     1      13.399   0.693  18.863  1.00  0.00    -0.390 OA
ATOM     40  H6  UNL     1      14.346   0.644  18.926  1.00  0.00     0.210 HD
ENDBRANCH  26  39
ENDBRANCH  21  22
ENDBRANCH   1  21
TORSDOF 13
ENDMDL
MODEL 3
REMARK VINA RESULT: -8.411006157      1.241      1.800
REMARK  13 active torsions:
REMARK  status: ('A' for Active; 'I' for Inactive)
REMARK    1  A    between atoms: O1_1  and  C1_3 
REMARK    2  A    between atoms: C1_3  and  C2_4 
REMARK    3  A    between atoms: C7_10  and  O3_11 
REMARK    4  A    between atoms: O3_11  and  C8_12 
REMARK    5  A    between atoms: C8_12  and  C9_13 
REMARK    6  A    between atoms: C10_15  and  C11_16 
REMARK    7  A    between atoms: C11_16  and  N1_17 
REMARK    8  A    between atoms: N1_17  and  C12_20 
REMARK    9  A    between atoms: C18_26  and  O5_27 
REMARK   10  A    between atoms: C19_29  and  O6_30 
REMARK   11  A    between atoms: C20_32  and  O7_33 
REMARK   12  A    between atoms: C21_35  and  O8_36 
REMARK   13  A    between atoms: C22_38  and  O9_39 
ROOT
HETATM    1  O3  UNL     1      11.381  -0.614  14.374  1.00  0.00    -0.378 OA
ENDROOT
BRANCH   1   2
HETATM    2  C7  UNL     1      11.334  -0.016  13.099  1.00  0.00     0.187 C 
HETATM    3  C3  UNL     1      10.926  -1.171  12.123  1.00  0.00     0.090 C 
HETATM    4  O2  UNL     1       9.963  -0.850  11.243  1.00  0.00    -0.367 OA
HETATM    5  C4  UNL     1      10.850  -2.514  12.760  1.00  0.00     0.041 C 
HETATM    6  C6  UNL     1      12.174  -1.667  11.378  1.00  0.00     0.041 C 
HETATM    7  C2  UNL     1       8.772  -0.350  11.443  1.00  0.00     0.177 C 
HETATM    8  C22 UNL     1       8.528   1.169  11.412  1.00  0.00     0.180 C 
HETATM    9  C21 UNL     1       9.355   1.890  12.523  1.00  0.00     0.180 C 
HETATM   10  C20 UNL     1      10.438   1.068  12.897  1.00  0.00     0.181 C 
HETATM   11  C5  UNL     1      11.611  -3.070  11.550  1.00  0.00     0.006 C 
BRANCH   7  12
HETATM   12  C1  UNL     1       7.870  -0.843  10.284  1.00  0.00     0.198 C 
BRANCH  12  13
HETATM   13  O1  UNL     1       6.981  -1.734  10.855  1.00  0.00    -0.398 OA
ATOM     14  H1  UNL     1       6.152  -1.272  10.907  1.00  0.00     0.209 HD
ENDBRANCH  12  13
ENDBRANCH   7  12
BRANCH   8  15
HETATM   15  O9  UNL     1       7.171   1.335  11.699  1.00  0.00    -0.390 OA
ATOM     16  H9  UNL     1       7.091   1.199  12.635  1.00  0.00     0.210 HD
ENDBRANCH   8  15
BRANCH   9  17
HETATM   17  O8  UNL     1       9.681   3.156  11.978  1.00  0.00    -0.390 OA
ATOM     18  H8  UNL     1      10.578   3.447  12.088  1.00  0.00     0.210 HD
ENDBRANCH   9  17
BRANCH  10  19
HETATM   19  O7  UNL     1      10.914   1.185  11.553  1.00  0.00    -0.390 OA
ATOM     20  H7  UNL     1      11.086   2.107  11.707  1.00  0.00     0.210 HD
ENDBRANCH  10  19
ENDBRANCH   1   2
BRANCH   1  21
HETATM   21  C8  UNL     1      12.674  -0.899  14.797  1.00  0.00     0.203 C 
BRANCH  21  22
HETATM   22  C9  UNL     1      12.967  -0.012  15.961  1.00  0.00     0.177 C 
HETATM   23  O4  UNL     1      12.249   1.181  15.939  1.00  0.00    -0.371 OA
HETATM   24  C10 UNL     1      12.457   1.726  17.208  1.00  0.00     0.179 C 
HETATM   25  C18 UNL     1      12.541   0.561  18.162  1.00  0.00     0.180 C 
HETATM   26  C19 UNL     1      12.417  -0.624  17.230  1.00  0.00     0.180 C 
BRANCH  24  27
HETATM   27  C11 UNL     1      11.308   2.600  17.634  1.00  0.00     0.267 C 
BRANCH  27  28
HETATM   28  N1  UNL     1      10.153   2.343  16.827  1.00  0.00    -0.068 N 
ATOM     29  H12 UNL     1      10.096   3.016  16.063  1.00  0.00     0.277 HD
ATOM     30  H11 UNL     1      10.275   1.483  16.293  1.00  0.00     0.277 HD
BRANCH  28  31
HETATM   31  C12 UNL     1       8.925   2.309  17.557  1.00  0.00     0.186 C 
HETATM   32  C13 UNL     1       8.487   3.700  17.893  1.00  0.00     0.033 C 
HETATM   33  C14 UNL     1       8.064   4.516  16.716  1.00  0.00     0.002 C 
HETATM   34  C15 UNL     1       7.125   3.796  15.784  1.00  0.00     0.000 C 
HETATM   35  C16 UNL     1       7.753   2.450  15.416  1.00  0.00     0.002 C 
HETATM   36  C17 UNL     1       7.848   1.665  16.707  1.00  0.00     0.033 C 
ENDBRANCH  28  31
ENDBRANCH  27  28
ENDBRANCH  24  27
BRANCH  25  37
HETATM   37  O5  UNL     1      13.831   0.532  18.687  1.00  0.00    -0.390 OA
ATOM     38  H5  UNL     1      14.414   0.214  18.007  1.00  0.00     0.210 HD
ENDBRANCH  25  37
BRANCH  26  39
HETATM   39  O6  UNL     1      13.157  -1.712  17.658  1.00  0.00    -0.390 OA
ATOM     40  H6  UNL     1      12.645  -2.316  18.182  1.00  0.00     0.210 HD
ENDBRANCH  26  39
ENDBRANCH  21  22
ENDBRANCH   1  21
TORSDOF 13
ENDMDL
MODEL 4
REMARK VINA RESULT: -8.252404435      3.657      7.834
REMARK  13 active torsions:
REMARK  status: ('A' for Active; 'I' for Inactive)
REMARK    1  A    between atoms: O1_1  and  C1_3 
REMARK    2  A    between atoms: C1_3  and  C2_4 
REMARK    3  A    between atoms: C7_10  and  O3_11 
REMARK    4  A    between atoms: O3_11  and  C8_12 
REMARK    5  A    between atoms: C8_12  and  C9_13 
REMARK    6  A    between atoms: C10_15  and  C11_16 
REMARK    7  A    between atoms: C11_16  and  N1_17 
REMARK    8  A    between atoms: N1_17  and  C12_20 
REMARK    9  A    between atoms: C18_26  and  O5_27 
REMARK   10  A    between atoms: C19_29  and  O6_30 
REMARK   11  A    between atoms: C20_32  and  O7_33 
REMARK   12  A    between atoms: C21_35  and  O8_36 
REMARK   13  A    between atoms: C22_38  and  O9_39 
ROOT
HETATM    1  O3  UNL     1       8.140   3.840  17.568  1.00  0.00    -0.378 OA
ENDROOT
BRANCH   1   2
HETATM    2  C7  UNL     1       7.569   5.117  17.395  1.00  0.00     0.187 C 
HETATM    3  C3  UNL     1       6.031   4.859  17.255  1.00  0.00     0.090 C 
HETATM    4  O2  UNL     1       5.254   5.675  17.987  1.00  0.00    -0.367 OA
HETATM    5  C4  UNL     1       5.653   3.420  17.204  1.00  0.00     0.041 C 
HETATM    6  C6  UNL     1       5.638   4.948  15.773  1.00  0.00     0.041 C 
HETATM    7  C2  UNL     1       5.280   5.938  19.267  1.00  0.00     0.177 C 
HETATM    8  C22 UNL     1       6.086   7.126  19.822  1.00  0.00     0.180 C 
HETATM    9  C21 UNL     1       7.608   6.962  19.511  1.00  0.00     0.180 C 
HETATM   10  C20 UNL     1       7.762   6.084  18.418  1.00  0.00     0.181 C 
HETATM   11  C5  UNL     1       4.719   3.765  16.037  1.00  0.00     0.006 C 
BRANCH   7  12
HETATM   12  C1  UNL     1       3.835   6.309  19.684  1.00  0.00     0.198 C 
BRANCH  12  13
HETATM   13  O1  UNL     1       3.517   7.443  18.959  1.00  0.00    -0.398 OA
ATOM     14  H1  UNL     1       2.783   7.840  19.413  1.00  0.00     0.209 HD
ENDBRANCH  12  13
ENDBRANCH   7  12
BRANCH   8  15
HETATM   15  O9  UNL     1       5.914   7.078  21.208  1.00  0.00    -0.390 OA
ATOM     16  H9  UNL     1       5.840   7.983  21.485  1.00  0.00     0.210 HD
ENDBRANCH   8  15
BRANCH   9  17
HETATM   17  O8  UNL     1       8.093   8.281  19.337  1.00  0.00    -0.390 OA
ATOM     18  H8  UNL     1       8.862   8.520  19.840  1.00  0.00     0.210 HD
ENDBRANCH   9  17
BRANCH  10  19
HETATM   19  O7  UNL     1       7.036   7.033  17.631  1.00  0.00    -0.390 OA
ATOM     20  H7  UNL     1       6.400   6.357  17.426  1.00  0.00     0.210 HD
ENDBRANCH  10  19
ENDBRANCH   1   2
BRANCH   1  21
HETATM   21  C8  UNL     1       9.391   3.877  18.173  1.00  0.00     0.203 C 
BRANCH  21  22
HETATM   22  C9  UNL     1      10.078   2.591  17.853  1.00  0.00     0.177 C 
HETATM   23  O4  UNL     1       9.965   2.224  16.515  1.00  0.00    -0.371 OA
HETATM   24  C10 UNL     1      10.874   1.173  16.373  1.00  0.00     0.179 C 
HETATM   25  C18 UNL     1      12.031   1.486  17.288  1.00  0.00     0.180 C 
HETATM   26  C19 UNL     1      11.578   2.769  17.948  1.00  0.00     0.180 C 
BRANCH  24  27
HETATM   27  C11 UNL     1      11.401   1.078  14.966  1.00  0.00     0.267 C 
BRANCH  27  28
HETATM   28  N1  UNL     1      10.417   1.527  14.028  1.00  0.00    -0.068 N 
ATOM     29  H12 UNL     1       9.843   2.264  14.438  1.00  0.00     0.277 HD
ATOM     30  H11 UNL     1      10.857   2.051  13.272  1.00  0.00     0.277 HD
BRANCH  28  31
HETATM   31  C12 UNL     1       9.592   0.486  13.501  1.00  0.00     0.186 C 
HETATM   32  C13 UNL     1       8.480   1.070  12.689  1.00  0.00     0.033 C 
HETATM   33  C14 UNL     1       8.920   1.719  11.417  1.00  0.00     0.002 C 
HETATM   34  C15 UNL     1       9.881   0.886  10.611  1.00  0.00     0.000 C 
HETATM   35  C16 UNL     1      11.034   0.466  11.526  1.00  0.00     0.002 C 
HETATM   36  C17 UNL     1      10.419  -0.408  12.599  1.00  0.00     0.033 C 
ENDBRANCH  28  31
ENDBRANCH  27  28
ENDBRANCH  24  27
BRANCH  25  37
HETATM   37  O5  UNL     1      12.066   0.508  18.279  1.00  0.00    -0.390 OA
ATOM     38  H5  UNL     1      12.957   0.184  18.336  1.00  0.00     0.210 HD
ENDBRANCH  25  37
BRANCH  26  39
HETATM   39  O6  UNL     1      12.017   2.872  19.257  1.00  0.00    -0.390 OA
ATOM     40  H6  UNL     1      12.183   3.772  19.514  1.00  0.00     0.210 HD
ENDBRANCH  26  39
ENDBRANCH  21  22
ENDBRANCH   1  21
TORSDOF 13
ENDMDL
MODEL 5
REMARK VINA RESULT: -8.201464392      3.636      7.750
REMARK  13 active torsions:
REMARK  status: ('A' for Active; 'I' for Inactive)
REMARK    1  A    between atoms: O1_1  and  C1_3 
REMARK    2  A    between atoms: C1_3  and  C2_4 
REMARK    3  A    between atoms: C7_10  and  O3_11 
REMARK    4  A    between atoms: O3_11  and  C8_12 
REMARK    5  A    between atoms: C8_12  and  C9_13 
REMARK    6  A    between atoms: C10_15  and  C11_16 
REMARK    7  A    between atoms: C11_16  and  N1_17 
REMARK    8  A    between atoms: N1_17  and  C12_20 
REMARK    9  A    between atoms: C18_26  and  O5_27 
REMARK   10  A    between atoms: C19_29  and  O6_30 
REMARK   11  A    between atoms: C20_32  and  O7_33 
REMARK   12  A    between atoms: C21_35  and  O8_36 
REMARK   13  A    between atoms: C22_38  and  O9_39 
ROOT
HETATM    1  O3  UNL     1       8.128   3.820  17.541  1.00  0.00    -0.378 OA
ENDROOT
BRANCH   1   2
HETATM    2  C7  UNL     1       7.560   5.099  17.370  1.00  0.00     0.187 C 
HETATM    3  C3  UNL     1       6.019   4.847  17.249  1.00  0.00     0.090 C 
HETATM    4  O2  UNL     1       5.255   5.669  17.985  1.00  0.00    -0.367 OA
HETATM    5  C4  UNL     1       5.635   3.409  17.208  1.00  0.00     0.041 C 
HETATM    6  C6  UNL     1       5.609   4.931  15.771  1.00  0.00     0.041 C 
HETATM    7  C2  UNL     1       5.296   5.937  19.264  1.00  0.00     0.177 C 
HETATM    8  C22 UNL     1       6.113   7.125  19.805  1.00  0.00     0.180 C 
HETATM    9  C21 UNL     1       7.630   6.953  19.477  1.00  0.00     0.180 C 
HETATM   10  C20 UNL     1       7.768   6.070  18.386  1.00  0.00     0.181 C 
HETATM   11  C5  UNL     1       4.689   3.752  16.051  1.00  0.00     0.006 C 
BRANCH   7  12
HETATM   12  C1  UNL     1       3.858   6.317  19.696  1.00  0.00     0.198 C 
BRANCH  12  13
HETATM   13  O1  UNL     1       3.522   7.427  18.943  1.00  0.00    -0.398 OA
ATOM     14  H1  UNL     1       3.026   7.095  18.204  1.00  0.00     0.209 HD
ENDBRANCH  12  13
ENDBRANCH   7  12
BRANCH   8  15
HETATM   15  O9  UNL     1       5.958   7.084  21.192  1.00  0.00    -0.390 OA
ATOM     16  H9  UNL     1       5.116   6.669  21.341  1.00  0.00     0.210 HD
ENDBRANCH   8  15
BRANCH   9  17
HETATM   17  O8  UNL     1       8.119   8.269  19.291  1.00  0.00    -0.390 OA
ATOM     18  H8  UNL     1       9.032   8.417  19.505  1.00  0.00     0.210 HD
ENDBRANCH   9  17
BRANCH  10  19
HETATM   19  O7  UNL     1       7.037   7.018  17.602  1.00  0.00    -0.390 OA
ATOM     20  H7  UNL     1       7.561   6.778  16.847  1.00  0.00     0.210 HD
ENDBRANCH  10  19
ENDBRANCH   1   2
BRANCH   1  21
HETATM   21  C8  UNL     1       9.341   3.847  18.217  1.00  0.00     0.203 C 
BRANCH  21  22
HETATM   22  C9  UNL     1      10.058   2.578  17.897  1.00  0.00     0.177 C 
HETATM   23  O4  UNL     1       9.905   2.178  16.572  1.00  0.00    -0.371 OA
HETATM   24  C10 UNL     1      10.842   1.155  16.414  1.00  0.00     0.179 C 
HETATM   25  C18 UNL     1      12.023   1.524  17.275  1.00  0.00     0.180 C 
HETATM   26  C19 UNL     1      11.553   2.805  17.928  1.00  0.00     0.180 C 
BRANCH  24  27
HETATM   27  C11 UNL     1      11.315   1.047  14.989  1.00  0.00     0.267 C 
BRANCH  27  28
HETATM   28  N1  UNL     1      10.293   1.479  14.085  1.00  0.00    -0.068 N 
ATOM     29  H12 UNL     1       9.396   1.066  14.337  1.00  0.00     0.277 HD
ATOM     30  H11 UNL     1      10.079   2.465  14.233  1.00  0.00     0.277 HD
BRANCH  28  31
HETATM   31  C12 UNL     1      10.588   1.232  12.708  1.00  0.00     0.186 C 
HETATM   32  C13 UNL     1      10.856  -0.224  12.492  1.00  0.00     0.033 C 
HETATM   33  C14 UNL     1       9.660  -1.103  12.661  1.00  0.00     0.002 C 
HETATM   34  C15 UNL     1       8.432  -0.603  11.946  1.00  0.00     0.000 C 
HETATM   35  C16 UNL     1       8.198   0.852  12.358  1.00  0.00     0.002 C 
HETATM   36  C17 UNL     1       9.398   1.627  11.857  1.00  0.00     0.033 C 
ENDBRANCH  28  31
ENDBRANCH  27  28
ENDBRANCH  24  27
BRANCH  25  37
HETATM   37  O5  UNL     1      12.129   0.570  18.284  1.00  0.00    -0.390 OA
ATOM     38  H5  UNL     1      12.628  -0.163  17.940  1.00  0.00     0.210 HD
ENDBRANCH  25  37
BRANCH  26  39
HETATM   39  O6  UNL     1      12.040   2.951  19.215  1.00  0.00    -0.390 OA
ATOM     40  H6  UNL     1      12.882   3.392  19.237  1.00  0.00     0.210 HD
ENDBRANCH  26  39
ENDBRANCH  21  22
ENDBRANCH   1  21
TORSDOF 13
ENDMDL
