MODEL 1
REMARK VINA RESULT: -9.034957640      0.000      0.000
REMARK  2 active torsions:
REMARK  status: ('A' for Active; 'I' for Inactive)
REMARK    1  A    between atoms: C5_10  and  N3_11 
REMARK    2  A    between atoms: N5_17  and  C7_19 
ROOT
HETATM    1  C7  UNL     1      53.131  -7.352  67.282  1.00  0.00     0.115 C 
HETATM    2  C8  UNL     1      51.998  -6.825  66.443  1.00  0.00     0.062 C 
HETATM    3  C9  UNL     1      52.766  -7.233  65.251  1.00  0.00    -0.058 C 
HETATM    4  C10 UNL     1      52.817  -6.853  64.001  1.00  0.00     0.097 C 
HETATM    5  C11 UNL     1      53.680  -7.438  63.027  1.00  0.00     0.088 C 
HETATM    6  N6  UNL     1      54.363  -7.914  62.226  1.00  0.00    -0.192 NA
HETATM    7  C12 UNL     1      53.429  -8.231  66.083  1.00  0.00    -0.002 C 
HETATM    8  C13 UNL     1      54.877  -8.498  65.827  1.00  0.00     0.021 C 
HETATM    9  C14 UNL     1      52.577  -9.506  66.114  1.00  0.00     0.021 C 
ENDROOT
BRANCH   1  10
HETATM   10  N5  UNL     1      52.883  -8.120  68.417  1.00  0.00    -0.220 N 
HETATM   11  C6  UNL     1      52.231  -7.863  69.479  1.00  0.00     0.683 A 
HETATM   12  N4  UNL     1      51.634  -6.682  69.654  1.00  0.00    -0.176 N 
HETATM   13  N7  UNL     1      52.167  -8.855  70.437  1.00  0.00    -0.171 N 
HETATM   14  C5  UNL     1      50.942  -6.389  70.755  1.00  0.00     0.134 A 
ATOM     15  H4  UNL     1      51.709  -5.979  68.918  1.00  0.00     0.186 HD
HETATM   16  C4  UNL     1      50.849  -7.348  71.739  1.00  0.00     0.121 A 
HETATM   17  C3  UNL     1      50.139  -7.068  72.884  1.00  0.00     0.267 A 
HETATM   18  C16 UNL     1      51.479  -8.608  71.568  1.00  0.00     0.148 A 
HETATM   19  N2  UNL     1      50.050  -7.995  73.828  1.00  0.00    -0.274 N 
HETATM   20  O2  UNL     1      49.601  -5.938  72.986  1.00  0.00    -0.267 OA
HETATM   21  C2  UNL     1      50.648  -9.165  73.646  1.00  0.00     0.330 A 
ATOM     22  H2  UNL     1      49.528  -7.810  74.685  1.00  0.00     0.173 HD
HETATM   23  N1  UNL     1      51.376  -9.529  72.534  1.00  0.00    -0.288 N 
HETATM   24  O1  UNL     1      50.551 -10.042  74.565  1.00  0.00    -0.246 OA
HETATM   25  C1  UNL     1      51.973 -10.799  72.429  1.00  0.00     0.163 C 
HETATM   26  C15 UNL     1      52.820 -10.095  70.227  1.00  0.00     0.177 C 
ATOM     27  H5  UNL     1      53.297  -9.052  68.393  1.00  0.00     0.178 HD
BRANCH  14  28
HETATM   28  N3  UNL     1      50.370  -5.269  70.930  1.00  0.00    -0.384 N 
ATOM     29  H32 UNL     1      50.053  -4.947  71.845  1.00  0.00     0.157 HD
ATOM     30  H31 UNL     1      50.220  -4.659  70.126  1.00  0.00     0.157 HD
ENDBRANCH  14  28
ENDBRANCH   1  10
TORSDOF 2
ENDMDL
MODEL 2
REMARK VINA RESULT: -8.590625293      1.205      1.247
REMARK  2 active torsions:
REMARK  status: ('A' for Active; 'I' for Inactive)
REMARK    1  A    between atoms: C5_10  and  N3_11 
REMARK    2  A    between atoms: N5_17  and  C7_19 
ROOT
HETATM    1  C7  UNL     1      52.738  -7.454  68.189  1.00  0.00     0.115 C 
HETATM    2  C8  UNL     1      51.668  -6.860  67.313  1.00  0.00     0.062 C 
HETATM    3  C9  UNL     1      52.540  -7.139  66.156  1.00  0.00    -0.058 C 
HETATM    4  C10 UNL     1      52.687  -6.637  64.958  1.00  0.00     0.097 C 
HETATM    5  C11 UNL     1      53.639  -7.112  64.008  1.00  0.00     0.088 C 
HETATM    6  N6  UNL     1      54.396  -7.499  63.224  1.00  0.00    -0.192 NA
HETATM    7  C12 UNL     1      53.152  -8.206  66.940  1.00  0.00    -0.002 C 
HETATM    8  C13 UNL     1      54.620  -8.430  66.782  1.00  0.00     0.021 C 
HETATM    9  C14 UNL     1      52.325  -9.488  66.774  1.00  0.00     0.021 C 
ENDROOT
BRANCH   1  10
HETATM   10  N5  UNL     1      52.412  -8.333  69.219  1.00  0.00    -0.220 N 
HETATM   11  C6  UNL     1      52.085  -8.123  70.430  1.00  0.00     0.683 A 
HETATM   12  N4  UNL     1      52.005  -6.883  70.919  1.00  0.00    -0.176 N 
HETATM   13  N7  UNL     1      51.814  -9.228  71.212  1.00  0.00    -0.171 N 
HETATM   14  C5  UNL     1      51.662  -6.636  72.183  1.00  0.00     0.134 A 
ATOM     15  H4  UNL     1      52.215  -6.097  70.304  1.00  0.00     0.186 HD
HETATM   16  C4  UNL     1      51.381  -7.707  73.003  1.00  0.00     0.121 A 
HETATM   17  C3  UNL     1      51.022  -7.476  74.311  1.00  0.00     0.267 A 
HETATM   18  C16 UNL     1      51.462  -9.030  72.498  1.00  0.00     0.148 A 
HETATM   19  N2  UNL     1      50.752  -8.510  75.096  1.00  0.00    -0.274 N 
HETATM   20  O2  UNL     1      50.967  -6.286  74.709  1.00  0.00    -0.267 OA
HETATM   21  C2  UNL     1      50.834  -9.737  74.601  1.00  0.00     0.330 A 
ATOM     22  H2  UNL     1      50.483  -8.363  76.069  1.00  0.00     0.173 HD
HETATM   23  N1  UNL     1      51.183 -10.060  73.307  1.00  0.00    -0.288 N 
HETATM   24  O1  UNL     1      50.570 -10.718  75.371  1.00  0.00    -0.246 OA
HETATM   25  C1  UNL     1      51.240 -11.397  72.872  1.00  0.00     0.163 C 
HETATM   26  C15 UNL     1      51.917 -10.532  70.668  1.00  0.00     0.177 C 
ATOM     27  H5  UNL     1      52.440  -9.318  68.956  1.00  0.00     0.178 HD
BRANCH  14  28
HETATM   28  N3  UNL     1      51.583  -5.461  72.657  1.00  0.00    -0.384 N 
ATOM     29  H32 UNL     1      51.691  -5.257  73.651  1.00  0.00     0.157 HD
ATOM     30  H31 UNL     1      51.405  -4.682  72.023  1.00  0.00     0.157 HD
ENDBRANCH  14  28
ENDBRANCH   1  10
TORSDOF 2
ENDMDL
MODEL 3
REMARK VINA RESULT: -8.429435974      3.187      7.672
REMARK  2 active torsions:
REMARK  status: ('A' for Active; 'I' for Inactive)
REMARK    1  A    between atoms: C5_10  and  N3_11 
REMARK    2  A    between atoms: N5_17  and  C7_19 
ROOT
HETATM    1  C7  UNL     1      50.335  -7.379  71.189  1.00  0.00     0.115 C 
HETATM    2  C8  UNL     1      49.267  -6.414  71.632  1.00  0.00     0.062 C 
HETATM    3  C9  UNL     1      49.963  -6.328  72.930  1.00  0.00    -0.058 C 
HETATM    4  C10 UNL     1      49.614  -6.043  74.156  1.00  0.00     0.097 C 
HETATM    5  C11 UNL     1      50.518  -6.033  75.259  1.00  0.00     0.088 C 
HETATM    6  N6  UNL     1      51.245  -6.007  76.158  1.00  0.00    -0.192 NA
HETATM    7  C12 UNL     1      51.192  -6.698  72.237  1.00  0.00    -0.002 C 
HETATM    8  C13 UNL     1      52.155  -7.586  72.955  1.00  0.00     0.021 C 
HETATM    9  C14 UNL     1      51.849  -5.432  71.669  1.00  0.00     0.021 C 
ENDROOT
BRANCH   1  10
HETATM   10  N5  UNL     1      50.911  -7.277  69.925  1.00  0.00    -0.220 N 
HETATM   11  C6  UNL     1      51.438  -8.153  69.169  1.00  0.00     0.683 A 
HETATM   12  N4  UNL     1      51.512  -9.433  69.542  1.00  0.00    -0.176 N 
HETATM   13  N7  UNL     1      51.926  -7.725  67.951  1.00  0.00    -0.171 N 
HETATM   14  C5  UNL     1      52.057 -10.371  68.768  1.00  0.00     0.134 A 
ATOM     15  H4  UNL     1      51.138  -9.702  70.452  1.00  0.00     0.186 HD
HETATM   16  C4  UNL     1      52.556  -9.993  67.541  1.00  0.00     0.121 A 
HETATM   17  C3  UNL     1      53.122 -10.945  66.724  1.00  0.00     0.267 A 
HETATM   18  C16 UNL     1      52.486  -8.636  67.131  1.00  0.00     0.148 A 
HETATM   19  N2  UNL     1      53.601 -10.577  65.544  1.00  0.00    -0.274 N 
HETATM   20  O2  UNL     1      53.161 -12.131  67.135  1.00  0.00    -0.267 OA
HETATM   21  C2  UNL     1      53.523  -9.303  65.182  1.00  0.00     0.330 A 
ATOM     22  H2  UNL     1      54.023 -11.265  64.921  1.00  0.00     0.173 HD
HETATM   23  N1  UNL     1      52.975  -8.287  65.935  1.00  0.00    -0.288 N 
HETATM   24  O1  UNL     1      53.989  -8.969  64.043  1.00  0.00    -0.246 OA
HETATM   25  C1  UNL     1      52.934  -6.961  65.463  1.00  0.00     0.163 C 
HETATM   26  C15 UNL     1      51.843  -6.359  67.586  1.00  0.00     0.177 C 
ATOM     27  H5  UNL     1      50.909  -6.333  69.538  1.00  0.00     0.178 HD
BRANCH  14  28
HETATM   28  N3  UNL     1      52.131 -11.590  69.114  1.00  0.00    -0.384 N 
ATOM     29  H32 UNL     1      53.009 -12.038  69.377  1.00  0.00     0.157 HD
ATOM     30  H31 UNL     1      51.280 -12.152  69.133  1.00  0.00     0.157 HD
ENDBRANCH  14  28
ENDBRANCH   1  10
TORSDOF 2
ENDMDL
MODEL 4
REMARK VINA RESULT: -8.356666651      3.255      7.850
REMARK  2 active torsions:
REMARK  status: ('A' for Active; 'I' for Inactive)
REMARK    1  A    between atoms: C5_10  and  N3_11 
REMARK    2  A    between atoms: N5_17  and  C7_19 
ROOT
HETATM    1  C7  UNL     1      51.740  -7.724  71.771  1.00  0.00     0.115 C 
HETATM    2  C8  UNL     1      50.722  -8.665  72.357  1.00  0.00     0.062 C 
HETATM    3  C9  UNL     1      50.393  -7.609  73.334  1.00  0.00    -0.058 C 
HETATM    4  C10 UNL     1      49.893  -7.581  74.541  1.00  0.00     0.097 C 
HETATM    5  C11 UNL     1      49.673  -6.382  75.283  1.00  0.00     0.088 C 
HETATM    6  N6  UNL     1      49.476  -5.416  75.887  1.00  0.00    -0.192 NA
HETATM    7  C12 UNL     1      50.871  -6.633  72.362  1.00  0.00    -0.002 C 
HETATM    8  C13 UNL     1      51.604  -5.438  72.879  1.00  0.00     0.021 C 
HETATM    9  C14 UNL     1      49.724  -6.270  71.409  1.00  0.00     0.021 C 
ENDROOT
BRANCH   1  10
HETATM   10  N5  UNL     1      51.865  -7.576  70.392  1.00  0.00    -0.220 N 
HETATM   11  C6  UNL     1      52.373  -8.336  69.507  1.00  0.00     0.683 A 
HETATM   12  N4  UNL     1      52.914  -9.511  69.835  1.00  0.00    -0.176 N 
HETATM   13  N7  UNL     1      52.338  -7.894  68.199  1.00  0.00    -0.171 N 
HETATM   14  C5  UNL     1      53.450 -10.327  68.927  1.00  0.00     0.134 A 
ATOM     15  H4  UNL     1      52.917  -9.795  70.814  1.00  0.00     0.186 HD
HETATM   16  C4  UNL     1      53.437  -9.931  67.608  1.00  0.00     0.121 A 
HETATM   17  C3  UNL     1      53.983 -10.758  66.654  1.00  0.00     0.267 A 
HETATM   18  C16 UNL     1      52.866  -8.684  67.244  1.00  0.00     0.148 A 
HETATM   19  N2  UNL     1      53.968 -10.374  65.385  1.00  0.00    -0.274 N 
HETATM   20  O2  UNL     1      54.477 -11.850  67.028  1.00  0.00    -0.267 OA
HETATM   21  C2  UNL     1      53.428  -9.204  65.069  1.00  0.00     0.330 A 
ATOM     22  H2  UNL     1      54.366 -10.970  64.660  1.00  0.00     0.173 HD
HETATM   23  N1  UNL     1      52.861  -8.316  65.957  1.00  0.00    -0.288 N 
HETATM   24  O1  UNL     1      53.423  -8.852  63.844  1.00  0.00    -0.246 OA
HETATM   25  C1  UNL     1      52.308  -7.095  65.526  1.00  0.00     0.163 C 
HETATM   26  C15 UNL     1      51.766  -6.637  67.883  1.00  0.00     0.177 C 
ATOM     27  H5  UNL     1      51.481  -6.704  70.027  1.00  0.00     0.178 HD
BRANCH  14  28
HETATM   28  N3  UNL     1      53.966 -11.447  69.229  1.00  0.00    -0.384 N 
ATOM     29  H32 UNL     1      54.169 -11.721  70.191  1.00  0.00     0.157 HD
ATOM     30  H31 UNL     1      54.190 -12.106  68.483  1.00  0.00     0.157 HD
ENDBRANCH  14  28
ENDBRANCH   1  10
TORSDOF 2
ENDMDL
MODEL 5
REMARK VINA RESULT: -8.101331244      4.558      7.007
REMARK  2 active torsions:
REMARK  status: ('A' for Active; 'I' for Inactive)
REMARK    1  A    between atoms: C5_10  and  N3_11 
REMARK    2  A    between atoms: N5_17  and  C7_19 
ROOT
HETATM    1  C7  UNL     1      55.562 -12.820  68.542  1.00  0.00     0.115 C 
HETATM    2  C8  UNL     1      55.138 -14.221  68.189  1.00  0.00     0.062 C 
HETATM    3  C9  UNL     1      56.280 -14.707  68.986  1.00  0.00    -0.058 C 
HETATM    4  C10 UNL     1      57.023 -15.783  68.991  1.00  0.00     0.097 C 
HETATM    5  C11 UNL     1      58.098 -16.003  69.902  1.00  0.00     0.088 C 
HETATM    6  N6  UNL     1      58.962 -16.200  70.645  1.00  0.00    -0.192 NA
HETATM    7  C12 UNL     1      56.207 -13.467  69.752  1.00  0.00    -0.002 C 
HETATM    8  C13 UNL     1      57.492 -12.851  70.200  1.00  0.00     0.021 C 
HETATM    9  C14 UNL     1      55.191 -13.637  70.889  1.00  0.00     0.021 C 
ENDROOT
BRANCH   1  10
HETATM   10  N5  UNL     1      54.624 -11.865  68.924  1.00  0.00    -0.220 N 
HETATM   11  C6  UNL     1      54.311 -10.743  68.412  1.00  0.00     0.683 A 
HETATM   12  N4  UNL     1      54.918 -10.293  67.312  1.00  0.00    -0.176 N 
HETATM   13  N7  UNL     1      53.318 -10.018  69.039  1.00  0.00    -0.171 N 
HETATM   14  C5  UNL     1      54.606  -9.123  66.753  1.00  0.00     0.134 A 
ATOM     15  H4  UNL     1      55.646 -10.864  66.883  1.00  0.00     0.186 HD
HETATM   16  C4  UNL     1      53.620  -8.363  67.342  1.00  0.00     0.121 A 
HETATM   17  C3  UNL     1      53.280  -7.153  66.783  1.00  0.00     0.267 A 
HETATM   18  C16 UNL     1      52.966  -8.829  68.513  1.00  0.00     0.148 A 
HETATM   19  N2  UNL     1      52.330  -6.425  67.353  1.00  0.00    -0.274 N 
HETATM   20  O2  UNL     1      53.890  -6.787  65.748  1.00  0.00    -0.267 OA
HETATM   21  C2  UNL     1      51.733  -6.881  68.446  1.00  0.00     0.330 A 
ATOM     22  H2  UNL     1      52.060  -5.525  66.955  1.00  0.00     0.173 HD
HETATM   23  N1  UNL     1      52.009  -8.078  69.072  1.00  0.00    -0.288 N 
HETATM   24  O1  UNL     1      50.821  -6.167  68.978  1.00  0.00    -0.246 OA
HETATM   25  C1  UNL     1      51.317  -8.479  70.230  1.00  0.00     0.163 C 
HETATM   26  C15 UNL     1      52.698 -10.517  70.212  1.00  0.00     0.177 C 
ATOM     27  H5  UNL     1      54.095 -12.107  69.762  1.00  0.00     0.178 HD
BRANCH  14  28
HETATM   28  N3  UNL     1      55.178  -8.687  65.707  1.00  0.00    -0.384 N 
ATOM     29  H32 UNL     1      55.094  -7.719  65.394  1.00  0.00     0.157 HD
ATOM     30  H31 UNL     1      55.747  -9.325  65.151  1.00  0.00     0.157 HD
ENDBRANCH  14  28
ENDBRANCH   1  10
TORSDOF 2
ENDMDL
