MODEL 1
REMARK VINA RESULT: -9.690205585      0.000      0.000
REMARK  3 active torsions:
REMARK  status: ('A' for Active; 'I' for Inactive)
REMARK    1  A    between atoms: C4_4  and  N1_5 
REMARK       I    between atoms: N1_5  and  C5_7 
REMARK    2  A    between atoms: C5_7  and  C6_9 
REMARK    3  A    between atoms: C9_15  and  C10_16 
REMARK       I    between atoms: C10_16  and  N4_18 
ROOT
HETATM    1  C6  UNL     1      53.439  -8.735  66.817  1.00  0.00     0.101 A 
HETATM    2  C7  UNL     1      52.762  -7.645  67.367  1.00  0.00     0.068 A 
HETATM    3  C8  UNL     1      52.564  -6.372  66.640  1.00  0.00     0.072 C 
HETATM    4  N2  UNL     1      52.271  -7.787  68.626  1.00  0.00    -0.088 N 
HETATM    5  N3  UNL     1      51.604  -6.929  69.371  1.00  0.00    -0.259 N 
ATOM      6  H3  UNL     1      51.354  -5.985  69.076  1.00  0.00     0.190 HD
HETATM    7  C9  UNL     1      51.291  -7.461  70.581  1.00  0.00     0.205 A 
HETATM    8  N5  UNL     1      51.798  -8.694  70.551  1.00  0.00    -0.168 N 
ATOM      9  H5  UNL     1      51.743  -9.378  71.306  1.00  0.00     0.186 HD
HETATM   10  C13 UNL     1      52.403  -8.889  69.339  1.00  0.00     0.707 A 
HETATM   11  N6  UNL     1      53.045  -9.940  68.832  1.00  0.00    -0.174 N 
ATOM     12  H6  UNL     1      53.144 -10.790  69.388  1.00  0.00     0.186 HD
HETATM   13  C14 UNL     1      53.579  -9.887  67.557  1.00  0.00     0.132 A 
HETATM   14  N7  UNL     1      54.173 -10.913  67.139  1.00  0.00    -0.384 N 
ATOM     15  H71 UNL     1      54.277 -11.766  67.688  1.00  0.00     0.157 HD
ATOM     16  H72 UNL     1      54.566 -10.874  66.198  1.00  0.00     0.157 HD
ENDROOT
BRANCH   1  17
HETATM   17  C5  UNL     1      53.971  -8.603  65.485  1.00  0.00     0.263 C 
HETATM   18  N1  UNL     1      53.244  -8.789  64.273  1.00  0.00    -0.307 N 
ATOM     19  H1  UNL     1      52.605  -9.584  64.228  1.00  0.00     0.170 HD
HETATM   20  O1  UNL     1      55.176  -8.299  65.273  1.00  0.00    -0.267 OA
BRANCH  18  21
HETATM   21  C4  UNL     1      53.325  -8.045  63.238  1.00  0.00     0.130 A 
HETATM   22  C3  UNL     1      52.548  -6.959  62.910  1.00  0.00     0.084 A 
HETATM   23  C2  UNL     1      53.013  -6.485  61.709  1.00  0.00     0.076 A 
HETATM   24  C1  UNL     1      52.464  -5.301  60.959  1.00  0.00     0.079 C 
HETATM   25  O3  UNL     1      53.998  -7.241  61.351  1.00  0.00    -0.241 OA
HETATM   26  N8  UNL     1      54.213  -8.174  62.229  1.00  0.00    -0.245 N 
ATOM     27  H8  UNL     1      54.936  -8.890  62.165  1.00  0.00     0.196 HD
ENDBRANCH  18  21
ENDBRANCH   1  17
BRANCH   7  28
HETATM   28  C10 UNL     1      50.549  -6.749  71.631  1.00  0.00     0.288 C 
HETATM   29  O2  UNL     1      49.538  -6.032  71.286  1.00  0.00    -0.264 OA
HETATM   30  N4  UNL     1      50.935  -6.850  72.976  1.00  0.00    -0.354 N 
HETATM   31  C11 UNL     1      52.058  -7.645  73.372  1.00  0.00     0.152 C 
HETATM   32  C12 UNL     1      50.176  -6.132  73.986  1.00  0.00     0.152 C 
ENDBRANCH   7  28
TORSDOF 3
ENDMDL
MODEL 2
REMARK VINA RESULT: -9.676703945      1.301      1.463
REMARK  3 active torsions:
REMARK  status: ('A' for Active; 'I' for Inactive)
REMARK    1  A    between atoms: C4_4  and  N1_5 
REMARK       I    between atoms: N1_5  and  C5_7 
REMARK    2  A    between atoms: C5_7  and  C6_9 
REMARK    3  A    between atoms: C9_15  and  C10_16 
REMARK       I    between atoms: C10_16  and  N4_18 
ROOT
HETATM    1  C6  UNL     1      52.997  -9.134  66.566  1.00  0.00     0.101 A 
HETATM    2  C7  UNL     1      52.906  -8.079  67.475  1.00  0.00     0.068 A 
HETATM    3  C8  UNL     1      53.172  -6.671  67.103  1.00  0.00     0.072 C 
HETATM    4  N2  UNL     1      52.553  -8.384  68.751  1.00  0.00    -0.088 N 
HETATM    5  N3  UNL     1      52.397  -7.594  69.794  1.00  0.00    -0.259 N 
ATOM      6  H3  UNL     1      52.530  -6.582  69.773  1.00  0.00     0.190 HD
HETATM    7  C9  UNL     1      52.036  -8.295  70.900  1.00  0.00     0.205 A 
HETATM    8  N5  UNL     1      51.976  -9.563  70.492  1.00  0.00    -0.168 N 
ATOM      9  H5  UNL     1      51.731 -10.364  71.074  1.00  0.00     0.186 HD
HETATM   10  C13 UNL     1      52.297  -9.611  69.162  1.00  0.00     0.707 A 
HETATM   11  N6  UNL     1      52.378 -10.631  68.310  1.00  0.00    -0.174 N 
ATOM     12  H6  UNL     1      52.179 -11.579  68.633  1.00  0.00     0.186 HD
HETATM   13  C14 UNL     1      52.730 -10.416  66.990  1.00  0.00     0.132 A 
HETATM   14  N7  UNL     1      52.789 -11.421  66.238  1.00  0.00    -0.384 N 
ATOM     15  H71 UNL     1      52.592 -12.371  66.553  1.00  0.00     0.157 HD
ATOM     16  H72 UNL     1      53.049 -11.262  65.264  1.00  0.00     0.157 HD
ENDROOT
BRANCH   1  17
HETATM   17  C5  UNL     1      53.374  -8.831  65.209  1.00  0.00     0.263 C 
HETATM   18  N1  UNL     1      52.533  -8.239  64.221  1.00  0.00    -0.307 N 
ATOM     19  H1  UNL     1      51.572  -8.574  64.163  1.00  0.00     0.170 HD
HETATM   20  O1  UNL     1      54.528  -9.076  64.765  1.00  0.00    -0.267 OA
BRANCH  18  21
HETATM   21  C4  UNL     1      52.884  -7.323  63.403  1.00  0.00     0.130 A 
HETATM   22  C3  UNL     1      52.188  -6.842  62.319  1.00  0.00     0.084 A 
HETATM   23  C2  UNL     1      52.967  -5.864  61.749  1.00  0.00     0.076 A 
HETATM   24  C1  UNL     1      52.610  -5.055  60.531  1.00  0.00     0.079 C 
HETATM   25  O3  UNL     1      54.049  -5.776  62.449  1.00  0.00    -0.241 OA
HETATM   26  N8  UNL     1      54.037  -6.621  63.435  1.00  0.00    -0.245 N 
ATOM     27  H8  UNL     1      54.781  -6.737  64.123  1.00  0.00     0.196 HD
ENDBRANCH  18  21
ENDBRANCH   1  17
BRANCH   7  28
HETATM   28  C10 UNL     1      51.789  -7.694  72.217  1.00  0.00     0.288 C 
HETATM   29  O2  UNL     1      52.525  -8.063  73.206  1.00  0.00    -0.264 OA
HETATM   30  N4  UNL     1      50.774  -6.741  72.392  1.00  0.00    -0.354 N 
HETATM   31  C11 UNL     1      49.949  -6.321  71.300  1.00  0.00     0.152 C 
HETATM   32  C12 UNL     1      50.560  -6.168  73.711  1.00  0.00     0.152 C 
ENDBRANCH   7  28
TORSDOF 3
ENDMDL
MODEL 3
REMARK VINA RESULT: -9.526275704      1.260      1.292
REMARK  3 active torsions:
REMARK  status: ('A' for Active; 'I' for Inactive)
REMARK    1  A    between atoms: C4_4  and  N1_5 
REMARK       I    between atoms: N1_5  and  C5_7 
REMARK    2  A    between atoms: C5_7  and  C6_9 
REMARK    3  A    between atoms: C9_15  and  C10_16 
REMARK       I    between atoms: C10_16  and  N4_18 
ROOT
HETATM    1  C6  UNL     1      53.066  -9.262  66.659  1.00  0.00     0.101 A 
HETATM    2  C7  UNL     1      52.845  -8.223  67.565  1.00  0.00     0.068 A 
HETATM    3  C8  UNL     1      53.006  -6.797  67.208  1.00  0.00     0.072 C 
HETATM    4  N2  UNL     1      52.463  -8.564  68.824  1.00  0.00    -0.088 N 
HETATM    5  N3  UNL     1      52.193  -7.795  69.860  1.00  0.00    -0.259 N 
ATOM      6  H3  UNL     1      52.241  -6.776  69.846  1.00  0.00     0.190 HD
HETATM    7  C9  UNL     1      51.845  -8.530  70.947  1.00  0.00     0.205 A 
HETATM    8  N5  UNL     1      51.911  -9.797  70.536  1.00  0.00    -0.168 N 
ATOM      9  H5  UNL     1      51.710 -10.619  71.105  1.00  0.00     0.186 HD
HETATM   10  C13 UNL     1      52.295  -9.811  69.221  1.00  0.00     0.707 A 
HETATM   11  N6  UNL     1      52.500 -10.816  68.372  1.00  0.00    -0.174 N 
ATOM     12  H6  UNL     1      52.369 -11.778  68.685  1.00  0.00     0.186 HD
HETATM   13  C14 UNL     1      52.891 -10.564  67.070  1.00  0.00     0.132 A 
HETATM   14  N7  UNL     1      53.069 -11.557  66.320  1.00  0.00    -0.384 N 
ATOM     15  H71 UNL     1      52.940 -12.523  66.625  1.00  0.00     0.157 HD
ATOM     16  H72 UNL     1      53.358 -11.372  65.359  1.00  0.00     0.157 HD
ENDROOT
BRANCH   1  17
HETATM   17  C5  UNL     1      53.477  -8.922  65.321  1.00  0.00     0.263 C 
HETATM   18  N1  UNL     1      52.637  -8.384  64.302  1.00  0.00    -0.307 N 
ATOM     19  H1  UNL     1      51.706  -8.788  64.202  1.00  0.00     0.170 HD
HETATM   20  O1  UNL     1      54.663  -9.079  64.925  1.00  0.00    -0.267 OA
BRANCH  18  21
HETATM   21  C4  UNL     1      52.953  -7.438  63.504  1.00  0.00     0.130 A 
HETATM   22  C3  UNL     1      52.237  -6.953  62.436  1.00  0.00     0.084 A 
HETATM   23  C2  UNL     1      52.980  -5.939  61.886  1.00  0.00     0.076 A 
HETATM   24  C1  UNL     1      52.591  -5.112  60.689  1.00  0.00     0.079 C 
HETATM   25  O3  UNL     1      54.063  -5.832  62.581  1.00  0.00    -0.241 OA
HETATM   26  N8  UNL     1      54.084  -6.701  63.547  1.00  0.00    -0.245 N 
ATOM     27  H8  UNL     1      54.836  -6.810  64.228  1.00  0.00     0.196 HD
ENDBRANCH  18  21
ENDBRANCH   1  17
BRANCH   7  28
HETATM   28  C10 UNL     1      51.488  -7.959  72.253  1.00  0.00     0.288 C 
HETATM   29  O2  UNL     1      50.348  -7.374  72.373  1.00  0.00    -0.264 OA
HETATM   30  N4  UNL     1      52.369  -8.050  73.341  1.00  0.00    -0.354 N 
HETATM   31  C11 UNL     1      53.639  -8.699  73.219  1.00  0.00     0.152 C 
HETATM   32  C12 UNL     1      51.979  -7.473  74.617  1.00  0.00     0.152 C 
ENDBRANCH   7  28
TORSDOF 3
ENDMDL
MODEL 4
REMARK VINA RESULT: -9.414750363      2.040      2.274
REMARK  3 active torsions:
REMARK  status: ('A' for Active; 'I' for Inactive)
REMARK    1  A    between atoms: C4_4  and  N1_5 
REMARK       I    between atoms: N1_5  and  C5_7 
REMARK    2  A    between atoms: C5_7  and  C6_9 
REMARK    3  A    between atoms: C9_15  and  C10_16 
REMARK       I    between atoms: C10_16  and  N4_18 
ROOT
HETATM    1  C6  UNL     1      54.001  -9.795  66.580  1.00  0.00     0.101 A 
HETATM    2  C7  UNL     1      53.169  -9.176  67.514  1.00  0.00     0.068 A 
HETATM    3  C8  UNL     1      52.645  -7.803  67.339  1.00  0.00     0.072 C 
HETATM    4  N2  UNL     1      52.838  -9.887  68.624  1.00  0.00    -0.088 N 
HETATM    5  N3  UNL     1      52.082  -9.548  69.648  1.00  0.00    -0.259 N 
ATOM      6  H3  UNL     1      51.616  -8.645  69.743  1.00  0.00     0.190 HD
HETATM    7  C9  UNL     1      52.000 -10.551  70.560  1.00  0.00     0.205 A 
HETATM    8  N5  UNL     1      52.745 -11.533  70.051  1.00  0.00    -0.168 N 
ATOM      9  H5  UNL     1      52.905 -12.444  70.482  1.00  0.00     0.186 HD
HETATM   10  C13 UNL     1      53.262 -11.116  68.853  1.00  0.00     0.707 A 
HETATM   11  N6  UNL     1      54.056 -11.724  67.974  1.00  0.00    -0.174 N 
ATOM     12  H6  UNL     1      54.380 -12.674  68.157  1.00  0.00     0.186 HD
HETATM   13  C14 UNL     1      54.444 -11.076  66.816  1.00  0.00     0.132 A 
HETATM   14  N7  UNL     1      55.195 -11.706  66.028  1.00  0.00    -0.384 N 
ATOM     15  H71 UNL     1      55.524 -12.656  66.203  1.00  0.00     0.157 HD
ATOM     16  H72 UNL     1      55.482 -11.229  65.173  1.00  0.00     0.157 HD
ENDROOT
BRANCH   1  17
HETATM   17  C5  UNL     1      54.367  -9.054  65.399  1.00  0.00     0.263 C 
HETATM   18  N1  UNL     1      53.554  -8.876  64.242  1.00  0.00    -0.307 N 
ATOM     19  H1  UNL     1      53.042  -9.688  63.900  1.00  0.00     0.170 HD
HETATM   20  O1  UNL     1      55.483  -8.481  65.289  1.00  0.00    -0.267 OA
BRANCH  18  21
HETATM   21  C4  UNL     1      53.415  -7.782  63.596  1.00  0.00     0.130 A 
HETATM   22  C3  UNL     1      52.304  -7.329  62.924  1.00  0.00     0.084 A 
HETATM   23  C2  UNL     1      52.633  -6.107  62.391  1.00  0.00     0.076 A 
HETATM   24  C1  UNL     1      51.724  -5.233  61.569  1.00  0.00     0.079 C 
HETATM   25  O3  UNL     1      53.855  -5.856  62.726  1.00  0.00    -0.241 OA
HETATM   26  N8  UNL     1      54.352  -6.823  63.438  1.00  0.00    -0.245 N 
ATOM     27  H8  UNL     1      55.298  -6.852  63.818  1.00  0.00     0.196 HD
ENDBRANCH  18  21
ENDBRANCH   1  17
BRANCH   7  28
HETATM   28  C10 UNL     1      51.230 -10.475  71.808  1.00  0.00     0.288 C 
HETATM   29  O2  UNL     1      50.143 -11.158  71.899  1.00  0.00    -0.264 OA
HETATM   30  N4  UNL     1      51.670  -9.676  72.874  1.00  0.00    -0.354 N 
HETATM   31  C11 UNL     1      52.876  -8.911  72.785  1.00  0.00     0.152 C 
HETATM   32  C12 UNL     1      50.880  -9.627  74.094  1.00  0.00     0.152 C 
ENDBRANCH   7  28
TORSDOF 3
ENDMDL
MODEL 5
REMARK VINA RESULT: -9.247763193      1.299      1.343
REMARK  3 active torsions:
REMARK  status: ('A' for Active; 'I' for Inactive)
REMARK    1  A    between atoms: C4_4  and  N1_5 
REMARK       I    between atoms: N1_5  and  C5_7 
REMARK    2  A    between atoms: C5_7  and  C6_9 
REMARK    3  A    between atoms: C9_15  and  C10_16 
REMARK       I    between atoms: C10_16  and  N4_18 
ROOT
HETATM    1  C6  UNL     1      52.545  -8.991  67.720  1.00  0.00     0.101 A 
HETATM    2  C7  UNL     1      52.156  -7.824  68.379  1.00  0.00     0.068 A 
HETATM    3  C8  UNL     1      52.326  -6.475  67.795  1.00  0.00     0.072 C 
HETATM    4  N2  UNL     1      51.595  -7.960  69.610  1.00  0.00    -0.088 N 
HETATM    5  N3  UNL     1      51.146  -7.039  70.438  1.00  0.00    -0.259 N 
ATOM      6  H3  UNL     1      51.164  -6.037  70.246  1.00  0.00     0.190 HD
HETATM    7  C9  UNL     1      50.658  -7.591  71.578  1.00  0.00     0.205 A 
HETATM    8  N5  UNL     1      50.826  -8.904  71.419  1.00  0.00    -0.168 N 
ATOM      9  H5  UNL     1      50.565  -9.624  72.093  1.00  0.00     0.186 HD
HETATM   10  C13 UNL     1      51.407  -9.126  70.199  1.00  0.00     0.707 A 
HETATM   11  N6  UNL     1      51.771 -10.251  69.586  1.00  0.00    -0.174 N 
ATOM     12  H6  UNL     1      51.623 -11.149  70.046  1.00  0.00     0.186 HD
HETATM   13  C14 UNL     1      52.350 -10.209  68.331  1.00  0.00     0.132 A 
HETATM   14  N7  UNL     1      52.672 -11.306  67.808  1.00  0.00    -0.384 N 
ATOM     15  H71 UNL     1      52.527 -12.209  68.261  1.00  0.00     0.157 HD
ATOM     16  H72 UNL     1      53.098 -11.276  66.882  1.00  0.00     0.157 HD
ENDROOT
BRANCH   1  17
HETATM   17  C5  UNL     1      53.146  -8.867  66.416  1.00  0.00     0.263 C 
HETATM   18  N1  UNL     1      52.467  -8.505  65.216  1.00  0.00    -0.307 N 
ATOM     19  H1  UNL     1      51.553  -8.926  65.051  1.00  0.00     0.170 HD
HETATM   20  O1  UNL     1      54.373  -9.078  66.222  1.00  0.00    -0.267 OA
BRANCH  18  21
HETATM   21  C4  UNL     1      52.908  -7.698  64.330  1.00  0.00     0.130 A 
HETATM   22  C3  UNL     1      52.335  -7.363  63.126  1.00  0.00     0.084 A 
HETATM   23  C2  UNL     1      53.175  -6.460  62.523  1.00  0.00     0.076 A 
HETATM   24  C1  UNL     1      52.955  -5.813  61.181  1.00  0.00     0.079 C 
HETATM   25  O3  UNL     1      54.178  -6.276  63.317  1.00  0.00    -0.241 OA
HETATM   26  N8  UNL     1      54.056  -6.990  64.395  1.00  0.00    -0.245 N 
ATOM     27  H8  UNL     1      54.722  -7.013  65.167  1.00  0.00     0.196 HD
ENDBRANCH  18  21
ENDBRANCH   1  17
BRANCH   7  28
HETATM   28  C10 UNL     1      50.087  -6.822  72.692  1.00  0.00     0.288 C 
HETATM   29  O2  UNL     1      48.878  -6.394  72.584  1.00  0.00    -0.264 OA
HETATM   30  N4  UNL     1      50.842  -6.560  73.845  1.00  0.00    -0.354 N 
HETATM   31  C11 UNL     1      52.188  -7.030  73.977  1.00  0.00     0.152 C 
HETATM   32  C12 UNL     1      50.242  -5.795  74.926  1.00  0.00     0.152 C 
ENDBRANCH   7  28
TORSDOF 3
ENDMDL
