MODEL 1
REMARK VINA RESULT: -8.887193109      0.000      0.000
REMARK  6 active torsions:
REMARK  status: ('A' for Active; 'I' for Inactive)
REMARK    1  A    between atoms: O1_2  and  C2_3 
REMARK    2  A    between atoms: C2_3  and  C3_5 
REMARK    3  A    between atoms: C3_5  and  O3_7 
REMARK    4  A    between atoms: C3_5  and  C5_9 
REMARK    5  A    between atoms: C6_10  and  C7_11 
REMARK    6  A    between atoms: N3_21  and  C11_22 
ROOT
HETATM    1  C7  UNL     1      52.233  -7.514  66.037  1.00  0.00     0.164 A 
HETATM    2  N1  UNL     1      51.621  -6.870  67.039  1.00  0.00    -0.328 N 
ATOM      3  H1  UNL     1      51.259  -5.917  67.010  1.00  0.00     0.168 HD
HETATM    4  C8  UNL     1      51.569  -7.718  68.104  1.00  0.00     0.148 A 
HETATM    5  C9  UNL     1      51.055  -7.576  69.378  1.00  0.00     0.280 A 
HETATM    6  O4  UNL     1      50.507  -6.496  69.729  1.00  0.00    -0.265 OA
HETATM    7  N2  UNL     1      51.141  -8.590  70.242  1.00  0.00    -0.273 N 
ATOM      8  H2  UNL     1      50.765  -8.497  71.185  1.00  0.00     0.173 HD
HETATM    9  C10 UNL     1      51.736  -9.753  69.850  1.00  0.00     0.331 A 
HETATM   10  O5  UNL     1      51.753 -10.626  70.754  1.00  0.00    -0.246 OA
HETATM   11  N3  UNL     1      52.239  -9.912  68.623  1.00  0.00    -0.274 N 
HETATM   12  C15 UNL     1      52.167  -8.878  67.702  1.00  0.00     0.147 A 
HETATM   13  N4  UNL     1      52.581  -8.765  66.427  1.00  0.00    -0.319 N 
ATOM     14  H4  UNL     1      53.059  -9.473  65.870  1.00  0.00     0.169 HD
ENDROOT
BRANCH   1  15
HETATM   15  C6  UNL     1      52.521  -7.032  64.714  1.00  0.00    -0.026 C 
HETATM   16  C5  UNL     1      52.761  -6.645  63.597  1.00  0.00    -0.050 C 
BRANCH  16  17
HETATM   17  C3  UNL     1      53.064  -6.175  62.230  1.00  0.00     0.206 C 
HETATM   18  C4  UNL     1      51.883  -5.417  61.648  1.00  0.00     0.072 C 
BRANCH  17  19
HETATM   19  C2  UNL     1      53.408  -7.360  61.434  1.00  0.00     0.305 C 
HETATM   20  O2  UNL     1      54.448  -8.006  61.718  1.00  0.00    -0.261 OA
BRANCH  19  21
HETATM   21  O1  UNL     1      52.627  -7.803  60.368  1.00  0.00    -0.323 OA
HETATM   22  C1  UNL     1      53.204  -8.647  59.392  1.00  0.00     0.213 C 
ENDBRANCH  19  21
ENDBRANCH  17  19
BRANCH  17  23
HETATM   23  O3  UNL     1      54.139  -5.315  62.297  1.00  0.00    -0.369 OA
ATOM     24  H3  UNL     1      53.840  -4.413  62.309  1.00  0.00     0.212 HD
ENDBRANCH  17  23
ENDBRANCH  16  17
ENDBRANCH   1  15
BRANCH  11  25
HETATM   25  C11 UNL     1      52.866 -11.105  68.171  1.00  0.00     0.032 C 
HETATM   26  C12 UNL     1      52.585 -11.402  66.706  1.00  0.00     0.038 C 
HETATM   27  C13 UNL     1      54.360 -10.949  68.426  1.00  0.00     0.038 C 
HETATM   28  C14 UNL     1      52.411 -12.315  68.933  1.00  0.00     0.038 C 
ENDBRANCH  11  25
TORSDOF 6
ENDMDL
MODEL 2
REMARK VINA RESULT: -8.600182158      1.141      1.361
REMARK  6 active torsions:
REMARK  status: ('A' for Active; 'I' for Inactive)
REMARK    1  A    between atoms: O1_2  and  C2_3 
REMARK    2  A    between atoms: C2_3  and  C3_5 
REMARK    3  A    between atoms: C3_5  and  O3_7 
REMARK    4  A    between atoms: C3_5  and  C5_9 
REMARK    5  A    between atoms: C6_10  and  C7_11 
REMARK    6  A    between atoms: N3_21  and  C11_22 
ROOT
HETATM    1  C7  UNL     1      52.781  -8.088  65.740  1.00  0.00     0.164 A 
HETATM    2  N1  UNL     1      51.935  -7.803  66.738  1.00  0.00    -0.328 N 
ATOM      3  H1  UNL     1      51.214  -7.082  66.730  1.00  0.00     0.168 HD
HETATM    4  C8  UNL     1      52.212  -8.652  67.767  1.00  0.00     0.148 A 
HETATM    5  C9  UNL     1      51.655  -8.798  69.023  1.00  0.00     0.280 A 
HETATM    6  O4  UNL     1      50.704  -8.057  69.391  1.00  0.00    -0.265 OA
HETATM    7  N2  UNL     1      52.131  -9.731  69.852  1.00  0.00    -0.273 N 
ATOM      8  H2  UNL     1      51.728  -9.848  70.781  1.00  0.00     0.173 HD
HETATM    9  C10 UNL     1      53.160 -10.527  69.442  1.00  0.00     0.331 A 
HETATM   10  O5  UNL     1      53.512 -11.361  70.313  1.00  0.00    -0.246 OA
HETATM   11  N3  UNL     1      53.711 -10.402  68.232  1.00  0.00    -0.274 N 
HETATM   12  C15 UNL     1      53.242  -9.443  67.348  1.00  0.00     0.147 A 
HETATM   13  N4  UNL     1      53.603  -9.105  66.097  1.00  0.00    -0.319 N 
ATOM     14  H4  UNL     1      54.342  -9.526  65.535  1.00  0.00     0.169 HD
ENDROOT
BRANCH   1  15
HETATM   15  C6  UNL     1      52.876  -7.463  64.449  1.00  0.00    -0.026 C 
HETATM   16  C5  UNL     1      52.973  -6.942  63.365  1.00  0.00    -0.050 C 
BRANCH  16  17
HETATM   17  C3  UNL     1      53.097  -6.296  62.043  1.00  0.00     0.206 C 
HETATM   18  C4  UNL     1      51.781  -5.659  61.630  1.00  0.00     0.072 C 
BRANCH  17  19
HETATM   19  C2  UNL     1      53.534  -7.330  61.096  1.00  0.00     0.305 C 
HETATM   20  O2  UNL     1      54.608  -7.944  61.316  1.00  0.00    -0.261 OA
BRANCH  19  21
HETATM   21  O1  UNL     1      52.804  -7.663  59.956  1.00  0.00    -0.323 OA
HETATM   22  C1  UNL     1      53.080  -8.878  59.289  1.00  0.00     0.213 C 
ENDBRANCH  19  21
ENDBRANCH  17  19
BRANCH  17  23
HETATM   23  O3  UNL     1      54.048  -5.301  62.136  1.00  0.00    -0.369 OA
ATOM     24  H3  UNL     1      53.685  -4.470  61.849  1.00  0.00     0.212 HD
ENDBRANCH  17  23
ENDBRANCH  16  17
ENDBRANCH   1  15
BRANCH  11  25
HETATM   25  C11 UNL     1      54.784 -11.209  67.762  1.00  0.00     0.032 C 
HETATM   26  C12 UNL     1      54.351 -12.209  66.701  1.00  0.00     0.038 C 
HETATM   27  C13 UNL     1      55.853 -10.264  67.228  1.00  0.00     0.038 C 
HETATM   28  C14 UNL     1      55.415 -12.017  68.859  1.00  0.00     0.038 C 
ENDBRANCH  11  25
TORSDOF 6
ENDMDL
MODEL 3
REMARK VINA RESULT: -8.568282982      1.709      3.190
REMARK  6 active torsions:
REMARK  status: ('A' for Active; 'I' for Inactive)
REMARK    1  A    between atoms: O1_2  and  C2_3 
REMARK    2  A    between atoms: C2_3  and  C3_5 
REMARK    3  A    between atoms: C3_5  and  O3_7 
REMARK    4  A    between atoms: C3_5  and  C5_9 
REMARK    5  A    between atoms: C6_10  and  C7_11 
REMARK    6  A    between atoms: N3_21  and  C11_22 
ROOT
HETATM    1  C7  UNL     1      53.395  -8.756  64.893  1.00  0.00     0.164 A 
HETATM    2  N1  UNL     1      53.993  -9.892  65.273  1.00  0.00    -0.328 N 
ATOM      3  H1  UNL     1      54.520 -10.526  64.672  1.00  0.00     0.168 HD
HETATM    4  C8  UNL     1      53.772 -10.048  66.609  1.00  0.00     0.148 A 
HETATM    5  C9  UNL     1      54.155 -11.028  67.503  1.00  0.00     0.280 A 
HETATM    6  O4  UNL     1      54.842 -12.013  67.117  1.00  0.00    -0.265 OA
HETATM    7  N2  UNL     1      53.792 -10.931  68.785  1.00  0.00    -0.273 N 
ATOM      8  H2  UNL     1      54.069 -11.649  69.454  1.00  0.00     0.173 HD
HETATM    9  C10 UNL     1      53.049  -9.862  69.190  1.00  0.00     0.331 A 
HETATM   10  O5  UNL     1      52.775  -9.889  70.415  1.00  0.00    -0.246 OA
HETATM   11  N3  UNL     1      52.670  -8.903  68.341  1.00  0.00    -0.274 N 
HETATM   12  C15 UNL     1      53.028  -8.974  67.004  1.00  0.00     0.147 A 
HETATM   13  N4  UNL     1      52.788  -8.168  65.954  1.00  0.00    -0.319 N 
ATOM     14  H4  UNL     1      52.260  -7.295  65.956  1.00  0.00     0.169 HD
ENDROOT
BRANCH   1  15
HETATM   15  C6  UNL     1      53.350  -8.169  63.582  1.00  0.00    -0.026 C 
HETATM   16  C5  UNL     1      53.324  -7.664  62.487  1.00  0.00    -0.050 C 
BRANCH  16  17
HETATM   17  C3  UNL     1      53.286  -7.038  61.150  1.00  0.00     0.206 C 
HETATM   18  C4  UNL     1      51.852  -6.810  60.703  1.00  0.00     0.072 C 
BRANCH  17  19
HETATM   19  C2  UNL     1      54.017  -7.925  60.237  1.00  0.00     0.305 C 
HETATM   20  O2  UNL     1      55.132  -8.382  60.591  1.00  0.00    -0.261 OA
BRANCH  19  21
HETATM   21  O1  UNL     1      53.524  -8.285  58.983  1.00  0.00    -0.323 OA
HETATM   22  C1  UNL     1      52.942  -9.561  58.810  1.00  0.00     0.213 C 
ENDBRANCH  19  21
ENDBRANCH  17  19
BRANCH  17  23
HETATM   23  O3  UNL     1      53.913  -5.812  61.230  1.00  0.00    -0.369 OA
ATOM     24  H3  UNL     1      53.325  -5.164  61.600  1.00  0.00     0.212 HD
ENDBRANCH  17  23
ENDBRANCH  16  17
ENDBRANCH   1  15
BRANCH  11  25
HETATM   25  C11 UNL     1      51.896  -7.770  68.719  1.00  0.00     0.032 C 
HETATM   26  C12 UNL     1      51.777  -6.739  67.607  1.00  0.00     0.038 C 
HETATM   27  C13 UNL     1      50.527  -8.286  69.143  1.00  0.00     0.038 C 
HETATM   28  C14 UNL     1      52.481  -7.045  69.896  1.00  0.00     0.038 C 
ENDBRANCH  11  25
TORSDOF 6
ENDMDL
MODEL 4
REMARK VINA RESULT: -8.516876092      1.382      2.952
REMARK  6 active torsions:
REMARK  status: ('A' for Active; 'I' for Inactive)
REMARK    1  A    between atoms: O1_2  and  C2_3 
REMARK    2  A    between atoms: C2_3  and  C3_5 
REMARK    3  A    between atoms: C3_5  and  O3_7 
REMARK    4  A    between atoms: C3_5  and  C5_9 
REMARK    5  A    between atoms: C6_10  and  C7_11 
REMARK    6  A    between atoms: N3_21  and  C11_22 
ROOT
HETATM    1  C7  UNL     1      52.905  -8.828  65.496  1.00  0.00     0.164 A 
HETATM    2  N1  UNL     1      53.119 -10.141  65.652  1.00  0.00    -0.328 N 
ATOM      3  H1  UNL     1      53.397 -10.797  64.922  1.00  0.00     0.168 HD
HETATM    4  C8  UNL     1      52.898 -10.442  66.962  1.00  0.00     0.148 A 
HETATM    5  C9  UNL     1      52.971 -11.629  67.665  1.00  0.00     0.280 A 
HETATM    6  O4  UNL     1      53.296 -12.698  67.082  1.00  0.00    -0.265 OA
HETATM    7  N2  UNL     1      52.696 -11.640  68.972  1.00  0.00    -0.273 N 
ATOM      8  H2  UNL     1      52.747 -12.510  69.502  1.00  0.00     0.173 HD
HETATM    9  C10 UNL     1      52.346 -10.477  69.591  1.00  0.00     0.331 A 
HETATM   10  O5  UNL     1      52.113 -10.623  70.817  1.00  0.00    -0.246 OA
HETATM   11  N3  UNL     1      52.270  -9.319  68.930  1.00  0.00    -0.274 N 
HETATM   12  C15 UNL     1      52.548  -9.273  67.572  1.00  0.00     0.147 A 
HETATM   13  N4  UNL     1      52.549  -8.268  66.678  1.00  0.00    -0.319 N 
ATOM     14  H4  UNL     1      52.328  -7.287  66.853  1.00  0.00     0.169 HD
ENDROOT
BRANCH   1  15
HETATM   15  C6  UNL     1      53.013  -8.046  64.295  1.00  0.00    -0.026 C 
HETATM   16  C5  UNL     1      53.085  -7.389  63.285  1.00  0.00    -0.050 C 
BRANCH  16  17
HETATM   17  C3  UNL     1      53.171  -6.595  62.043  1.00  0.00     0.206 C 
HETATM   18  C4  UNL     1      51.814  -6.019  61.678  1.00  0.00     0.072 C 
BRANCH  17  19
HETATM   19  C2  UNL     1      53.695  -7.485  60.998  1.00  0.00     0.305 C 
HETATM   20  O2  UNL     1      54.797  -8.059  61.182  1.00  0.00    -0.261 OA
BRANCH  19  21
HETATM   21  O1  UNL     1      53.019  -7.720  59.803  1.00  0.00    -0.323 OA
HETATM   22  C1  UNL     1      53.006  -9.025  59.261  1.00  0.00     0.213 C 
ENDBRANCH  19  21
ENDBRANCH  17  19
BRANCH  17  23
HETATM   23  O3  UNL     1      54.041  -5.547  62.260  1.00  0.00    -0.369 OA
ATOM     24  H3  UNL     1      54.317  -5.530  63.169  1.00  0.00     0.212 HD
ENDBRANCH  17  23
ENDBRANCH  16  17
ENDBRANCH   1  15
BRANCH  11  25
HETATM   25  C11 UNL     1      51.911  -8.082  69.534  1.00  0.00     0.032 C 
HETATM   26  C12 UNL     1      52.495  -6.879  68.810  1.00  0.00     0.038 C 
HETATM   27  C13 UNL     1      50.388  -8.024  69.561  1.00  0.00     0.038 C 
HETATM   28  C14 UNL     1      52.384  -7.981  70.955  1.00  0.00     0.038 C 
ENDBRANCH  11  25
TORSDOF 6
ENDMDL
MODEL 5
REMARK VINA RESULT: -8.291839684      1.801      2.803
REMARK  6 active torsions:
REMARK  status: ('A' for Active; 'I' for Inactive)
REMARK    1  A    between atoms: O1_2  and  C2_3 
REMARK    2  A    between atoms: C2_3  and  C3_5 
REMARK    3  A    between atoms: C3_5  and  O3_7 
REMARK    4  A    between atoms: C3_5  and  C5_9 
REMARK    5  A    between atoms: C6_10  and  C7_11 
REMARK    6  A    between atoms: N3_21  and  C11_22 
ROOT
HETATM    1  C7  UNL     1      53.370  -8.914  64.603  1.00  0.00     0.164 A 
HETATM    2  N1  UNL     1      52.675  -8.256  65.540  1.00  0.00    -0.328 N 
ATOM      3  H1  UNL     1      52.066  -7.453  65.385  1.00  0.00     0.168 HD
HETATM    4  C8  UNL     1      52.928  -8.855  66.737  1.00  0.00     0.148 A 
HETATM    5  C9  UNL     1      52.483  -8.591  68.018  1.00  0.00     0.280 A 
HETATM    6  O4  UNL     1      51.687  -7.637  68.234  1.00  0.00    -0.265 OA
HETATM    7  N2  UNL     1      52.900  -9.353  69.032  1.00  0.00    -0.273 N 
ATOM      8  H2  UNL     1      52.578  -9.168  69.982  1.00  0.00     0.173 HD
HETATM    9  C10 UNL     1      53.760 -10.381  68.786  1.00  0.00     0.331 A 
HETATM   10  O5  UNL     1      54.075 -11.019  69.821  1.00  0.00    -0.246 OA
HETATM   11  N3  UNL     1      54.203 -10.653  67.555  1.00  0.00    -0.274 N 
HETATM   12  C15 UNL     1      53.790  -9.881  66.480  1.00  0.00     0.147 A 
HETATM   13  N4  UNL     1      54.070  -9.929  65.165  1.00  0.00    -0.319 N 
ATOM     14  H4  UNL     1      54.683 -10.591  64.690  1.00  0.00     0.169 HD
ENDROOT
BRANCH   1  15
HETATM   15  C6  UNL     1      53.425  -8.655  63.190  1.00  0.00    -0.026 C 
HETATM   16  C5  UNL     1      53.456  -8.446  62.002  1.00  0.00    -0.050 C 
BRANCH  16  17
HETATM   17  C3  UNL     1      53.497  -8.202  60.547  1.00  0.00     0.206 C 
HETATM   18  C4  UNL     1      54.932  -8.089  60.060  1.00  0.00     0.072 C 
BRANCH  17  19
HETATM   19  C2  UNL     1      52.727  -6.978  60.293  1.00  0.00     0.305 C 
HETATM   20  O2  UNL     1      51.738  -7.027  59.520  1.00  0.00    -0.261 OA
BRANCH  19  21
HETATM   21  O1  UNL     1      53.049  -5.753  60.876  1.00  0.00    -0.323 OA
HETATM   22  C1  UNL     1      52.090  -5.098  61.682  1.00  0.00     0.213 C 
ENDBRANCH  19  21
ENDBRANCH  17  19
BRANCH  17  23
HETATM   23  O3  UNL     1      52.910  -9.277  59.911  1.00  0.00    -0.369 OA
ATOM     24  H3  UNL     1      53.419  -9.528  59.150  1.00  0.00     0.212 HD
ENDBRANCH  17  23
ENDBRANCH  16  17
ENDBRANCH   1  15
BRANCH  11  25
HETATM   25  C11 UNL     1      55.099 -11.715  67.251  1.00  0.00     0.032 C 
HETATM   26  C12 UNL     1      54.432 -12.853  66.494  1.00  0.00     0.038 C 
HETATM   27  C13 UNL     1      56.246 -11.115  66.447  1.00  0.00     0.038 C 
HETATM   28  C14 UNL     1      55.696 -12.331  68.483  1.00  0.00     0.038 C 
ENDBRANCH  11  25
TORSDOF 6
ENDMDL
