MODEL 1
REMARK VINA RESULT: -5.177743661      0.000      0.000
REMARK  1 active torsions:
REMARK  status: ('A' for Active; 'I' for Inactive)
REMARK    1  A    between atoms: O1_1  and  C1_3 
ROOT
HETATM    1  C1  UNL     1      13.010   1.765  27.213  1.00  0.00     0.213 C 
HETATM    2  C2  UNL     1      14.294   1.593  26.504  1.00  0.00     0.058 C 
HETATM    3  C3  UNL     1      14.321   0.620  25.393  1.00  0.00    -0.005 C 
HETATM    4  C4  UNL     1      15.341   1.054  24.331  1.00  0.00     0.005 C 
HETATM    5  C5  UNL     1      15.494   0.024  23.258  1.00  0.00     0.000 C 
HETATM    6  C6  UNL     1      14.408  -0.990  23.205  1.00  0.00     0.000 C 
HETATM    7  C7  UNL     1      13.056  -0.495  23.566  1.00  0.00     0.006 C 
HETATM    8  C8  UNL     1      13.007   0.500  24.660  1.00  0.00     0.007 C 
HETATM    9  C9  UNL     1      11.941   0.222  25.701  1.00  0.00     0.121 C 
HETATM   10  N1  UNL     1      11.837   1.363  26.540  1.00  0.00    -0.396 N 
ATOM     11  H1  UNL     1      10.957   1.866  26.651  1.00  0.00     0.155 HD
ENDROOT
BRANCH   1  12
HETATM   12  O1  UNL     1      13.055   1.162  28.492  1.00  0.00    -0.377 OA
ATOM     13  H1  UNL     1      12.266   0.658  28.657  1.00  0.00     0.212 HD
ENDBRANCH   1  12
TORSDOF 1
ENDMDL
MODEL 2
REMARK VINA RESULT: -5.114580029      2.395      3.683
REMARK  1 active torsions:
REMARK  status: ('A' for Active; 'I' for Inactive)
REMARK    1  A    between atoms: O1_1  and  C1_3 
ROOT
HETATM    1  C1  UNL     1      12.672  -1.421  24.478  1.00  0.00     0.213 C 
HETATM    2  C2  UNL     1      13.995  -1.105  25.055  1.00  0.00     0.058 C 
HETATM    3  C3  UNL     1      14.117   0.166  25.796  1.00  0.00    -0.005 C 
HETATM    4  C4  UNL     1      15.166   0.035  26.908  1.00  0.00     0.005 C 
HETATM    5  C5  UNL     1      15.415   1.341  27.592  1.00  0.00     0.000 C 
HETATM    6  C6  UNL     1      14.378   2.379  27.352  1.00  0.00     0.000 C 
HETATM    7  C7  UNL     1      12.989   1.872  27.210  1.00  0.00     0.006 C 
HETATM    8  C8  UNL     1      12.846   0.586  26.494  1.00  0.00     0.007 C 
HETATM    9  C9  UNL     1      11.745   0.579  25.452  1.00  0.00     0.121 C 
HETATM   10  N1  UNL     1      11.552  -0.761  25.024  1.00  0.00    -0.396 N 
ATOM     11  H1  UNL     1      10.647  -1.223  25.107  1.00  0.00     0.155 HD
ENDROOT
BRANCH   1  12
HETATM   12  O1  UNL     1      12.682  -1.258  23.073  1.00  0.00    -0.377 OA
ATOM     13  H1  UNL     1      11.849  -0.920  22.765  1.00  0.00     0.212 HD
ENDBRANCH   1  12
TORSDOF 1
ENDMDL
MODEL 3
REMARK VINA RESULT: -4.928847474      1.492      2.574
REMARK  1 active torsions:
REMARK  status: ('A' for Active; 'I' for Inactive)
REMARK    1  A    between atoms: O1_1  and  C1_3 
ROOT
HETATM    1  C1  UNL     1      11.830   0.312  25.460  1.00  0.00     0.213 C 
HETATM    2  C2  UNL     1      12.397  -0.300  24.241  1.00  0.00     0.058 C 
HETATM    3  C3  UNL     1      13.773   0.089  23.873  1.00  0.00    -0.005 C 
HETATM    4  C4  UNL     1      14.477  -1.067  23.149  1.00  0.00     0.005 C 
HETATM    5  C5  UNL     1      15.823  -0.664  22.641  1.00  0.00     0.000 C 
HETATM    6  C6  UNL     1      16.369   0.585  23.237  1.00  0.00     0.000 C 
HETATM    7  C7  UNL     1      16.016   0.818  24.660  1.00  0.00     0.006 C 
HETATM    8  C8  UNL     1      14.650   0.412  25.058  1.00  0.00     0.007 C 
HETATM    9  C9  UNL     1      13.914   1.447  25.886  1.00  0.00     0.121 C 
HETATM   10  N1  UNL     1      12.737   0.842  26.402  1.00  0.00    -0.396 N 
ATOM     11  H1  UNL     1      12.557   0.794  27.404  1.00  0.00     0.155 HD
ENDROOT
BRANCH   1  12
HETATM   12  O1  UNL     1      10.861   1.289  25.132  1.00  0.00    -0.377 OA
ATOM     13  H1  UNL     1      10.566   1.749  25.910  1.00  0.00     0.212 HD
ENDBRANCH   1  12
TORSDOF 1
ENDMDL
MODEL 4
REMARK VINA RESULT: -4.889248414      2.294      3.128
REMARK  1 active torsions:
REMARK  status: ('A' for Active; 'I' for Inactive)
REMARK    1  A    between atoms: O1_1  and  C1_3 
ROOT
HETATM    1  C1  UNL     1      11.460   0.107  25.085  1.00  0.00     0.213 C 
HETATM    2  C2  UNL     1      12.371  -1.005  24.743  1.00  0.00     0.058 C 
HETATM    3  C3  UNL     1      13.796  -0.834  25.088  1.00  0.00    -0.005 C 
HETATM    4  C4  UNL     1      14.435  -2.195  25.398  1.00  0.00     0.005 C 
HETATM    5  C5  UNL     1      15.908  -2.078  25.619  1.00  0.00     0.000 C 
HETATM    6  C6  UNL     1      16.394  -0.696  25.876  1.00  0.00     0.000 C 
HETATM    7  C7  UNL     1      15.461   0.177  26.634  1.00  0.00     0.006 C 
HETATM    8  C8  UNL     1      14.025   0.005  26.322  1.00  0.00     0.007 C 
HETATM    9  C9  UNL     1      13.277   1.307  26.118  1.00  0.00     0.121 C 
HETATM   10  N1  UNL     1      11.888   1.015  26.076  1.00  0.00    -0.396 N 
ATOM     11  H1  UNL     1      11.232   1.442  26.730  1.00  0.00     0.155 HD
ENDROOT
BRANCH   1  12
HETATM   12  O1  UNL     1      11.072   0.818  23.925  1.00  0.00    -0.377 OA
ATOM     13  H1  UNL     1      11.714   1.482  23.704  1.00  0.00     0.212 HD
ENDBRANCH   1  12
TORSDOF 1
ENDMDL
MODEL 5
REMARK VINA RESULT: -4.813374869      1.296      2.244
REMARK  1 active torsions:
REMARK  status: ('A' for Active; 'I' for Inactive)
REMARK    1  A    between atoms: O1_1  and  C1_3 
ROOT
HETATM    1  C1  UNL     1      12.842   1.503  27.568  1.00  0.00     0.213 C 
HETATM    2  C2  UNL     1      12.219   1.012  26.321  1.00  0.00     0.058 C 
HETATM    3  C3  UNL     1      13.129   0.545  25.256  1.00  0.00    -0.005 C 
HETATM    4  C4  UNL     1      12.458  -0.563  24.432  1.00  0.00     0.005 C 
HETATM    5  C5  UNL     1      13.295  -0.965  23.261  1.00  0.00     0.000 C 
HETATM    6  C6  UNL     1      14.715  -0.528  23.327  1.00  0.00     0.000 C 
HETATM    7  C7  UNL     1      15.311  -0.502  24.687  1.00  0.00     0.006 C 
HETATM    8  C8  UNL     1      14.410  -0.062  25.775  1.00  0.00     0.007 C 
HETATM    9  C9  UNL     1      15.029   0.949  26.720  1.00  0.00     0.121 C 
HETATM   10  N1  UNL     1      14.165   1.094  27.837  1.00  0.00    -0.396 N 
ATOM     11  H1  UNL     1      14.485   0.912  28.788  1.00  0.00     0.155 HD
ENDROOT
BRANCH   1  12
HETATM   12  O1  UNL     1      12.753   2.912  27.656  1.00  0.00    -0.377 OA
ATOM     13  H1  UNL     1      13.226   3.327  26.944  1.00  0.00     0.212 HD
ENDBRANCH   1  12
TORSDOF 1
ENDMDL
