MODEL 1
REMARK VINA RESULT: -5.036881309      0.000      0.000
REMARK  0 active torsions:
REMARK  status: ('A' for Active; 'I' for Inactive)
ROOT
HETATM    1  C1  UNL     1      13.008   1.608  27.221  1.00  0.00     0.079 C 
HETATM    2  N1  UNL     1      11.958   1.417  26.547  1.00  0.00    -0.320 N 
ATOM      3  H1  UNL     1      11.299   2.193  26.602  1.00  0.00     0.185 HD
HETATM    4  N2  UNL     1      11.520   0.394  25.760  1.00  0.00    -0.337 N 
ATOM      5  H2  UNL     1      10.868  -0.277  26.168  1.00  0.00     0.180 HD
HETATM    6  C2  UNL     1      11.928   0.193  24.355  1.00  0.00     0.139 C 
HETATM    7  C3  UNL     1      12.720  -1.033  24.168  1.00  0.00     0.021 C 
HETATM    8  C4  UNL     1      14.053  -0.932  23.551  1.00  0.00     0.002 C 
HETATM    9  C5  UNL     1      14.830   0.305  23.774  1.00  0.00     0.000 C 
HETATM   10  C6  UNL     1      16.169   0.067  24.448  1.00  0.00     0.000 C 
HETATM   11  C7  UNL     1      16.056  -0.039  25.937  1.00  0.00     0.000 C 
HETATM   12  C8  UNL     1      15.380   1.116  26.599  1.00  0.00     0.005 C 
HETATM   13  C9  UNL     1      14.162   0.684  27.358  1.00  0.00     0.046 C 
ENDROOT
TORSDOF 0
ENDMDL
MODEL 2
REMARK VINA RESULT: -5.021553285      0.898      1.077
REMARK  0 active torsions:
REMARK  status: ('A' for Active; 'I' for Inactive)
ROOT
HETATM    1  C1  UNL     1      13.958   1.931  27.455  1.00  0.00     0.079 C 
HETATM    2  N1  UNL     1      12.776   2.138  27.066  1.00  0.00    -0.320 N 
ATOM      3  H1  UNL     1      12.499   3.118  27.125  1.00  0.00     0.185 HD
HETATM    4  N2  UNL     1      11.790   1.330  26.582  1.00  0.00    -0.337 N 
ATOM      5  H2  UNL     1      11.067   1.018  27.231  1.00  0.00     0.180 HD
HETATM    6  C2  UNL     1      11.701   0.878  25.179  1.00  0.00     0.139 C 
HETATM    7  C3  UNL     1      11.891  -0.575  25.043  1.00  0.00     0.021 C 
HETATM    8  C4  UNL     1      12.946  -1.076  24.146  1.00  0.00     0.002 C 
HETATM    9  C5  UNL     1      14.162  -0.253  23.979  1.00  0.00     0.000 C 
HETATM   10  C6  UNL     1      15.438  -0.969  24.380  1.00  0.00     0.000 C 
HETATM   11  C7  UNL     1      15.695  -0.910  25.854  1.00  0.00     0.000 C 
HETATM   12  C8  UNL     1      15.709   0.466  26.434  1.00  0.00     0.005 C 
HETATM   13  C9  UNL     1      14.668   0.628  27.500  1.00  0.00     0.046 C 
ENDROOT
TORSDOF 0
ENDMDL
MODEL 3
REMARK VINA RESULT: -4.919000525      0.825      3.102
REMARK  0 active torsions:
REMARK  status: ('A' for Active; 'I' for Inactive)
ROOT
HETATM    1  C1  UNL     1      11.944  -0.502  24.794  1.00  0.00     0.079 C 
HETATM    2  N1  UNL     1      11.455   0.206  25.717  1.00  0.00    -0.320 N 
ATOM      3  H1  UNL     1      10.587  -0.171  26.096  1.00  0.00     0.185 HD
HETATM    4  N2  UNL     1      11.842   1.368  26.316  1.00  0.00    -0.337 N 
ATOM      5  H2  UNL     1      11.407   2.235  26.001  1.00  0.00     0.180 HD
HETATM    6  C2  UNL     1      12.853   1.452  27.390  1.00  0.00     0.139 C 
HETATM    7  C3  UNL     1      14.065   2.172  26.968  1.00  0.00     0.021 C 
HETATM    8  C4  UNL     1      15.370   1.502  27.089  1.00  0.00     0.002 C 
HETATM    9  C5  UNL     1      15.412   0.033  26.936  1.00  0.00     0.000 C 
HETATM   10  C6  UNL     1      16.307  -0.434  25.803  1.00  0.00     0.000 C 
HETATM   11  C7  UNL     1      15.623  -0.393  24.471  1.00  0.00     0.000 C 
HETATM   12  C8  UNL     1      14.332  -1.139  24.406  1.00  0.00     0.005 C 
HETATM   13  C9  UNL     1      13.192  -0.240  24.033  1.00  0.00     0.046 C 
ENDROOT
TORSDOF 0
ENDMDL
MODEL 4
REMARK VINA RESULT: -4.754242120      1.019      3.061
REMARK  0 active torsions:
REMARK  status: ('A' for Active; 'I' for Inactive)
ROOT
HETATM    1  C1  UNL     1      11.706   0.217  25.461  1.00  0.00     0.079 C 
HETATM    2  N1  UNL     1      12.000   1.059  26.355  1.00  0.00    -0.320 N 
ATOM      3  H1  UNL     1      11.443   0.955  27.203  1.00  0.00     0.185 HD
HETATM    4  N2  UNL     1      12.903   2.078  26.427  1.00  0.00    -0.337 N 
ATOM      5  H2  UNL     1      12.570   3.025  26.245  1.00  0.00     0.180 HD
HETATM    6  C2  UNL     1      14.333   1.898  26.751  1.00  0.00     0.139 C 
HETATM    7  C3  UNL     1      15.213   2.232  25.619  1.00  0.00     0.021 C 
HETATM    8  C4  UNL     1      16.168   1.221  25.137  1.00  0.00     0.002 C 
HETATM    9  C5  UNL     1      15.791  -0.203  25.256  1.00  0.00     0.000 C 
HETATM   10  C6  UNL     1      15.753  -0.934  23.927  1.00  0.00     0.000 C 
HETATM   11  C7  UNL     1      14.464  -0.733  23.193  1.00  0.00     0.000 C 
HETATM   12  C8  UNL     1      13.239  -1.083  23.971  1.00  0.00     0.005 C 
HETATM   13  C9  UNL     1      12.321   0.094  24.115  1.00  0.00     0.046 C 
ENDROOT
TORSDOF 0
ENDMDL
MODEL 5
REMARK VINA RESULT: -4.748336374      1.078      1.305
REMARK  0 active torsions:
REMARK  status: ('A' for Active; 'I' for Inactive)
ROOT
HETATM    1  C1  UNL     1      12.514   1.509  26.607  1.00  0.00     0.079 C 
HETATM    2  N1  UNL     1      11.761   0.868  25.822  1.00  0.00    -0.320 N 
ATOM      3  H1  UNL     1      11.103   1.464  25.322  1.00  0.00     0.185 HD
HETATM    4  N2  UNL     1      11.642  -0.451  25.502  1.00  0.00    -0.337 N 
ATOM      5  H2  UNL     1      10.908  -0.990  25.962  1.00  0.00     0.180 HD
HETATM    6  C2  UNL     1      12.508  -1.151  24.532  1.00  0.00     0.139 C 
HETATM    7  C3  UNL     1      13.348  -2.180  25.166  1.00  0.00     0.021 C 
HETATM    8  C4  UNL     1      14.809  -2.116  24.989  1.00  0.00     0.002 C 
HETATM    9  C5  UNL     1      15.431  -0.785  24.838  1.00  0.00     0.000 C 
HETATM   10  C6  UNL     1      16.467  -0.474  25.902  1.00  0.00     0.000 C 
HETATM   11  C7  UNL     1      15.858   0.041  27.169  1.00  0.00     0.000 C 
HETATM   12  C8  UNL     1      14.969   1.228  27.000  1.00  0.00     0.005 C 
HETATM   13  C9  UNL     1      13.576   0.949  27.481  1.00  0.00     0.046 C 
ENDROOT
TORSDOF 0
ENDMDL
