MODEL 1
REMARK VINA RESULT: -5.643109819      0.000      0.000
REMARK  1 active torsions:
REMARK  status: ('A' for Active; 'I' for Inactive)
REMARK    1  A    between atoms: O1_1  and  N1_3 
ROOT
HETATM    1  N1  UNL     1      12.398  -2.211  25.161  1.00  0.00    -0.277 N 
ATOM      2  H1  UNL     1      11.485  -1.815  24.940  1.00  0.00     0.193 HD
HETATM    3  C1  UNL     1      13.413  -1.419  25.252  1.00  0.00     0.010 C 
HETATM    4  C2  UNL     1      13.157   0.022  25.024  1.00  0.00     0.054 C 
HETATM    5  C3  UNL     1      12.617   0.675  26.278  1.00  0.00     0.006 C 
HETATM    6  C4  UNL     1      13.408   1.864  26.704  1.00  0.00     0.000 C 
HETATM    7  C5  UNL     1      14.884   1.672  26.715  1.00  0.00     0.000 C 
HETATM    8  C6  UNL     1      15.320   0.323  27.236  1.00  0.00     0.000 C 
HETATM    9  C7  UNL     1      16.377  -0.319  26.410  1.00  0.00     0.000 C 
HETATM   10  C8  UNL     1      15.892  -1.152  25.278  1.00  0.00     0.006 C 
HETATM   11  C9  UNL     1      14.715  -2.007  25.569  1.00  0.00     0.054 C 
ENDROOT
BRANCH   1  12
HETATM   12  O1  UNL     1      12.503  -3.567  25.351  1.00  0.00    -0.290 OA
ATOM     13  H1  UNL     1      13.340  -4.017  25.357  1.00  0.00     0.244 HD
ENDBRANCH   1  12
TORSDOF 1
ENDMDL
MODEL 2
REMARK VINA RESULT: -5.452844122      1.143      1.272
REMARK  1 active torsions:
REMARK  status: ('A' for Active; 'I' for Inactive)
REMARK    1  A    between atoms: O1_1  and  N1_3 
ROOT
HETATM    1  N1  UNL     1      12.278  -2.043  25.299  1.00  0.00    -0.277 N 
ATOM      2  H1  UNL     1      11.404  -1.755  25.738  1.00  0.00     0.193 HD
HETATM    3  C1  UNL     1      13.089  -1.133  24.874  1.00  0.00     0.010 C 
HETATM    4  C2  UNL     1      12.672   0.275  25.066  1.00  0.00     0.054 C 
HETATM    5  C3  UNL     1      12.987   0.741  26.470  1.00  0.00     0.006 C 
HETATM    6  C4  UNL     1      13.808   1.984  26.503  1.00  0.00     0.000 C 
HETATM    7  C5  UNL     1      14.984   1.990  25.590  1.00  0.00     0.000 C 
HETATM    8  C6  UNL     1      15.719   0.673  25.533  1.00  0.00     0.000 C 
HETATM    9  C7  UNL     1      16.073   0.250  24.152  1.00  0.00     0.000 C 
HETATM   10  C8  UNL     1      15.038  -0.541  23.435  1.00  0.00     0.006 C 
HETATM   11  C9  UNL     1      14.338  -1.567  24.247  1.00  0.00     0.054 C 
ENDROOT
BRANCH   1  12
HETATM   12  O1  UNL     1      12.550  -3.384  25.181  1.00  0.00    -0.290 OA
ATOM     13  H1  UNL     1      11.930  -4.054  25.445  1.00  0.00     0.244 HD
ENDBRANCH   1  12
TORSDOF 1
ENDMDL
MODEL 3
REMARK VINA RESULT: -5.229562575      2.724      3.566
REMARK  1 active torsions:
REMARK  status: ('A' for Active; 'I' for Inactive)
REMARK    1  A    between atoms: O1_1  and  N1_3 
ROOT
HETATM    1  N1  UNL     1      12.152   1.751  26.989  1.00  0.00    -0.277 N 
ATOM      2  H1  UNL     1      11.163   1.597  26.797  1.00  0.00     0.193 HD
HETATM    3  C1  UNL     1      13.013   0.905  26.533  1.00  0.00     0.010 C 
HETATM    4  C2  UNL     1      12.479  -0.235  25.754  1.00  0.00     0.054 C 
HETATM    5  C3  UNL     1      12.215   0.172  24.320  1.00  0.00     0.006 C 
HETATM    6  C4  UNL     1      12.894  -0.709  23.328  1.00  0.00     0.000 C 
HETATM    7  C5  UNL     1      14.326  -1.000  23.616  1.00  0.00     0.000 C 
HETATM    8  C6  UNL     1      15.098   0.190  24.134  1.00  0.00     0.000 C 
HETATM    9  C7  UNL     1      15.969  -0.128  25.296  1.00  0.00     0.000 C 
HETATM   10  C8  UNL     1      15.326  -0.022  26.632  1.00  0.00     0.006 C 
HETATM   11  C9  UNL     1      14.428   1.144  26.820  1.00  0.00     0.054 C 
ENDROOT
BRANCH   1  12
HETATM   12  O1  UNL     1      12.520   2.850  27.726  1.00  0.00    -0.290 OA
ATOM     13  H1  UNL     1      12.079   3.095  28.531  1.00  0.00     0.244 HD
ENDBRANCH   1  12
TORSDOF 1
ENDMDL
MODEL 4
REMARK VINA RESULT: -4.866568973      7.638      8.778
REMARK  1 active torsions:
REMARK  status: ('A' for Active; 'I' for Inactive)
REMARK    1  A    between atoms: O1_1  and  N1_3 
ROOT
HETATM    1  N1  UNL     1      19.867   1.902  18.881  1.00  0.00    -0.277 N 
ATOM      2  H1  UNL     1      20.629   2.293  19.435  1.00  0.00     0.193 HD
HETATM    3  C1  UNL     1      19.558   0.659  19.039  1.00  0.00     0.010 C 
HETATM    4  C2  UNL     1      20.350  -0.104  20.030  1.00  0.00     0.054 C 
HETATM    5  C3  UNL     1      19.830   0.137  21.431  1.00  0.00     0.006 C 
HETATM    6  C4  UNL     1      19.496  -1.122  22.155  1.00  0.00     0.000 C 
HETATM    7  C5  UNL     1      18.692  -2.105  21.377  1.00  0.00     0.000 C 
HETATM    8  C6  UNL     1      17.607  -1.477  20.536  1.00  0.00     0.000 C 
HETATM    9  C7  UNL     1      17.531  -2.027  19.157  1.00  0.00     0.000 C 
HETATM   10  C8  UNL     1      18.400  -1.362  18.150  1.00  0.00     0.006 C 
HETATM   11  C9  UNL     1      18.463   0.118  18.234  1.00  0.00     0.054 C 
ENDROOT
BRANCH   1  12
HETATM   12  O1  UNL     1      19.209   2.717  17.993  1.00  0.00    -0.290 OA
ATOM     13  H1  UNL     1      18.355   3.089  18.179  1.00  0.00     0.244 HD
ENDBRANCH   1  12
TORSDOF 1
ENDMDL
MODEL 5
REMARK VINA RESULT: -4.801838819      2.522      4.024
REMARK  1 active torsions:
REMARK  status: ('A' for Active; 'I' for Inactive)
REMARK    1  A    between atoms: O1_1  and  N1_3 
ROOT
HETATM    1  N1  UNL     1      13.378   1.881  27.140  1.00  0.00    -0.277 N 
ATOM      2  H1  UNL     1      14.239   2.277  27.518  1.00  0.00     0.193 HD
HETATM    3  C1  UNL     1      13.457   1.046  26.160  1.00  0.00     0.010 C 
HETATM    4  C2  UNL     1      14.815   0.729  25.660  1.00  0.00     0.054 C 
HETATM    5  C3  UNL     1      15.472  -0.324  26.526  1.00  0.00     0.006 C 
HETATM    6  C4  UNL     1      15.954  -1.501  25.749  1.00  0.00     0.000 C 
HETATM    7  C5  UNL     1      14.980  -2.053  24.767  1.00  0.00     0.000 C 
HETATM    8  C6  UNL     1      13.557  -2.087  25.271  1.00  0.00     0.000 C 
HETATM    9  C7  UNL     1      12.564  -1.599  24.278  1.00  0.00     0.000 C 
HETATM   10  C8  UNL     1      12.307  -0.135  24.289  1.00  0.00     0.006 C 
HETATM   11  C9  UNL     1      12.211   0.489  25.632  1.00  0.00     0.054 C 
ENDROOT
BRANCH   1  12
HETATM   12  O1  UNL     1      12.178   2.255  27.693  1.00  0.00    -0.290 OA
ATOM     13  H1  UNL     1      11.619   2.913  27.298  1.00  0.00     0.244 HD
ENDBRANCH   1  12
TORSDOF 1
ENDMDL
