MODEL 1
REMARK VINA RESULT: -4.557485114      0.000      0.000
REMARK  0 active torsions:
REMARK  status: ('A' for Active; 'I' for Inactive)
ROOT
HETATM    1  C1  UNL     1      13.597   2.074  27.066  1.00  0.00     0.000 C 
HETATM    2  C2  UNL     1      12.950   0.726  26.742  1.00  0.00     0.000 C 
HETATM    3  C3  UNL     1      12.059   0.793  25.547  1.00  0.00     0.001 C 
HETATM    4  C4  UNL     1      12.027  -0.432  24.712  1.00  0.00     0.017 C 
HETATM    5  C5  UNL     1      13.206  -0.659  23.843  1.00  0.00     0.130 C 
HETATM    6  N1  UNL     1      14.360   0.119  24.147  1.00  0.00    -0.149 NA
HETATM    7  N2  UNL     1      15.042   0.502  22.985  1.00  0.00    -0.149 NA
HETATM    8  C6  UNL     1      16.074   1.462  23.237  1.00  0.00     0.130 C 
HETATM    9  C7  UNL     1      16.346   1.704  24.691  1.00  0.00     0.017 C 
HETATM   10  C8  UNL     1      15.315   2.638  25.322  1.00  0.00     0.001 C 
HETATM   11  C9  UNL     1      15.042   2.118  26.702  1.00  0.00     0.000 C 
ENDROOT
TORSDOF 0
ENDMDL
MODEL 2
REMARK VINA RESULT: -4.524268913      0.803      3.296
REMARK  0 active torsions:
REMARK  status: ('A' for Active; 'I' for Inactive)
ROOT
HETATM    1  C1  UNL     1      13.629   1.554  27.042  1.00  0.00     0.000 C 
HETATM    2  C2  UNL     1      14.666   2.376  26.274  1.00  0.00     0.000 C 
HETATM    3  C3  UNL     1      15.943   1.632  26.065  1.00  0.00     0.001 C 
HETATM    4  C4  UNL     1      16.643   1.920  24.790  1.00  0.00     0.017 C 
HETATM    5  C5  UNL     1      16.063   1.304  23.574  1.00  0.00     0.130 C 
HETATM    6  N1  UNL     1      14.739   0.795  23.707  1.00  0.00    -0.149 NA
HETATM    7  N2  UNL     1      14.564  -0.382  22.969  1.00  0.00    -0.149 NA
HETATM    8  C6  UNL     1      13.323  -1.037  23.252  1.00  0.00     0.130 C 
HETATM    9  C7  UNL     1      12.390  -0.239  24.113  1.00  0.00     0.017 C 
HETATM   10  C8  UNL     1      12.770  -0.308  25.591  1.00  0.00     0.001 C 
HETATM   11  C9  UNL     1      12.531   1.057  26.167  1.00  0.00     0.000 C 
ENDROOT
TORSDOF 0
ENDMDL
MODEL 3
REMARK VINA RESULT: -4.517778443      2.136      3.526
REMARK  0 active torsions:
REMARK  status: ('A' for Active; 'I' for Inactive)
ROOT
HETATM    1  C1  UNL     1      14.936  -1.343  23.850  1.00  0.00     0.000 C 
HETATM    2  C2  UNL     1      13.670  -0.505  23.668  1.00  0.00     0.000 C 
HETATM    3  C3  UNL     1      12.539  -0.986  24.515  1.00  0.00     0.001 C 
HETATM    4  C4  UNL     1      11.633   0.072  25.022  1.00  0.00     0.017 C 
HETATM    5  C5  UNL     1      12.150   0.890  26.146  1.00  0.00     0.130 C 
HETATM    6  N1  UNL     1      13.552   0.800  26.384  1.00  0.00    -0.149 NA
HETATM    7  N2  UNL     1      13.843   0.845  27.753  1.00  0.00    -0.149 NA
HETATM    8  C6  UNL     1      15.212   0.539  28.040  1.00  0.00     0.130 C 
HETATM    9  C7  UNL     1      16.086   0.433  26.827  1.00  0.00     0.017 C 
HETATM   10  C8  UNL     1      15.927  -0.911  26.118  1.00  0.00     0.001 C 
HETATM   11  C9  UNL     1      15.981  -0.637  24.645  1.00  0.00     0.000 C 
ENDROOT
TORSDOF 0
ENDMDL
MODEL 4
REMARK VINA RESULT: -4.470085493      1.433      4.332
REMARK  0 active torsions:
REMARK  status: ('A' for Active; 'I' for Inactive)
ROOT
HETATM    1  C1  UNL     1      15.798  -0.130  22.880  1.00  0.00     0.000 C 
HETATM    2  C2  UNL     1      16.342   0.685  24.054  1.00  0.00     0.000 C 
HETATM    3  C3  UNL     1      15.784   2.070  24.095  1.00  0.00     0.001 C 
HETATM    4  C4  UNL     1      15.581   2.631  25.452  1.00  0.00     0.017 C 
HETATM    5  C5  UNL     1      14.411   2.117  26.203  1.00  0.00     0.130 C 
HETATM    6  N1  UNL     1      13.820   0.926  25.691  1.00  0.00    -0.149 NA
HETATM    7  N2  UNL     1      12.426   0.944  25.828  1.00  0.00    -0.149 NA
HETATM    8  C6  UNL     1      11.785  -0.130  25.132  1.00  0.00     0.130 C 
HETATM    9  C7  UNL     1      12.730  -1.153  24.576  1.00  0.00     0.017 C 
HETATM   10  C8  UNL     1      13.381  -0.689  23.274  1.00  0.00     0.001 C 
HETATM   11  C9  UNL     1      14.805  -1.157  23.306  1.00  0.00     0.000 C 
ENDROOT
TORSDOF 0
ENDMDL
MODEL 5
REMARK VINA RESULT: -4.448595491      1.349      3.412
REMARK  0 active torsions:
REMARK  status: ('A' for Active; 'I' for Inactive)
ROOT
HETATM    1  C1  UNL     1      15.616   1.559  26.062  1.00  0.00     0.000 C 
HETATM    2  C2  UNL     1      16.067   1.257  24.631  1.00  0.00     0.000 C 
HETATM    3  C3  UNL     1      16.313  -0.198  24.405  1.00  0.00     0.001 C 
HETATM    4  C4  UNL     1      15.981  -0.693  23.048  1.00  0.00     0.017 C 
HETATM    5  C5  UNL     1      14.540  -0.872  22.752  1.00  0.00     0.130 C 
HETATM    6  N1  UNL     1      13.638  -0.244  23.660  1.00  0.00    -0.149 NA
HETATM    7  N2  UNL     1      12.495  -1.024  23.871  1.00  0.00    -0.149 NA
HETATM    8  C6  UNL     1      11.675  -0.533  24.936  1.00  0.00     0.130 C 
HETATM    9  C7  UNL     1      12.093   0.806  25.466  1.00  0.00     0.017 C 
HETATM   10  C8  UNL     1      13.282   0.703  26.420  1.00  0.00     0.001 C 
HETATM   11  C9  UNL     1      14.164   1.884  26.147  1.00  0.00     0.000 C 
ENDROOT
TORSDOF 0
ENDMDL
