MODEL 1
REMARK VINA RESULT: -7.126337916      0.000      0.000
REMARK  7 active torsions:
REMARK  status: ('A' for Active; 'I' for Inactive)
REMARK    1  A    between atoms: C4_4  and  C6_6 
REMARK    2  A    between atoms: C6_6  and  C7_7 
REMARK    3  A    between atoms: C7_7  and  C8_8 
REMARK    4  A    between atoms: C10_10  and  C11_11 
REMARK    5  A    between atoms: C11_11  and  S1_12 
REMARK    6  A    between atoms: S1_12  and  C12_13 
REMARK    7  A    between atoms: N2_15  and  O1_17 
ROOT
HETATM    1  C1  UNL     1      37.434  29.098  58.581  1.00  0.00     0.102 C 
HETATM    2  C2  UNL     1      38.732  29.264  58.505  1.00  0.00    -0.160 C 
HETATM    3  C3  UNL     1      40.032  29.374  58.544  1.00  0.00     0.057 C 
HETATM    4  C4  UNL     1      40.640  29.520  59.842  1.00  0.00    -0.055 C 
HETATM    5  C5  UNL     1      39.947  28.958  61.066  1.00  0.00     0.049 C 
ENDROOT
BRANCH   4   6
HETATM    6  C6  UNL     1      41.757  30.148  60.070  1.00  0.00     0.007 C 
BRANCH   6   7
HETATM    7  C7  UNL     1      42.584  30.715  58.921  1.00  0.00     0.009 C 
BRANCH   7   8
HETATM    8  C8  UNL     1      42.223  31.774  58.397  1.00  0.00    -0.011 C 
HETATM    9  C9  UNL     1      41.807  33.002  57.790  1.00  0.00     0.112 C 
HETATM   10  C10 UNL     1      43.147  33.651  57.385  1.00  0.00     0.213 C 
HETATM   11  O2  UNL     1      43.073  33.582  55.980  1.00  0.00    -0.196 OA
HETATM   12  O4  UNL     1      44.058  32.540  57.507  1.00  0.00    -0.309 OA
HETATM   13  O3  UNL     1      42.521  32.308  55.985  1.00  0.00    -0.193 OA
HETATM   14  C13 UNL     1      43.221  31.643  56.935  1.00  0.00     0.221 C 
HETATM   15  C14 UNL     1      43.491  30.267  56.714  1.00  0.00     0.087 C 
BRANCH  10  16
HETATM   16  C11 UNL     1      43.525  34.855  58.038  1.00  0.00     0.153 C 
BRANCH  16  17
HETATM   17  S1  UNL     1      45.227  35.335  57.665  1.00  0.00    -0.090 SA
BRANCH  17  18
HETATM   18  C12 UNL     1      45.351  35.807  55.947  1.00  0.00     0.173 C 
HETATM   19  N1  UNL     1      45.056  37.142  55.557  1.00  0.00    -0.073 NA
HETATM   20  N2  UNL     1      45.694  34.930  55.074  1.00  0.00    -0.250 N 
ATOM     21  H2  UNL     1      45.766  35.191  54.091  1.00  0.00     0.196 HD
BRANCH  20  22
HETATM   22  O1  UNL     1      45.960  33.647  55.462  1.00  0.00    -0.288 OA
ATOM     23  H1  UNL     1      46.839  33.297  55.374  1.00  0.00     0.244 HD
ENDBRANCH  20  22
ENDBRANCH  17  18
ENDBRANCH  16  17
ENDBRANCH  10  16
ENDBRANCH   7   8
ENDBRANCH   6   7
ENDBRANCH   4   6
TORSDOF 7
ENDMDL
MODEL 2
REMARK VINA RESULT: -6.908351925      2.330      4.301
REMARK  7 active torsions:
REMARK  status: ('A' for Active; 'I' for Inactive)
REMARK    1  A    between atoms: C4_4  and  C6_6 
REMARK    2  A    between atoms: C6_6  and  C7_7 
REMARK    3  A    between atoms: C7_7  and  C8_8 
REMARK    4  A    between atoms: C10_10  and  C11_11 
REMARK    5  A    between atoms: C11_11  and  S1_12 
REMARK    6  A    between atoms: S1_12  and  C12_13 
REMARK    7  A    between atoms: N2_15  and  O1_17 
ROOT
HETATM    1  C1  UNL     1      46.782  27.955  53.962  1.00  0.00     0.102 C 
HETATM    2  C2  UNL     1      46.139  28.760  54.773  1.00  0.00    -0.160 C 
HETATM    3  C3  UNL     1      45.570  29.515  55.673  1.00  0.00     0.057 C 
HETATM    4  C4  UNL     1      45.486  28.988  57.012  1.00  0.00    -0.055 C 
HETATM    5  C5  UNL     1      46.507  27.975  57.489  1.00  0.00     0.049 C 
ENDROOT
BRANCH   4   6
HETATM    6  C6  UNL     1      44.555  29.290  57.869  1.00  0.00     0.007 C 
BRANCH   6   7
HETATM    7  C7  UNL     1      43.296  30.029  57.428  1.00  0.00     0.009 C 
BRANCH   7   8
HETATM    8  C8  UNL     1      43.158  31.213  57.754  1.00  0.00    -0.011 C 
HETATM    9  C9  UNL     1      42.998  32.585  58.130  1.00  0.00     0.112 C 
HETATM   10  C10 UNL     1      42.442  33.227  56.842  1.00  0.00     0.213 C 
HETATM   11  O2  UNL     1      41.129  33.547  57.240  1.00  0.00    -0.196 OA
HETATM   12  O4  UNL     1      42.051  32.064  56.082  1.00  0.00    -0.309 OA
HETATM   13  O3  UNL     1      40.959  32.359  57.940  1.00  0.00    -0.193 OA
HETATM   14  C13 UNL     1      41.506  31.416  57.138  1.00  0.00     0.221 C 
HETATM   15  C14 UNL     1      40.892  30.137  57.109  1.00  0.00     0.087 C 
BRANCH  10  16
HETATM   16  C11 UNL     1      43.254  34.179  56.171  1.00  0.00     0.153 C 
BRANCH  16  17
HETATM   17  S1  UNL     1      44.344  35.072  57.303  1.00  0.00    -0.090 SA
BRANCH  17  18
HETATM   18  C12 UNL     1      45.336  36.238  56.382  1.00  0.00     0.173 C 
HETATM   19  N1  UNL     1      45.172  36.348  54.974  1.00  0.00    -0.073 NA
HETATM   20  N2  UNL     1      46.199  36.959  57.000  1.00  0.00    -0.250 N 
ATOM     21  H2  UNL     1      46.770  37.627  56.481  1.00  0.00     0.196 HD
BRANCH  20  22
HETATM   22  O1  UNL     1      46.355  36.832  58.351  1.00  0.00    -0.288 OA
ATOM     23  H1  UNL     1      47.172  36.502  58.706  1.00  0.00     0.244 HD
ENDBRANCH  20  22
ENDBRANCH  17  18
ENDBRANCH  16  17
ENDBRANCH  10  16
ENDBRANCH   7   8
ENDBRANCH   6   7
ENDBRANCH   4   6
TORSDOF 7
ENDMDL
MODEL 3
REMARK VINA RESULT: -6.894659504      2.340      3.197
REMARK  7 active torsions:
REMARK  status: ('A' for Active; 'I' for Inactive)
REMARK    1  A    between atoms: C4_4  and  C6_6 
REMARK    2  A    between atoms: C6_6  and  C7_7 
REMARK    3  A    between atoms: C7_7  and  C8_8 
REMARK    4  A    between atoms: C10_10  and  C11_11 
REMARK    5  A    between atoms: C11_11  and  S1_12 
REMARK    6  A    between atoms: S1_12  and  C12_13 
REMARK    7  A    between atoms: N2_15  and  O1_17 
ROOT
HETATM    1  C1  UNL     1      41.265  29.565  61.218  1.00  0.00     0.102 C 
HETATM    2  C2  UNL     1      41.999  30.086  60.265  1.00  0.00    -0.160 C 
HETATM    3  C3  UNL     1      42.741  30.487  59.268  1.00  0.00     0.057 C 
HETATM    4  C4  UNL     1      43.709  29.552  58.754  1.00  0.00    -0.055 C 
HETATM    5  C5  UNL     1      43.468  28.064  58.894  1.00  0.00     0.049 C 
ENDROOT
BRANCH   4   6
HETATM    6  C6  UNL     1      44.834  29.887  58.190  1.00  0.00     0.007 C 
BRANCH   6   7
HETATM    7  C7  UNL     1      44.911  30.137  56.688  1.00  0.00     0.009 C 
BRANCH   7   8
HETATM    8  C8  UNL     1      44.014  30.794  56.150  1.00  0.00    -0.011 C 
HETATM    9  C9  UNL     1      42.975  31.556  55.525  1.00  0.00     0.112 C 
HETATM   10  C10 UNL     1      43.753  32.427  54.516  1.00  0.00     0.213 C 
HETATM   11  O2  UNL     1      43.321  31.881  53.291  1.00  0.00    -0.196 OA
HETATM   12  O4  UNL     1      45.036  31.767  54.490  1.00  0.00    -0.309 OA
HETATM   13  O3  UNL     1      43.371  30.574  53.756  1.00  0.00    -0.193 OA
HETATM   14  C13 UNL     1      44.520  30.515  54.472  1.00  0.00     0.221 C 
HETATM   15  C14 UNL     1      45.259  29.305  54.435  1.00  0.00     0.087 C 
BRANCH  10  16
HETATM   16  C11 UNL     1      43.768  33.832  54.725  1.00  0.00     0.153 C 
BRANCH  16  17
HETATM   17  S1  UNL     1      45.105  34.349  55.825  1.00  0.00    -0.090 SA
BRANCH  17  18
HETATM   18  C12 UNL     1      44.791  36.008  56.408  1.00  0.00     0.173 C 
HETATM   19  N1  UNL     1      45.105  37.120  55.579  1.00  0.00    -0.073 NA
HETATM   20  N2  UNL     1      44.296  36.182  57.579  1.00  0.00    -0.250 N 
ATOM     21  H2  UNL     1      44.114  37.126  57.920  1.00  0.00     0.196 HD
BRANCH  20  22
HETATM   22  O1  UNL     1      44.013  35.105  58.369  1.00  0.00    -0.288 OA
ATOM     23  H1  UNL     1      44.010  35.196  59.315  1.00  0.00     0.244 HD
ENDBRANCH  20  22
ENDBRANCH  17  18
ENDBRANCH  16  17
ENDBRANCH  10  16
ENDBRANCH   7   8
ENDBRANCH   6   7
ENDBRANCH   4   6
TORSDOF 7
ENDMDL
MODEL 4
REMARK VINA RESULT: -6.835077911      1.681      2.090
REMARK  7 active torsions:
REMARK  status: ('A' for Active; 'I' for Inactive)
REMARK    1  A    between atoms: C4_4  and  C6_6 
REMARK    2  A    between atoms: C6_6  and  C7_7 
REMARK    3  A    between atoms: C7_7  and  C8_8 
REMARK    4  A    between atoms: C10_10  and  C11_11 
REMARK    5  A    between atoms: C11_11  and  S1_12 
REMARK    6  A    between atoms: S1_12  and  C12_13 
REMARK    7  A    between atoms: N2_15  and  O1_17 
ROOT
HETATM    1  C1  UNL     1      38.169  27.918  59.963  1.00  0.00     0.102 C 
HETATM    2  C2  UNL     1      38.871  28.694  59.173  1.00  0.00    -0.160 C 
HETATM    3  C3  UNL     1      39.666  29.453  58.469  1.00  0.00     0.057 C 
HETATM    4  C4  UNL     1      40.666  30.201  59.187  1.00  0.00    -0.055 C 
HETATM    5  C5  UNL     1      41.183  29.686  60.515  1.00  0.00     0.049 C 
ENDROOT
BRANCH   4   6
HETATM    6  C6  UNL     1      41.158  31.342  58.800  1.00  0.00     0.007 C 
BRANCH   6   7
HETATM    7  C7  UNL     1      42.539  31.420  58.160  1.00  0.00     0.009 C 
BRANCH   7   8
HETATM    8  C8  UNL     1      42.620  31.505  56.930  1.00  0.00    -0.011 C 
HETATM    9  C9  UNL     1      42.714  31.604  55.505  1.00  0.00     0.112 C 
HETATM   10  C10 UNL     1      44.104  32.243  55.301  1.00  0.00     0.213 C 
HETATM   11  O2  UNL     1      44.814  31.177  54.713  1.00  0.00    -0.196 OA
HETATM   12  O4  UNL     1      44.698  32.072  56.604  1.00  0.00    -0.309 OA
HETATM   13  O3  UNL     1      44.246  30.225  55.549  1.00  0.00    -0.193 OA
HETATM   14  C13 UNL     1      44.244  30.808  56.772  1.00  0.00     0.221 C 
HETATM   15  C14 UNL     1      44.474  29.978  57.899  1.00  0.00     0.087 C 
BRANCH  10  16
HETATM   16  C11 UNL     1      44.157  33.550  54.746  1.00  0.00     0.153 C 
BRANCH  16  17
HETATM   17  S1  UNL     1      45.493  34.542  55.451  1.00  0.00    -0.090 SA
BRANCH  17  18
HETATM   18  C12 UNL     1      44.816  36.030  56.170  1.00  0.00     0.173 C 
HETATM   19  N1  UNL     1      44.907  37.261  55.463  1.00  0.00    -0.073 NA
HETATM   20  N2  UNL     1      44.264  35.978  57.327  1.00  0.00    -0.250 N 
ATOM     21  H2  UNL     1      43.875  36.824  57.745  1.00  0.00     0.196 HD
BRANCH  20  22
HETATM   22  O1  UNL     1      44.197  34.792  58.000  1.00  0.00    -0.288 OA
ATOM     23  H1  UNL     1      44.994  34.321  58.216  1.00  0.00     0.244 HD
ENDBRANCH  20  22
ENDBRANCH  17  18
ENDBRANCH  16  17
ENDBRANCH  10  16
ENDBRANCH   7   8
ENDBRANCH   6   7
ENDBRANCH   4   6
TORSDOF 7
ENDMDL
MODEL 5
REMARK VINA RESULT: -6.813141688      1.284      1.397
REMARK  7 active torsions:
REMARK  status: ('A' for Active; 'I' for Inactive)
REMARK    1  A    between atoms: C4_4  and  C6_6 
REMARK    2  A    between atoms: C6_6  and  C7_7 
REMARK    3  A    between atoms: C7_7  and  C8_8 
REMARK    4  A    between atoms: C10_10  and  C11_11 
REMARK    5  A    between atoms: C11_11  and  S1_12 
REMARK    6  A    between atoms: S1_12  and  C12_13 
REMARK    7  A    between atoms: N2_15  and  O1_17 
ROOT
HETATM    1  C1  UNL     1      37.485  29.081  58.797  1.00  0.00     0.102 C 
HETATM    2  C2  UNL     1      38.757  29.312  58.582  1.00  0.00    -0.160 C 
HETATM    3  C3  UNL     1      40.047  29.491  58.482  1.00  0.00     0.057 C 
HETATM    4  C4  UNL     1      40.774  29.715  59.705  1.00  0.00    -0.055 C 
HETATM    5  C5  UNL     1      40.243  29.160  61.010  1.00  0.00     0.049 C 
ENDROOT
BRANCH   4   6
HETATM    6  C6  UNL     1      41.872  30.408  59.797  1.00  0.00     0.007 C 
BRANCH   6   7
HETATM    7  C7  UNL     1      42.569  30.938  58.548  1.00  0.00     0.009 C 
BRANCH   7   8
HETATM    8  C8  UNL     1      42.291  32.074  58.151  1.00  0.00    -0.011 C 
HETATM    9  C9  UNL     1      41.971  33.391  57.691  1.00  0.00     0.112 C 
HETATM   10  C10 UNL     1      43.353  33.960  57.304  1.00  0.00     0.213 C 
HETATM   11  O2  UNL     1      43.232  34.048  55.903  1.00  0.00    -0.196 OA
HETATM   12  O4  UNL     1      44.162  32.767  57.275  1.00  0.00    -0.309 OA
HETATM   13  O3  UNL     1      42.567  32.833  55.798  1.00  0.00    -0.193 OA
HETATM   14  C13 UNL     1      43.231  32.012  56.646  1.00  0.00     0.221 C 
HETATM   15  C14 UNL     1      43.368  30.650  56.274  1.00  0.00     0.087 C 
BRANCH  10  16
HETATM   16  C11 UNL     1      43.857  35.050  58.063  1.00  0.00     0.153 C 
BRANCH  16  17
HETATM   17  S1  UNL     1      45.640  35.265  57.857  1.00  0.00    -0.090 SA
BRANCH  17  18
HETATM   18  C12 UNL     1      45.955  36.676  56.810  1.00  0.00     0.173 C 
HETATM   19  N1  UNL     1      45.192  36.860  55.624  1.00  0.00    -0.073 NA
HETATM   20  N2  UNL     1      46.879  37.507  57.130  1.00  0.00    -0.250 N 
ATOM     21  H2  UNL     1      47.065  38.316  56.537  1.00  0.00     0.196 HD
BRANCH  20  22
HETATM   22  O1  UNL     1      47.613  37.309  58.265  1.00  0.00    -0.288 OA
ATOM     23  H1  UNL     1      47.259  37.560  59.110  1.00  0.00     0.244 HD
ENDBRANCH  20  22
ENDBRANCH  17  18
ENDBRANCH  16  17
ENDBRANCH  10  16
ENDBRANCH   7   8
ENDBRANCH   6   7
ENDBRANCH   4   6
TORSDOF 7
ENDMDL
