MODEL 1
REMARK VINA RESULT: -7.774483583      0.000      0.000
REMARK  4 active torsions:
REMARK  status: ('A' for Active; 'I' for Inactive)
REMARK    1  A    between atoms: N1_1  and  C1_4 
REMARK    2  A    between atoms: C4_11  and  C5_12 
REMARK    3  A    between atoms: C7_16  and  N5_17 
REMARK    4  A    between atoms: N5_17  and  C8_19 
ROOT
HETATM    1  C1  UNL     1      40.693  30.395  58.577  1.00  0.00     0.119 A 
HETATM    2  N2  UNL     1      41.907  30.638  59.103  1.00  0.00    -0.338 N 
ATOM      3  H2  UNL     1      42.576  31.281  58.679  1.00  0.00     0.168 HD
HETATM    4  C2  UNL     1      42.162  29.962  60.232  1.00  0.00     0.182 A 
HETATM    5  N3  UNL     1      41.349  29.110  60.845  1.00  0.00    -0.350 N 
ATOM      6  H3  UNL     1      41.662  28.655  61.703  1.00  0.00     0.166 HD
HETATM    7  C3  UNL     1      40.090  28.822  60.353  1.00  0.00     0.067 A 
HETATM    8  C4  UNL     1      39.163  27.984  60.833  1.00  0.00     0.034 A 
HETATM    9  C13 UNL     1      37.982  27.888  60.081  1.00  0.00     0.067 A 
HETATM   10  S1  UNL     1      38.239  28.952  58.791  1.00  0.00    -0.095 SA
HETATM   11  C14 UNL     1      39.802  29.499  59.196  1.00  0.00     0.076 A 
ENDROOT
BRANCH   8  12
HETATM   12  C5  UNL     1      39.212  27.221  62.113  1.00  0.00     0.107 A 
HETATM   13  C6  UNL     1      39.544  25.934  62.383  1.00  0.00     0.130 A 
HETATM   14  N4  UNL     1      39.441  25.699  63.732  1.00  0.00    -0.329 N 
HETATM   15  C7  UNL     1      39.046  26.852  64.258  1.00  0.00     0.225 A 
ATOM     16  H4  UNL     1      39.627  24.826  64.225  1.00  0.00     0.168 HD
HETATM   17  O1  UNL     1      38.917  27.730  63.306  1.00  0.00    -0.277 OA
BRANCH  15  18
HETATM   18  N5  UNL     1      38.813  27.051  65.663  1.00  0.00    -0.351 N 
ATOM     19  H5  UNL     1      39.272  26.451  66.349  1.00  0.00     0.163 HD
BRANCH  18  20
HETATM   20  C8  UNL     1      37.932  28.096  66.092  1.00  0.00     0.085 C 
HETATM   21  C9  UNL     1      38.625  28.945  67.132  1.00  0.00     0.025 C 
HETATM   22  C10 UNL     1      37.600  29.230  68.208  1.00  0.00     0.002 C 
HETATM   23  C11 UNL     1      36.743  27.978  68.190  1.00  0.00     0.002 C 
HETATM   24  C12 UNL     1      36.663  27.586  66.733  1.00  0.00     0.025 C 
ENDBRANCH  18  20
ENDBRANCH  15  18
ENDBRANCH   8  12
BRANCH   1  25
HETATM   25  N1  UNL     1      40.279  30.954  57.498  1.00  0.00    -0.384 N 
ATOM     26  H12 UNL     1      39.509  31.616  57.597  1.00  0.00     0.157 HD
ATOM     27  H11 UNL     1      40.687  30.758  56.584  1.00  0.00     0.157 HD
ENDBRANCH   1  25
TORSDOF 4
ENDMDL
MODEL 2
REMARK VINA RESULT: -7.430727985      1.420      2.053
REMARK  4 active torsions:
REMARK  status: ('A' for Active; 'I' for Inactive)
REMARK    1  A    between atoms: N1_1  and  C1_4 
REMARK    2  A    between atoms: C4_11  and  C5_12 
REMARK    3  A    between atoms: C7_16  and  N5_17 
REMARK    4  A    between atoms: N5_17  and  C8_19 
ROOT
HETATM    1  C1  UNL     1      39.301  29.796  58.025  1.00  0.00     0.119 A 
HETATM    2  N2  UNL     1      38.022  29.452  57.792  1.00  0.00    -0.338 N 
ATOM      3  H2  UNL     1      37.516  29.737  56.952  1.00  0.00     0.168 HD
HETATM    4  C2  UNL     1      37.468  28.704  58.755  1.00  0.00     0.182 A 
HETATM    5  N3  UNL     1      38.055  28.293  59.873  1.00  0.00    -0.350 N 
ATOM      6  H3  UNL     1      37.523  27.726  60.533  1.00  0.00     0.166 HD
HETATM    7  C3  UNL     1      39.367  28.613  60.167  1.00  0.00     0.067 A 
HETATM    8  C4  UNL     1      40.096  28.299  61.246  1.00  0.00     0.034 A 
HETATM    9  C13 UNL     1      41.405  28.803  61.264  1.00  0.00     0.067 A 
HETATM   10  S1  UNL     1      41.527  29.657  59.808  1.00  0.00    -0.095 SA
HETATM   11  C14 UNL     1      39.959  29.381  59.198  1.00  0.00     0.076 A 
ENDROOT
BRANCH   8  12
HETATM   12  C5  UNL     1      39.702  27.404  62.372  1.00  0.00     0.107 A 
HETATM   13  C6  UNL     1      39.662  26.052  62.478  1.00  0.00     0.130 A 
HETATM   14  N4  UNL     1      39.231  25.696  63.732  1.00  0.00    -0.329 N 
HETATM   15  C7  UNL     1      39.017  26.842  64.366  1.00  0.00     0.225 A 
ATOM     16  H4  UNL     1      39.104  24.753  64.099  1.00  0.00     0.168 HD
HETATM   17  O1  UNL     1      39.295  27.829  63.565  1.00  0.00    -0.277 OA
BRANCH  15  18
HETATM   18  N5  UNL     1      38.552  26.928  65.725  1.00  0.00    -0.351 N 
ATOM     19  H5  UNL     1      38.822  26.218  66.405  1.00  0.00     0.163 HD
BRANCH  18  20
HETATM   20  C8  UNL     1      37.710  28.019  66.115  1.00  0.00     0.085 C 
HETATM   21  C9  UNL     1      38.431  28.877  67.128  1.00  0.00     0.025 C 
HETATM   22  C10 UNL     1      37.415  29.236  68.190  1.00  0.00     0.002 C 
HETATM   23  C11 UNL     1      36.513  28.016  68.213  1.00  0.00     0.002 C 
HETATM   24  C12 UNL     1      36.422  27.577  66.770  1.00  0.00     0.025 C 
ENDBRANCH  18  20
ENDBRANCH  15  18
ENDBRANCH   8  12
BRANCH   1  25
HETATM   25  N1  UNL     1      39.988  30.511  57.210  1.00  0.00    -0.384 N 
ATOM     26  H12 UNL     1      40.987  30.309  57.162  1.00  0.00     0.157 HD
ATOM     27  H11 UNL     1      39.574  31.244  56.636  1.00  0.00     0.157 HD
ENDBRANCH   1  25
TORSDOF 4
ENDMDL
MODEL 3
REMARK VINA RESULT: -7.356482139      4.314      6.576
REMARK  4 active torsions:
REMARK  status: ('A' for Active; 'I' for Inactive)
REMARK    1  A    between atoms: N1_1  and  C1_4 
REMARK    2  A    between atoms: C4_11  and  C5_12 
REMARK    3  A    between atoms: C7_16  and  N5_17 
REMARK    4  A    between atoms: N5_17  and  C8_19 
ROOT
HETATM    1  C1  UNL     1      46.925  28.827  58.744  1.00  0.00     0.119 A 
HETATM    2  N2  UNL     1      46.630  27.530  58.946  1.00  0.00    -0.338 N 
ATOM      3  H2  UNL     1      47.336  26.830  59.174  1.00  0.00     0.168 HD
HETATM    4  C2  UNL     1      45.328  27.236  58.822  1.00  0.00     0.182 A 
HETATM    5  N3  UNL     1      44.351  28.085  58.528  1.00  0.00    -0.350 N 
ATOM      6  H3  UNL     1      43.394  27.736  58.460  1.00  0.00     0.166 HD
HETATM    7  C3  UNL     1      44.592  29.429  58.312  1.00  0.00     0.067 A 
HETATM    8  C4  UNL     1      43.734  30.405  57.993  1.00  0.00     0.034 A 
HETATM    9  C13 UNL     1      44.298  31.676  57.810  1.00  0.00     0.067 A 
HETATM   10  S1  UNL     1      45.948  31.428  58.092  1.00  0.00    -0.095 SA
HETATM   11  C14 UNL     1      45.918  29.757  58.432  1.00  0.00     0.076 A 
ENDROOT
BRANCH   8  12
HETATM   12  C5  UNL     1      42.248  30.306  57.904  1.00  0.00     0.107 A 
HETATM   13  C6  UNL     1      41.316  31.163  57.417  1.00  0.00     0.130 A 
HETATM   14  N4  UNL     1      40.064  30.614  57.553  1.00  0.00    -0.329 N 
HETATM   15  C7  UNL     1      40.261  29.432  58.122  1.00  0.00     0.225 A 
ATOM     16  H4  UNL     1      39.174  31.027  57.275  1.00  0.00     0.168 HD
HETATM   17  O1  UNL     1      41.535  29.263  58.320  1.00  0.00    -0.277 OA
BRANCH  15  18
HETATM   18  N5  UNL     1      39.200  28.516  58.446  1.00  0.00    -0.351 N 
ATOM     19  H5  UNL     1      38.909  27.808  57.772  1.00  0.00     0.163 HD
BRANCH  18  20
HETATM   20  C8  UNL     1      38.557  28.605  59.723  1.00  0.00     0.085 C 
HETATM   21  C9  UNL     1      39.581  28.936  60.783  1.00  0.00     0.025 C 
HETATM   22  C10 UNL     1      39.256  28.072  61.982  1.00  0.00     0.002 C 
HETATM   23  C11 UNL     1      38.688  26.818  61.343  1.00  0.00     0.002 C 
HETATM   24  C12 UNL     1      37.898  27.315  60.154  1.00  0.00     0.025 C 
ENDBRANCH  18  20
ENDBRANCH  15  18
ENDBRANCH   8  12
BRANCH   1  25
HETATM   25  N1  UNL     1      48.121  29.286  58.823  1.00  0.00    -0.384 N 
ATOM     26  H12 UNL     1      48.218  30.302  58.803  1.00  0.00     0.157 HD
ATOM     27  H11 UNL     1      48.940  28.684  58.900  1.00  0.00     0.157 HD
ENDBRANCH   1  25
TORSDOF 4
ENDMDL
MODEL 4
REMARK VINA RESULT: -7.297280625      4.601      6.979
REMARK  4 active torsions:
REMARK  status: ('A' for Active; 'I' for Inactive)
REMARK    1  A    between atoms: N1_1  and  C1_4 
REMARK    2  A    between atoms: C4_11  and  C5_12 
REMARK    3  A    between atoms: C7_16  and  N5_17 
REMARK    4  A    between atoms: N5_17  and  C8_19 
ROOT
HETATM    1  C1  UNL     1      46.768  28.375  57.304  1.00  0.00     0.119 A 
HETATM    2  N2  UNL     1      46.495  27.580  58.354  1.00  0.00    -0.338 N 
ATOM      3  H2  UNL     1      47.176  26.931  58.749  1.00  0.00     0.168 HD
HETATM    4  C2  UNL     1      45.253  27.714  58.838  1.00  0.00     0.182 A 
HETATM    5  N3  UNL     1      44.311  28.533  58.384  1.00  0.00    -0.350 N 
ATOM      6  H3  UNL     1      43.399  28.541  58.840  1.00  0.00     0.166 HD
HETATM    7  C3  UNL     1      44.533  29.374  57.309  1.00  0.00     0.067 A 
HETATM    8  C4  UNL     1      43.696  30.237  56.721  1.00  0.00     0.034 A 
HETATM    9  C13 UNL     1      44.215  30.934  55.620  1.00  0.00     0.067 A 
HETATM   10  S1  UNL     1      45.799  30.353  55.487  1.00  0.00    -0.095 SA
HETATM   11  C14 UNL     1      45.797  29.256  56.793  1.00  0.00     0.076 A 
ENDROOT
BRANCH   8  12
HETATM   12  C5  UNL     1      42.319  30.601  57.162  1.00  0.00     0.107 A 
HETATM   13  C6  UNL     1      41.690  31.800  57.257  1.00  0.00     0.130 A 
HETATM   14  N4  UNL     1      40.408  31.618  57.714  1.00  0.00    -0.329 N 
HETATM   15  C7  UNL     1      40.281  30.309  57.888  1.00  0.00     0.225 A 
ATOM     16  H4  UNL     1      39.703  32.336  57.883  1.00  0.00     0.168 HD
HETATM   17  O1  UNL     1      41.399  29.727  57.563  1.00  0.00    -0.277 OA
BRANCH  15  18
HETATM   18  N5  UNL     1      39.078  29.679  58.362  1.00  0.00    -0.351 N 
ATOM     19  H5  UNL     1      38.166  30.041  58.085  1.00  0.00     0.163 HD
BRANCH  18  20
HETATM   20  C8  UNL     1      39.171  28.539  59.224  1.00  0.00     0.085 C 
HETATM   21  C9  UNL     1      37.783  28.038  59.550  1.00  0.00     0.025 C 
HETATM   22  C10 UNL     1      37.783  27.695  61.024  1.00  0.00     0.002 C 
HETATM   23  C11 UNL     1      38.761  28.703  61.599  1.00  0.00     0.002 C 
HETATM   24  C12 UNL     1      39.836  28.840  60.547  1.00  0.00     0.025 C 
ENDBRANCH  18  20
ENDBRANCH  15  18
ENDBRANCH   8  12
BRANCH   1  25
HETATM   25  N1  UNL     1      47.907  28.379  56.714  1.00  0.00    -0.384 N 
ATOM     26  H12 UNL     1      48.592  29.054  57.055  1.00  0.00     0.157 HD
ATOM     27  H11 UNL     1      48.132  27.750  55.944  1.00  0.00     0.157 HD
ENDBRANCH   1  25
TORSDOF 4
ENDMDL
MODEL 5
REMARK VINA RESULT: -7.022246221      4.370      6.954
REMARK  4 active torsions:
REMARK  status: ('A' for Active; 'I' for Inactive)
REMARK    1  A    between atoms: N1_1  and  C1_4 
REMARK    2  A    between atoms: C4_11  and  C5_12 
REMARK    3  A    between atoms: C7_16  and  N5_17 
REMARK    4  A    between atoms: N5_17  and  C8_19 
ROOT
HETATM    1  C1  UNL     1      46.169  32.050  54.862  1.00  0.00     0.119 A 
HETATM    2  N2  UNL     1      45.552  33.059  54.221  1.00  0.00    -0.338 N 
ATOM      3  H2  UNL     1      46.033  33.674  53.564  1.00  0.00     0.168 HD
HETATM    4  C2  UNL     1      44.252  33.189  54.519  1.00  0.00     0.182 A 
HETATM    5  N3  UNL     1      43.555  32.433  55.360  1.00  0.00    -0.350 N 
ATOM      6  H3  UNL     1      42.565  32.635  55.504  1.00  0.00     0.166 HD
HETATM    7  C3  UNL     1      44.133  31.382  56.046  1.00  0.00     0.067 A 
HETATM    8  C4  UNL     1      43.583  30.543  56.933  1.00  0.00     0.034 A 
HETATM    9  C13 UNL     1      44.449  29.587  57.484  1.00  0.00     0.067 A 
HETATM   10  S1  UNL     1      45.934  29.913  56.741  1.00  0.00    -0.095 SA
HETATM   11  C14 UNL     1      45.465  31.228  55.761  1.00  0.00     0.076 A 
ENDROOT
BRANCH   8  12
HETATM   12  C5  UNL     1      42.147  30.458  57.325  1.00  0.00     0.107 A 
HETATM   13  C6  UNL     1      41.167  31.395  57.365  1.00  0.00     0.130 A 
HETATM   14  N4  UNL     1      39.993  30.823  57.792  1.00  0.00    -0.329 N 
HETATM   15  C7  UNL     1      40.284  29.546  58.004  1.00  0.00     0.225 A 
ATOM     16  H4  UNL     1      39.091  31.282  57.919  1.00  0.00     0.168 HD
HETATM   17  O1  UNL     1      41.540  29.345  57.728  1.00  0.00    -0.277 OA
BRANCH  15  18
HETATM   18  N5  UNL     1      39.328  28.575  58.465  1.00  0.00    -0.351 N 
ATOM     19  H5  UNL     1      39.051  27.802  57.861  1.00  0.00     0.163 HD
BRANCH  18  20
HETATM   20  C8  UNL     1      38.769  28.703  59.777  1.00  0.00     0.085 C 
HETATM   21  C9  UNL     1      39.882  28.854  60.788  1.00  0.00     0.025 C 
HETATM   22  C10 UNL     1      39.504  27.998  61.977  1.00  0.00     0.002 C 
HETATM   23  C11 UNL     1      38.738  26.856  61.334  1.00  0.00     0.002 C 
HETATM   24  C12 UNL     1      37.964  27.499  60.206  1.00  0.00     0.025 C 
ENDBRANCH  18  20
ENDBRANCH  15  18
ENDBRANCH   8  12
BRANCH   1  25
HETATM   25  N1  UNL     1      47.413  31.780  54.698  1.00  0.00    -0.384 N 
ATOM     26  H12 UNL     1      47.771  31.858  53.746  1.00  0.00     0.157 HD
ATOM     27  H11 UNL     1      48.023  31.501  55.466  1.00  0.00     0.157 HD
ENDBRANCH   1  25
TORSDOF 4
ENDMDL
