MODEL 1
REMARK VINA RESULT: -7.662589854      0.000      0.000
REMARK  3 active torsions:
REMARK  status: ('A' for Active; 'I' for Inactive)
REMARK    1  A    between atoms: C2_7  and  N3_8 
REMARK    2  A    between atoms: N4_10  and  C3_12 
REMARK    3  A    between atoms: C10_22  and  C11_23 
ROOT
HETATM    1  N1  UNL     1      43.485  35.982  55.469  1.00  0.00    -0.234 N 
ATOM      2  H11 UNL     1      44.037  36.359  54.699  1.00  0.00     0.174 HD
ATOM      3  H12 UNL     1      42.915  36.740  55.845  1.00  0.00     0.174 HD
HETATM    4  C1  UNL     1      43.507  34.762  55.891  1.00  0.00     0.678 A 
HETATM    5  N2  UNL     1      42.769  34.257  56.921  1.00  0.00    -0.173 N 
ATOM      6  H2  UNL     1      42.103  34.772  57.496  1.00  0.00     0.186 HD
HETATM    7  C2  UNL     1      43.084  32.956  57.038  1.00  0.00     0.166 A 
HETATM    8  C10 UNL     1      44.023  32.629  56.081  1.00  0.00     0.128 A 
HETATM    9  N7  UNL     1      44.265  33.754  55.391  1.00  0.00    -0.185 N 
ATOM     10  H7  UNL     1      44.918  33.838  54.612  1.00  0.00     0.184 HD
ENDROOT
BRANCH   7  11
HETATM   11  N3  UNL     1      42.570  31.997  57.978  1.00  0.00    -0.281 N 
HETATM   12  N4  UNL     1      41.447  31.480  57.683  1.00  0.00    -0.283 N 
ATOM     13  H4  UNL     1      40.991  31.770  56.818  1.00  0.00     0.188 HD
ATOM     14  H3  UNL     1      43.075  31.748  58.829  1.00  0.00     0.188 HD
BRANCH  12  15
HETATM   15  C3  UNL     1      40.799  30.519  58.500  1.00  0.00     0.137 A 
HETATM   16  C4  UNL     1      41.225  29.970  59.689  1.00  0.00     0.142 A 
HETATM   17  N5  UNL     1      40.272  29.103  60.089  1.00  0.00    -0.343 N 
HETATM   18  C5  UNL     1      39.263  29.092  59.186  1.00  0.00     0.084 A 
HETATM   19  C9  UNL     1      40.121  28.227  61.234  1.00  0.00     0.130 C 
HETATM   20  N6  UNL     1      39.609  29.959  58.233  1.00  0.00    -0.330 N 
HETATM   21  C6  UNL     1      38.130  28.179  59.490  1.00  0.00     0.076 C 
ATOM     22  H6  UNL     1      39.044  30.169  57.410  1.00  0.00     0.168 HD
HETATM   23  C7  UNL     1      37.645  28.530  60.880  1.00  0.00     0.009 C 
HETATM   24  C8  UNL     1      38.768  28.317  61.869  1.00  0.00     0.021 C 
ENDBRANCH  12  15
ENDBRANCH   7  11
BRANCH   8  25
HETATM   25  C11 UNL     1      44.620  31.303  55.882  1.00  0.00     0.106 A 
HETATM   26  C12 UNL     1      44.754  30.669  54.665  1.00  0.00     0.041 A 
HETATM   27  C13 UNL     1      45.359  29.449  54.891  1.00  0.00     0.027 A 
HETATM   28  C14 UNL     1      45.577  29.382  56.247  1.00  0.00     0.142 A 
HETATM   29  O1  UNL     1      45.124  30.493  56.761  1.00  0.00    -0.320 OA
ENDBRANCH   8  25
TORSDOF 3
ENDMDL
MODEL 2
REMARK VINA RESULT: -7.650062182      1.763      2.337
REMARK  3 active torsions:
REMARK  status: ('A' for Active; 'I' for Inactive)
REMARK    1  A    between atoms: C2_7  and  N3_8 
REMARK    2  A    between atoms: N4_10  and  C3_12 
REMARK    3  A    between atoms: C10_22  and  C11_23 
ROOT
HETATM    1  N1  UNL     1      43.823  32.765  53.184  1.00  0.00    -0.234 N 
ATOM      2  H11 UNL     1      44.556  32.722  52.475  1.00  0.00     0.174 HD
ATOM      3  H12 UNL     1      43.150  33.474  52.892  1.00  0.00     0.174 HD
HETATM    4  C1  UNL     1      43.762  32.048  54.256  1.00  0.00     0.678 A 
HETATM    5  N2  UNL     1      42.782  32.106  55.202  1.00  0.00    -0.173 N 
ATOM      6  H2  UNL     1      41.967  32.720  55.193  1.00  0.00     0.186 HD
HETATM    7  C2  UNL     1      43.089  31.204  56.150  1.00  0.00     0.166 A 
HETATM    8  C10 UNL     1      44.265  30.570  55.809  1.00  0.00     0.128 A 
HETATM    9  N7  UNL     1      44.657  31.106  54.643  1.00  0.00    -0.185 N 
ATOM     10  H7  UNL     1      45.498  30.845  54.128  1.00  0.00     0.184 HD
ENDROOT
BRANCH   7  11
HETATM   11  N3  UNL     1      42.361  30.893  57.351  1.00  0.00    -0.281 N 
HETATM   12  N4  UNL     1      41.504  29.960  57.252  1.00  0.00    -0.283 N 
ATOM     13  H4  UNL     1      41.387  29.500  56.349  1.00  0.00     0.188 HD
ATOM     14  H3  UNL     1      42.523  31.390  58.227  1.00  0.00     0.188 HD
BRANCH  12  15
HETATM   15  C3  UNL     1      40.701  29.528  58.339  1.00  0.00     0.137 A 
HETATM   16  C4  UNL     1      39.331  29.423  58.411  1.00  0.00     0.142 A 
HETATM   17  N5  UNL     1      39.032  28.970  59.646  1.00  0.00    -0.343 N 
HETATM   18  C5  UNL     1      40.175  28.788  60.350  1.00  0.00     0.084 A 
HETATM   19  C9  UNL     1      37.796  28.655  60.334  1.00  0.00     0.130 C 
HETATM   20  N6  UNL     1      41.172  29.135  59.533  1.00  0.00    -0.330 N 
HETATM   21  C6  UNL     1      40.008  28.289  61.740  1.00  0.00     0.076 C 
ATOM     22  H6  UNL     1      42.160  29.106  59.783  1.00  0.00     0.168 HD
HETATM   23  C7  UNL     1      39.188  27.021  61.653  1.00  0.00     0.009 C 
HETATM   24  C8  UNL     1      37.840  27.339  61.048  1.00  0.00     0.021 C 
ENDBRANCH  12  15
ENDBRANCH   7  11
BRANCH   8  25
HETATM   25  C11 UNL     1      44.932  29.520  56.588  1.00  0.00     0.106 A 
HETATM   26  C12 UNL     1      46.088  28.868  56.211  1.00  0.00     0.041 A 
HETATM   27  C13 UNL     1      46.396  27.956  57.201  1.00  0.00     0.027 A 
HETATM   28  C14 UNL     1      45.413  28.086  58.153  1.00  0.00     0.142 A 
HETATM   29  O1  UNL     1      44.596  29.013  57.732  1.00  0.00    -0.320 OA
ENDBRANCH   8  25
TORSDOF 3
ENDMDL
MODEL 3
REMARK VINA RESULT: -7.609081611      2.927      4.275
REMARK  3 active torsions:
REMARK  status: ('A' for Active; 'I' for Inactive)
REMARK    1  A    between atoms: C2_7  and  N3_8 
REMARK    2  A    between atoms: N4_10  and  C3_12 
REMARK    3  A    between atoms: C10_22  and  C11_23 
ROOT
HETATM    1  N1  UNL     1      48.826  27.838  58.478  1.00  0.00    -0.234 N 
ATOM      2  H11 UNL     1      49.658  28.185  58.000  1.00  0.00     0.174 HD
ATOM      3  H12 UNL     1      49.134  27.238  59.243  1.00  0.00     0.174 HD
HETATM    4  C1  UNL     1      47.604  28.114  58.167  1.00  0.00     0.678 A 
HETATM    5  N2  UNL     1      46.491  27.651  58.807  1.00  0.00    -0.173 N 
ATOM      6  H2  UNL     1      46.473  27.028  59.614  1.00  0.00     0.186 HD
HETATM    7  C2  UNL     1      45.423  28.168  58.176  1.00  0.00     0.166 A 
HETATM    8  C10 UNL     1      45.854  28.962  57.133  1.00  0.00     0.128 A 
HETATM    9  N7  UNL     1      47.195  28.912  57.150  1.00  0.00    -0.185 N 
ATOM     10  H7  UNL     1      47.811  29.398  56.498  1.00  0.00     0.184 HD
ENDROOT
BRANCH   7  11
HETATM   11  N3  UNL     1      44.031  27.974  58.478  1.00  0.00    -0.281 N 
HETATM   12  N4  UNL     1      43.402  29.005  58.875  1.00  0.00    -0.283 N 
ATOM     13  H4  UNL     1      43.912  29.885  58.953  1.00  0.00     0.188 HD
ATOM     14  H3  UNL     1      43.577  27.066  58.380  1.00  0.00     0.188 HD
BRANCH  12  15
HETATM   15  C3  UNL     1      42.025  28.988  59.215  1.00  0.00     0.137 A 
HETATM   16  C4  UNL     1      40.931  29.106  58.388  1.00  0.00     0.142 A 
HETATM   17  N5  UNL     1      39.834  29.032  59.169  1.00  0.00    -0.343 N 
HETATM   18  C5  UNL     1      40.208  28.872  60.460  1.00  0.00     0.084 A 
HETATM   19  C9  UNL     1      38.408  29.088  58.914  1.00  0.00     0.130 C 
HETATM   20  N6  UNL     1      41.542  28.849  60.459  1.00  0.00    -0.330 N 
HETATM   21  C6  UNL     1      39.102  28.774  61.448  1.00  0.00     0.076 C 
ATOM     22  H6  UNL     1      42.119  28.740  61.293  1.00  0.00     0.168 HD
HETATM   23  C7  UNL     1      38.193  27.660  60.979  1.00  0.00     0.009 C 
HETATM   24  C8  UNL     1      37.644  28.006  59.614  1.00  0.00     0.021 C 
ENDBRANCH  12  15
ENDBRANCH   7  11
BRANCH   8  25
HETATM   25  C11 UNL     1      44.991  29.703  56.205  1.00  0.00     0.106 A 
HETATM   26  C12 UNL     1      45.164  29.762  54.838  1.00  0.00     0.041 A 
HETATM   27  C13 UNL     1      44.158  30.552  54.321  1.00  0.00     0.027 A 
HETATM   28  C14 UNL     1      43.399  30.949  55.397  1.00  0.00     0.142 A 
HETATM   29  O1  UNL     1      43.941  30.419  56.460  1.00  0.00    -0.320 OA
ENDBRANCH   8  25
TORSDOF 3
ENDMDL
MODEL 4
REMARK VINA RESULT: -7.550635407      1.070      1.387
REMARK  3 active torsions:
REMARK  status: ('A' for Active; 'I' for Inactive)
REMARK    1  A    between atoms: C2_7  and  N3_8 
REMARK    2  A    between atoms: N4_10  and  C3_12 
REMARK    3  A    between atoms: C10_22  and  C11_23 
ROOT
HETATM    1  N1  UNL     1      44.157  34.293  54.709  1.00  0.00    -0.234 N 
ATOM      2  H11 UNL     1      44.845  34.662  54.052  1.00  0.00     0.174 HD
ATOM      3  H12 UNL     1      43.462  35.021  54.874  1.00  0.00     0.174 HD
HETATM    4  C1  UNL     1      44.166  33.113  55.233  1.00  0.00     0.678 A 
HETATM    5  N2  UNL     1      43.246  32.620  56.111  1.00  0.00    -0.173 N 
ATOM      6  H2  UNL     1      42.428  33.112  56.470  1.00  0.00     0.186 HD
HETATM    7  C2  UNL     1      43.617  31.364  56.414  1.00  0.00     0.166 A 
HETATM    8  C10 UNL     1      44.774  31.055  55.730  1.00  0.00     0.128 A 
HETATM    9  N7  UNL     1      45.090  32.145  55.014  1.00  0.00    -0.185 N 
ATOM     10  H7  UNL     1      45.900  32.231  54.399  1.00  0.00     0.184 HD
ENDROOT
BRANCH   7  11
HETATM   11  N3  UNL     1      42.966  30.433  57.296  1.00  0.00    -0.281 N 
HETATM   12  N4  UNL     1      41.792  30.750  57.666  1.00  0.00    -0.283 N 
ATOM     13  H4  UNL     1      41.393  31.623  57.323  1.00  0.00     0.188 HD
ATOM     14  H3  UNL     1      43.419  29.573  57.605  1.00  0.00     0.188 HD
BRANCH  12  15
HETATM   15  C3  UNL     1      41.011  29.944  58.535  1.00  0.00     0.137 A 
HETATM   16  C4  UNL     1      41.306  29.512  59.808  1.00  0.00     0.142 A 
HETATM   17  N5  UNL     1      40.259  28.773  60.228  1.00  0.00    -0.343 N 
HETATM   18  C5  UNL     1      39.317  28.728  59.255  1.00  0.00     0.084 A 
HETATM   19  C9  UNL     1      39.956  28.054  61.449  1.00  0.00     0.130 C 
HETATM   20  N6  UNL     1      39.800  29.447  58.240  1.00  0.00    -0.330 N 
HETATM   21  C6  UNL     1      38.095  27.944  59.571  1.00  0.00     0.076 C 
ATOM     22  H6  UNL     1      39.313  29.598  57.356  1.00  0.00     0.168 HD
HETATM   23  C7  UNL     1      37.545  28.495  60.869  1.00  0.00     0.009 C 
HETATM   24  C8  UNL     1      38.574  28.320  61.961  1.00  0.00     0.021 C 
ENDBRANCH  12  15
ENDBRANCH   7  11
BRANCH   8  25
HETATM   25  C11 UNL     1      45.495  29.778  55.794  1.00  0.00     0.106 A 
HETATM   26  C12 UNL     1      46.037  29.119  54.711  1.00  0.00     0.041 A 
HETATM   27  C13 UNL     1      46.628  27.962  55.176  1.00  0.00     0.027 A 
HETATM   28  C14 UNL     1      46.425  27.955  56.536  1.00  0.00     0.142 A 
HETATM   29  O1  UNL     1      45.761  29.041  56.827  1.00  0.00    -0.320 OA
ENDBRANCH   8  25
TORSDOF 3
ENDMDL
MODEL 5
REMARK VINA RESULT: -7.495880830      2.724      3.989
REMARK  3 active torsions:
REMARK  status: ('A' for Active; 'I' for Inactive)
REMARK    1  A    between atoms: C2_7  and  N3_8 
REMARK    2  A    between atoms: N4_10  and  C3_12 
REMARK    3  A    between atoms: C10_22  and  C11_23 
ROOT
HETATM    1  N1  UNL     1      48.468  29.913  57.823  1.00  0.00    -0.234 N 
ATOM      2  H11 UNL     1      49.189  30.422  57.312  1.00  0.00     0.174 HD
ATOM      3  H12 UNL     1      48.849  29.002  58.076  1.00  0.00     0.174 HD
HETATM    4  C1  UNL     1      47.284  30.349  58.099  1.00  0.00     0.678 A 
HETATM    5  N2  UNL     1      46.320  29.668  58.782  1.00  0.00    -0.173 N 
ATOM      6  H2  UNL     1      46.401  28.727  59.168  1.00  0.00     0.186 HD
HETATM    7  C2  UNL     1      45.242  30.467  58.854  1.00  0.00     0.166 A 
HETATM    8  C10 UNL     1      45.517  31.659  58.216  1.00  0.00     0.128 A 
HETATM    9  N7  UNL     1      46.776  31.560  57.762  1.00  0.00    -0.185 N 
ATOM     10  H7  UNL     1      47.274  32.285  57.244  1.00  0.00     0.184 HD
ENDROOT
BRANCH   7  11
HETATM   11  N3  UNL     1      43.974  30.197  59.476  1.00  0.00    -0.281 N 
HETATM   12  N4  UNL     1      43.088  29.680  58.725  1.00  0.00    -0.283 N 
ATOM     13  H4  UNL     1      43.325  29.493  57.751  1.00  0.00     0.188 HD
ATOM     14  H3  UNL     1      43.796  30.408  60.458  1.00  0.00     0.188 HD
BRANCH  12  15
HETATM   15  C3  UNL     1      41.785  29.351  59.179  1.00  0.00     0.137 A 
HETATM   16  C4  UNL     1      40.623  29.229  58.451  1.00  0.00     0.142 A 
HETATM   17  N5  UNL     1      39.643  28.904  59.319  1.00  0.00    -0.343 N 
HETATM   18  C5  UNL     1      40.157  28.818  60.569  1.00  0.00     0.084 A 
HETATM   19  C9  UNL     1      38.224  28.641  59.187  1.00  0.00     0.130 C 
HETATM   20  N6  UNL     1      41.457  29.095  60.455  1.00  0.00    -0.330 N 
HETATM   21  C6  UNL     1      39.193  28.465  61.644  1.00  0.00     0.076 C 
ATOM     22  H6  UNL     1      42.116  29.110  61.234  1.00  0.00     0.168 HD
HETATM   23  C7  UNL     1      38.516  27.181  61.219  1.00  0.00     0.009 C 
HETATM   24  C8  UNL     1      37.784  27.409  59.916  1.00  0.00     0.021 C 
ENDBRANCH  12  15
ENDBRANCH   7  11
BRANCH   8  25
HETATM   25  C11 UNL     1      44.596  32.792  58.078  1.00  0.00     0.106 A 
HETATM   26  C12 UNL     1      44.952  34.121  58.183  1.00  0.00     0.041 A 
HETATM   27  C13 UNL     1      43.813  34.877  57.994  1.00  0.00     0.027 A 
HETATM   28  C14 UNL     1      42.795  33.978  57.777  1.00  0.00     0.142 A 
HETATM   29  O1  UNL     1      43.321  32.786  57.839  1.00  0.00    -0.320 OA
ENDBRANCH   8  25
TORSDOF 3
ENDMDL
