MODEL 1
REMARK VINA RESULT: -9.001511051      0.000      0.000
REMARK  2 active torsions:
REMARK  status: ('A' for Active; 'I' for Inactive)
REMARK       I    between atoms: N1_14  and  C13_15 
REMARK    1  A    between atoms: C13_15  and  C14_17 
REMARK       I    between atoms: N3_23  and  C17_24 
REMARK    2  A    between atoms: C17_24  and  C18_26 
ROOT
HETATM    1  O1  UNL     1      28.135  77.635  82.517  1.00  0.00    -0.273 OA
HETATM    2  C1  UNL     1      28.317  77.305  83.740  1.00  0.00     0.226 C 
HETATM    3  C2  UNL     1      28.562  78.407  84.685  1.00  0.00     0.103 C 
HETATM    4  C3  UNL     1      27.647  79.577  84.395  1.00  0.00     0.009 C 
HETATM    5  C4  UNL     1      27.425  80.454  85.589  1.00  0.00     0.000 C 
HETATM    6  C5  UNL     1      26.579  79.841  86.656  1.00  0.00     0.000 C 
HETATM    7  C6  UNL     1      25.112  80.045  86.487  1.00  0.00     0.000 C 
HETATM    8  C7  UNL     1      24.300  78.791  86.436  1.00  0.00     0.000 C 
HETATM    9  C8  UNL     1      24.669  77.761  87.441  1.00  0.00     0.000 C 
HETATM   10  C9  UNL     1      25.351  76.553  86.951  1.00  0.00     0.000 C 
HETATM   11  C10 UNL     1      25.381  76.314  85.491  1.00  0.00     0.002 C 
HETATM   12  C11 UNL     1      26.270  75.116  85.219  1.00  0.00     0.020 C 
HETATM   13  C12 UNL     1      27.742  75.423  85.307  1.00  0.00     0.135 C 
HETATM   14  N1  UNL     1      28.259  75.925  84.024  1.00  0.00    -0.287 N 
HETATM   15  C13 UNL     1      28.703  74.964  83.069  1.00  0.00     0.251 C 
HETATM   16  O2  UNL     1      29.126  75.396  81.948  1.00  0.00    -0.271 OA
ENDROOT
BRANCH  15  17
HETATM   17  C14 UNL     1      28.712  73.509  83.275  1.00  0.00     0.207 C 
HETATM   18  C15 UNL     1      29.552  73.132  84.506  1.00  0.00     0.160 C 
HETATM   19  N2  UNL     1      30.843  73.625  84.068  1.00  0.00    -0.340 N 
HETATM   20  C16 UNL     1      30.907  73.183  82.691  1.00  0.00     0.326 C 
ATOM     21  H2  UNL     1      31.535  74.154  84.599  1.00  0.00     0.164 HD
HETATM   22  O3  UNL     1      31.986  73.074  82.065  1.00  0.00    -0.247 OA
HETATM   23  N3  UNL     1      29.593  72.918  82.239  1.00  0.00    -0.254 N 
HETATM   24  C17 UNL     1      29.194  72.229  81.086  1.00  0.00     0.232 C 
HETATM   25  O4  UNL     1      27.927  72.077  80.946  1.00  0.00    -0.272 OA
BRANCH  24  26
HETATM   26  C18 UNL     1      30.050  71.666  80.026  1.00  0.00     0.078 C 
HETATM   27  C19 UNL     1      30.458  70.239  80.408  1.00  0.00     0.014 C 
HETATM   28  C20 UNL     1      29.328  69.325  80.029  1.00  0.00     0.001 C 
HETATM   29  C21 UNL     1      29.494  69.058  78.527  1.00  0.00     0.000 C 
HETATM   30  C22 UNL     1      29.950  70.365  77.901  1.00  0.00     0.001 C 
HETATM   31  C23 UNL     1      29.357  71.554  78.681  1.00  0.00     0.014 C 
ENDBRANCH  24  26
ENDBRANCH  15  17
TORSDOF 2
ENDMDL
MODEL 2
REMARK VINA RESULT: -8.749975976      4.062      6.483
REMARK  2 active torsions:
REMARK  status: ('A' for Active; 'I' for Inactive)
REMARK       I    between atoms: N1_14  and  C13_15 
REMARK    1  A    between atoms: C13_15  and  C14_17 
REMARK       I    between atoms: N3_23  and  C17_24 
REMARK    2  A    between atoms: C17_24  and  C18_26 
ROOT
HETATM    1  O1  UNL     1      30.547  72.775  87.019  1.00  0.00    -0.273 OA
HETATM    2  C1  UNL     1      31.247  73.824  86.810  1.00  0.00     0.226 C 
HETATM    3  C2  UNL     1      31.557  74.651  87.988  1.00  0.00     0.103 C 
HETATM    4  C3  UNL     1      31.920  73.782  89.173  1.00  0.00     0.009 C 
HETATM    5  C4  UNL     1      32.767  74.496  90.182  1.00  0.00     0.000 C 
HETATM    6  C5  UNL     1      34.167  74.762  89.734  1.00  0.00     0.000 C 
HETATM    7  C6  UNL     1      35.132  73.658  90.005  1.00  0.00     0.000 C 
HETATM    8  C7  UNL     1      35.848  73.134  88.802  1.00  0.00     0.000 C 
HETATM    9  C8  UNL     1      36.344  74.172  87.863  1.00  0.00     0.000 C 
HETATM   10  C9  UNL     1      35.650  74.304  86.573  1.00  0.00     0.000 C 
HETATM   11  C10 UNL     1      34.702  73.239  86.181  1.00  0.00     0.002 C 
HETATM   12  C11 UNL     1      33.994  73.670  84.911  1.00  0.00     0.020 C 
HETATM   13  C12 UNL     1      32.914  74.696  85.139  1.00  0.00     0.135 C 
HETATM   14  N1  UNL     1      31.632  74.054  85.473  1.00  0.00    -0.287 N 
HETATM   15  C13 UNL     1      30.785  73.671  84.392  1.00  0.00     0.251 C 
HETATM   16  O2  UNL     1      29.687  73.092  84.679  1.00  0.00    -0.271 OA
ENDROOT
BRANCH  15  17
HETATM   17  C14 UNL     1      31.077  73.890  82.969  1.00  0.00     0.207 C 
HETATM   18  C15 UNL     1      30.659  75.303  82.532  1.00  0.00     0.160 C 
HETATM   19  N2  UNL     1      29.235  75.214  82.785  1.00  0.00    -0.340 N 
HETATM   20  C16 UNL     1      28.894  73.908  82.261  1.00  0.00     0.326 C 
ATOM     21  H2  UNL     1      28.623  75.902  83.225  1.00  0.00     0.164 HD
HETATM   22  O3  UNL     1      27.726  73.589  81.945  1.00  0.00    -0.247 OA
HETATM   23  N3  UNL     1      30.073  73.129  82.187  1.00  0.00    -0.254 N 
HETATM   24  C17 UNL     1      30.273  71.920  81.506  1.00  0.00     0.232 C 
HETATM   25  O4  UNL     1      31.467  71.454  81.553  1.00  0.00    -0.272 OA
BRANCH  24  26
HETATM   26  C18 UNL     1      29.281  71.130  80.754  1.00  0.00     0.078 C 
HETATM   27  C19 UNL     1      29.191  71.663  79.320  1.00  0.00     0.014 C 
HETATM   28  C20 UNL     1      30.320  71.058  78.536  1.00  0.00     0.001 C 
HETATM   29  C21 UNL     1      29.842  69.657  78.133  1.00  0.00     0.000 C 
HETATM   30  C22 UNL     1      29.063  69.105  79.315  1.00  0.00     0.001 C 
HETATM   31  C23 UNL     1      29.643  69.661  80.629  1.00  0.00     0.014 C 
ENDBRANCH  24  26
ENDBRANCH  15  17
TORSDOF 2
ENDMDL
MODEL 3
REMARK VINA RESULT: -8.583094628      1.532      1.876
REMARK  2 active torsions:
REMARK  status: ('A' for Active; 'I' for Inactive)
REMARK       I    between atoms: N1_14  and  C13_15 
REMARK    1  A    between atoms: C13_15  and  C14_17 
REMARK       I    between atoms: N3_23  and  C17_24 
REMARK    2  A    between atoms: C17_24  and  C18_26 
ROOT
HETATM    1  O1  UNL     1      27.341  78.227  82.683  1.00  0.00    -0.273 OA
HETATM    2  C1  UNL     1      27.492  78.222  83.952  1.00  0.00     0.226 C 
HETATM    3  C2  UNL     1      27.013  79.413  84.673  1.00  0.00     0.103 C 
HETATM    4  C3  UNL     1      25.683  79.878  84.119  1.00  0.00     0.009 C 
HETATM    5  C4  UNL     1      24.885  80.673  85.107  1.00  0.00     0.000 C 
HETATM    6  C5  UNL     1      24.326  79.870  86.236  1.00  0.00     0.000 C 
HETATM    7  C6  UNL     1      22.996  79.252  85.966  1.00  0.00     0.000 C 
HETATM    8  C7  UNL     1      22.944  77.767  86.126  1.00  0.00     0.000 C 
HETATM    9  C8  UNL     1      23.639  77.240  87.329  1.00  0.00     0.000 C 
HETATM   10  C9  UNL     1      24.898  76.509  87.116  1.00  0.00     0.000 C 
HETATM   11  C10 UNL     1      25.247  76.111  85.735  1.00  0.00     0.002 C 
HETATM   12  C11 UNL     1      26.646  75.529  85.742  1.00  0.00     0.020 C 
HETATM   13  C12 UNL     1      27.734  76.568  85.832  1.00  0.00     0.135 C 
HETATM   14  N1  UNL     1      28.099  77.073  84.499  1.00  0.00    -0.287 N 
HETATM   15  C13 UNL     1      29.096  76.358  83.773  1.00  0.00     0.251 C 
HETATM   16  O2  UNL     1      29.394  76.779  82.608  1.00  0.00    -0.271 OA
ENDROOT
BRANCH  15  17
HETATM   17  C14 UNL     1      29.809  75.170  84.260  1.00  0.00     0.207 C 
HETATM   18  C15 UNL     1      31.194  75.546  84.812  1.00  0.00     0.160 C 
HETATM   19  N2  UNL     1      31.790  76.077  83.602  1.00  0.00    -0.340 N 
HETATM   20  C16 UNL     1      31.387  75.118  82.594  1.00  0.00     0.326 C 
ATOM     21  H2  UNL     1      32.354  76.919  83.488  1.00  0.00     0.164 HD
HETATM   22  O3  UNL     1      31.983  74.994  81.501  1.00  0.00    -0.247 OA
HETATM   23  N3  UNL     1      30.263  74.405  83.074  1.00  0.00    -0.254 N 
HETATM   24  C17 UNL     1      29.706  73.222  82.569  1.00  0.00     0.232 C 
HETATM   25  O4  UNL     1      28.717  72.751  83.237  1.00  0.00    -0.272 OA
BRANCH  24  26
HETATM   26  C18 UNL     1      30.118  72.466  81.371  1.00  0.00     0.078 C 
HETATM   27  C19 UNL     1      30.748  71.138  81.803  1.00  0.00     0.014 C 
HETATM   28  C20 UNL     1      29.632  70.169  82.073  1.00  0.00     0.001 C 
HETATM   29  C21 UNL     1      29.216  69.621  80.701  1.00  0.00     0.000 C 
HETATM   30  C22 UNL     1      29.290  70.785  79.727  1.00  0.00     0.001 C 
HETATM   31  C23 UNL     1      28.964  72.101  80.457  1.00  0.00     0.014 C 
ENDBRANCH  24  26
ENDBRANCH  15  17
TORSDOF 2
ENDMDL
MODEL 4
REMARK VINA RESULT: -8.474890223      2.134      2.644
REMARK  2 active torsions:
REMARK  status: ('A' for Active; 'I' for Inactive)
REMARK       I    between atoms: N1_14  and  C13_15 
REMARK    1  A    between atoms: C13_15  and  C14_17 
REMARK       I    between atoms: N3_23  and  C17_24 
REMARK    2  A    between atoms: C17_24  and  C18_26 
ROOT
HETATM    1  O1  UNL     1      28.845  79.062  80.923  1.00  0.00    -0.273 OA
HETATM    2  C1  UNL     1      28.929  79.254  82.184  1.00  0.00     0.226 C 
HETATM    3  C2  UNL     1      28.974  80.656  82.632  1.00  0.00     0.103 C 
HETATM    4  C3  UNL     1      27.989  81.500  81.850  1.00  0.00     0.009 C 
HETATM    5  C4  UNL     1      27.566  82.734  82.587  1.00  0.00     0.000 C 
HETATM    6  C5  UNL     1      26.675  82.478  83.758  1.00  0.00     0.000 C 
HETATM    7  C6  UNL     1      25.221  82.417  83.437  1.00  0.00     0.000 C 
HETATM    8  C7  UNL     1      24.538  81.149  83.837  1.00  0.00     0.000 C 
HETATM    9  C8  UNL     1      24.895  80.641  85.186  1.00  0.00     0.000 C 
HETATM   10  C9  UNL     1      25.732  79.433  85.253  1.00  0.00     0.000 C 
HETATM   11  C10 UNL     1      25.933  78.655  84.010  1.00  0.00     0.002 C 
HETATM   12  C11 UNL     1      26.951  77.567  84.285  1.00  0.00     0.020 C 
HETATM   13  C12 UNL     1      28.373  78.065  84.330  1.00  0.00     0.135 C 
HETATM   14  N1  UNL     1      28.970  78.094  82.985  1.00  0.00    -0.287 N 
HETATM   15  C13 UNL     1      29.596  76.903  82.515  1.00  0.00     0.251 C 
HETATM   16  O2  UNL     1      30.090  76.919  81.341  1.00  0.00    -0.271 OA
ENDROOT
BRANCH  15  17
HETATM   17  C14 UNL     1      29.718  75.654  83.278  1.00  0.00     0.207 C 
HETATM   18  C15 UNL     1      30.930  75.700  84.223  1.00  0.00     0.160 C 
HETATM   19  N2  UNL     1      31.986  75.841  83.241  1.00  0.00    -0.340 N 
HETATM   20  C16 UNL     1      31.605  74.891  82.217  1.00  0.00     0.326 C 
ATOM     21  H2  UNL     1      32.798  76.458  83.265  1.00  0.00     0.164 HD
HETATM   22  O3  UNL     1      32.418  74.430  81.384  1.00  0.00    -0.247 OA
HETATM   23  N3  UNL     1      30.224  74.613  82.350  1.00  0.00    -0.254 N 
HETATM   24  C17 UNL     1      29.487  73.574  81.765  1.00  0.00     0.232 C 
HETATM   25  O4  UNL     1      28.251  73.517  82.105  1.00  0.00    -0.272 OA
BRANCH  24  26
HETATM   26  C18 UNL     1      29.961  72.553  80.813  1.00  0.00     0.078 C 
HETATM   27  C19 UNL     1      30.658  71.427  81.583  1.00  0.00     0.014 C 
HETATM   28  C20 UNL     1      29.595  70.501  82.101  1.00  0.00     0.001 C 
HETATM   29  C21 UNL     1      29.233  69.584  80.925  1.00  0.00     0.000 C 
HETATM   30  C22 UNL     1      29.257  70.448  79.676  1.00  0.00     0.001 C 
HETATM   31  C23 UNL     1      28.844  71.890  80.028  1.00  0.00     0.014 C 
ENDBRANCH  24  26
ENDBRANCH  15  17
TORSDOF 2
ENDMDL
MODEL 5
REMARK VINA RESULT: -8.253954165      6.495      9.258
REMARK  2 active torsions:
REMARK  status: ('A' for Active; 'I' for Inactive)
REMARK       I    between atoms: N1_14  and  C13_15 
REMARK    1  A    between atoms: C13_15  and  C14_17 
REMARK       I    between atoms: N3_23  and  C17_24 
REMARK    2  A    between atoms: C17_24  and  C18_26 
ROOT
HETATM    1  O1  UNL     1      24.521  74.678  89.517  1.00  0.00    -0.273 OA
HETATM    2  C1  UNL     1      25.467  75.452  89.894  1.00  0.00     0.226 C 
HETATM    3  C2  UNL     1      26.050  75.178  91.218  1.00  0.00     0.103 C 
HETATM    4  C3  UNL     1      26.225  73.689  91.429  1.00  0.00     0.009 C 
HETATM    5  C4  UNL     1      27.285  73.364  92.437  1.00  0.00     0.000 C 
HETATM    6  C5  UNL     1      28.679  73.633  91.974  1.00  0.00     0.000 C 
HETATM    7  C6  UNL     1      29.322  72.508  91.236  1.00  0.00     0.000 C 
HETATM    8  C7  UNL     1      29.806  72.847  89.863  1.00  0.00     0.000 C 
HETATM    9  C8  UNL     1      30.516  74.146  89.749  1.00  0.00     0.000 C 
HETATM   10  C9  UNL     1      29.817  75.239  89.054  1.00  0.00     0.000 C 
HETATM   11  C10 UNL     1      28.596  74.908  88.287  1.00  0.00     0.002 C 
HETATM   12  C11 UNL     1      27.967  76.200  87.805  1.00  0.00     0.020 C 
HETATM   13  C12 UNL     1      27.219  76.946  88.879  1.00  0.00     0.135 C 
HETATM   14  N1  UNL     1      25.830  76.470  88.989  1.00  0.00    -0.287 N 
HETATM   15  C13 UNL     1      24.856  77.078  88.144  1.00  0.00     0.251 C 
HETATM   16  O2  UNL     1      23.658  76.650  88.219  1.00  0.00    -0.271 OA
ENDROOT
BRANCH  15  17
HETATM   17  C14 UNL     1      25.122  78.163  87.190  1.00  0.00     0.207 C 
HETATM   18  C15 UNL     1      25.519  79.456  87.922  1.00  0.00     0.160 C 
HETATM   19  N2  UNL     1      24.301  79.682  88.674  1.00  0.00    -0.340 N 
HETATM   20  C16 UNL     1      23.265  79.412  87.700  1.00  0.00     0.326 C 
ATOM     21  H2  UNL     1      24.199  79.962  89.649  1.00  0.00     0.164 HD
HETATM   22  O3  UNL     1      22.095  79.840  87.819  1.00  0.00    -0.247 OA
HETATM   23  N3  UNL     1      23.815  78.622  86.662  1.00  0.00    -0.254 N 
HETATM   24  C17 UNL     1      23.271  78.348  85.399  1.00  0.00     0.232 C 
HETATM   25  O4  UNL     1      24.014  77.648  84.622  1.00  0.00    -0.272 OA
BRANCH  24  26
HETATM   26  C18 UNL     1      21.959  78.763  84.868  1.00  0.00     0.078 C 
HETATM   27  C19 UNL     1      22.073  78.986  83.357  1.00  0.00     0.014 C 
HETATM   28  C20 UNL     1      21.959  77.646  82.687  1.00  0.00     0.001 C 
HETATM   29  C21 UNL     1      20.456  77.344  82.614  1.00  0.00     0.000 C 
HETATM   30  C22 UNL     1      19.847  77.847  83.911  1.00  0.00     0.001 C 
HETATM   31  C23 UNL     1      20.872  77.721  85.054  1.00  0.00     0.014 C 
ENDBRANCH  24  26
ENDBRANCH  15  17
TORSDOF 2
ENDMDL
