MODEL 1
REMARK VINA RESULT: -8.864557643      0.000      0.000
REMARK  3 active torsions:
REMARK  status: ('A' for Active; 'I' for Inactive)
REMARK       I    between atoms: C2_2  and  N1_4 
REMARK    1  A    between atoms: N1_4  and  C3_6 
REMARK    2  A    between atoms: C12_15  and  C13_16 
REMARK       I    between atoms: C13_16  and  N2_18 
REMARK    3  A    between atoms: N3_21  and  C16_22 
ROOT
HETATM    1  C3  UNL     1      34.589  73.433  84.539  1.00  0.00     0.093 C 
HETATM    2  C4  UNL     1      35.604  73.074  85.595  1.00  0.00     0.009 C 
HETATM    3  C5  UNL     1      35.151  71.971  86.491  1.00  0.00     0.011 C 
HETATM    4  C6  UNL     1      34.162  72.368  87.530  1.00  0.00    -0.013 C 
HETATM    5  C7  UNL     1      34.489  73.669  88.220  1.00  0.00     0.009 C 
HETATM    6  C8  UNL     1      34.695  74.709  87.145  1.00  0.00    -0.013 C 
HETATM    7  C9  UNL     1      35.928  74.305  86.375  1.00  0.00     0.011 C 
HETATM    8  C10 UNL     1      33.488  74.887  86.276  1.00  0.00     0.012 C 
HETATM    9  C11 UNL     1      33.333  73.869  85.209  1.00  0.00     0.022 C 
HETATM   10  C12 UNL     1      32.545  72.637  85.624  1.00  0.00     0.084 C 
HETATM   11  C25 UNL     1      32.734  72.378  87.087  1.00  0.00     0.019 C 
ENDROOT
BRANCH  10  12
HETATM   12  C13 UNL     1      31.104  72.793  85.290  1.00  0.00     0.225 C 
HETATM   13  O2  UNL     1      30.368  73.377  86.171  1.00  0.00    -0.273 OA
HETATM   14  N2  UNL     1      30.475  72.367  84.122  1.00  0.00    -0.334 N 
HETATM   15  C14 UNL     1      29.083  72.503  83.803  1.00  0.00     0.147 C 
HETATM   16  C24 UNL     1      31.088  71.717  83.000  1.00  0.00     0.247 C 
HETATM   17  C15 UNL     1      29.165  72.861  82.311  1.00  0.00     0.139 C 
HETATM   18  N3  UNL     1      30.333  72.208  81.899  1.00  0.00    -0.391 N 
BRANCH  18  19
HETATM   19  C16 UNL     1      30.349  71.504  80.697  1.00  0.00     0.085 C 
HETATM   20  C17 UNL     1      30.827  70.081  80.918  1.00  0.00     0.030 C 
HETATM   21  C18 UNL     1      30.392  69.296  79.698  1.00  0.00    -0.013 C 
HETATM   22  C19 UNL     1      30.472  70.118  78.428  1.00  0.00     0.005 C 
HETATM   23  C23 UNL     1      28.922  68.955  79.914  1.00  0.00     0.005 C 
HETATM   24  C20 UNL     1      29.479  71.262  78.439  1.00  0.00     0.007 C 
HETATM   25  C21 UNL     1      29.085  71.447  79.915  1.00  0.00     0.008 C 
HETATM   26  C22 UNL     1      28.209  70.248  80.215  1.00  0.00     0.007 C 
ENDBRANCH  18  19
ENDBRANCH  10  12
BRANCH   1  27
HETATM   27  N1  UNL     1      35.148  74.407  83.637  1.00  0.00    -0.356 N 
HETATM   28  C2  UNL     1      34.469  74.749  82.435  1.00  0.00     0.213 C 
HETATM   29  C1  UNL     1      35.019  75.750  81.484  1.00  0.00     0.117 C 
HETATM   30  O1  UNL     1      33.371  74.230  82.107  1.00  0.00    -0.274 OA
ATOM     31  H1  UNL     1      36.037  74.855  83.861  1.00  0.00     0.162 HD
ENDBRANCH   1  27
TORSDOF 3
ENDMDL
MODEL 2
REMARK VINA RESULT: -8.249578596      1.979      7.428
REMARK  3 active torsions:
REMARK  status: ('A' for Active; 'I' for Inactive)
REMARK       I    between atoms: C2_2  and  N1_4 
REMARK    1  A    between atoms: N1_4  and  C3_6 
REMARK    2  A    between atoms: C12_15  and  C13_16 
REMARK       I    between atoms: C13_16  and  N2_18 
REMARK    3  A    between atoms: N3_21  and  C16_22 
ROOT
HETATM    1  C3  UNL     1      30.165  72.154  80.540  1.00  0.00     0.093 C 
HETATM    2  C4  UNL     1      28.847  72.179  81.273  1.00  0.00     0.009 C 
HETATM    3  C5  UNL     1      28.523  73.516  81.848  1.00  0.00     0.011 C 
HETATM    4  C6  UNL     1      29.259  73.863  83.094  1.00  0.00    -0.013 C 
HETATM    5  C7  UNL     1      29.342  72.732  84.090  1.00  0.00     0.009 C 
HETATM    6  C8  UNL     1      29.902  71.533  83.363  1.00  0.00    -0.013 C 
HETATM    7  C9  UNL     1      28.878  71.127  82.333  1.00  0.00     0.011 C 
HETATM    8  C10 UNL     1      31.257  71.792  82.780  1.00  0.00     0.012 C 
HETATM    9  C11 UNL     1      31.250  72.524  81.489  1.00  0.00     0.022 C 
HETATM   10  C12 UNL     1      31.291  74.037  81.623  1.00  0.00     0.084 C 
HETATM   11  C25 UNL     1      30.616  74.457  82.893  1.00  0.00     0.019 C 
ENDROOT
BRANCH  10  12
HETATM   12  C13 UNL     1      32.691  74.536  81.571  1.00  0.00     0.225 C 
HETATM   13  O2  UNL     1      33.094  75.007  80.443  1.00  0.00    -0.273 OA
HETATM   14  N2  UNL     1      33.606  74.541  82.622  1.00  0.00    -0.334 N 
HETATM   15  C14 UNL     1      34.961  75.009  82.574  1.00  0.00     0.147 C 
HETATM   16  C24 UNL     1      33.379  74.092  83.966  1.00  0.00     0.247 C 
HETATM   17  C15 UNL     1      35.073  75.708  83.936  1.00  0.00     0.139 C 
HETATM   18  N3  UNL     1      34.187  74.974  84.735  1.00  0.00    -0.391 N 
BRANCH  18  19
HETATM   19  C16 UNL     1      34.557  74.604  86.026  1.00  0.00     0.085 C 
HETATM   20  C17 UNL     1      33.338  74.223  86.843  1.00  0.00     0.030 C 
HETATM   21  C18 UNL     1      33.854  73.432  88.027  1.00  0.00    -0.013 C 
HETATM   22  C19 UNL     1      35.185  73.952  88.528  1.00  0.00     0.005 C 
HETATM   23  C23 UNL     1      34.094  72.016  87.518  1.00  0.00     0.005 C 
HETATM   24  C20 UNL     1      36.286  73.749  87.507  1.00  0.00     0.007 C 
HETATM   25  C21 UNL     1      35.564  73.518  86.168  1.00  0.00     0.008 C 
HETATM   26  C22 UNL     1      34.978  72.127  86.302  1.00  0.00     0.007 C 
ENDBRANCH  18  19
ENDBRANCH  10  12
BRANCH   1  27
HETATM   27  N1  UNL     1      30.345  70.874  79.903  1.00  0.00    -0.356 N 
HETATM   28  C2  UNL     1      30.031  70.703  78.527  1.00  0.00     0.213 C 
HETATM   29  C1  UNL     1      30.206  69.396  77.842  1.00  0.00     0.117 C 
HETATM   30  O1  UNL     1      29.589  71.640  77.812  1.00  0.00    -0.274 OA
ATOM     31  H1  UNL     1      30.701  70.085  80.444  1.00  0.00     0.162 HD
ENDBRANCH   1  27
TORSDOF 3
ENDMDL
MODEL 3
REMARK VINA RESULT: -8.209001853      1.777      2.435
REMARK  3 active torsions:
REMARK  status: ('A' for Active; 'I' for Inactive)
REMARK       I    between atoms: C2_2  and  N1_4 
REMARK    1  A    between atoms: N1_4  and  C3_6 
REMARK    2  A    between atoms: C12_15  and  C13_16 
REMARK       I    between atoms: C13_16  and  N2_18 
REMARK    3  A    between atoms: N3_21  and  C16_22 
ROOT
HETATM    1  C3  UNL     1      32.567  72.606  86.280  1.00  0.00     0.093 C 
HETATM    2  C4  UNL     1      32.573  72.294  87.756  1.00  0.00     0.009 C 
HETATM    3  C5  UNL     1      31.203  72.155  88.329  1.00  0.00     0.011 C 
HETATM    4  C6  UNL     1      30.486  73.437  88.570  1.00  0.00    -0.013 C 
HETATM    5  C7  UNL     1      31.344  74.509  89.194  1.00  0.00     0.009 C 
HETATM    6  C8  UNL     1      32.580  74.652  88.339  1.00  0.00    -0.013 C 
HETATM    7  C9  UNL     1      33.348  73.359  88.459  1.00  0.00     0.011 C 
HETATM    8  C10 UNL     1      32.262  75.021  86.923  1.00  0.00     0.012 C 
HETATM    9  C11 UNL     1      31.843  73.887  86.062  1.00  0.00     0.022 C 
HETATM   10  C12 UNL     1      30.348  73.614  86.065  1.00  0.00     0.084 C 
HETATM   11  C25 UNL     1      29.760  73.997  87.389  1.00  0.00     0.019 C 
ENDROOT
BRANCH  10  12
HETATM   12  C13 UNL     1      29.675  74.335  84.952  1.00  0.00     0.225 C 
HETATM   13  O2  UNL     1      29.195  75.498  85.226  1.00  0.00    -0.273 OA
HETATM   14  N2  UNL     1      29.513  73.875  83.647  1.00  0.00    -0.334 N 
HETATM   15  C14 UNL     1      28.853  74.561  82.575  1.00  0.00     0.147 C 
HETATM   16  C24 UNL     1      29.979  72.630  83.107  1.00  0.00     0.247 C 
HETATM   17  C15 UNL     1      29.782  74.221  81.400  1.00  0.00     0.139 C 
HETATM   18  N3  UNL     1      30.290  72.966  81.761  1.00  0.00    -0.391 N 
BRANCH  18  19
HETATM   19  C16 UNL     1      30.376  71.952  80.810  1.00  0.00     0.085 C 
HETATM   20  C17 UNL     1      30.555  70.604  81.482  1.00  0.00     0.030 C 
HETATM   21  C18 UNL     1      30.192  69.563  80.444  1.00  0.00    -0.013 C 
HETATM   22  C19 UNL     1      30.618  69.971  79.049  1.00  0.00     0.005 C 
HETATM   23  C23 UNL     1      28.670  69.483  80.438  1.00  0.00     0.005 C 
HETATM   24  C20 UNL     1      29.852  71.184  78.562  1.00  0.00     0.007 C 
HETATM   25  C21 UNL     1      29.264  71.831  79.829  1.00  0.00     0.008 C 
HETATM   26  C22 UNL     1      28.155  70.886  80.244  1.00  0.00     0.007 C 
ENDBRANCH  18  19
ENDBRANCH  10  12
BRANCH   1  27
HETATM   27  N1  UNL     1      33.916  72.593  85.774  1.00  0.00    -0.356 N 
HETATM   28  C2  UNL     1      34.161  72.529  84.375  1.00  0.00     0.213 C 
HETATM   29  C1  UNL     1      35.539  72.515  83.822  1.00  0.00     0.117 C 
HETATM   30  O1  UNL     1      33.231  72.480  83.527  1.00  0.00    -0.274 OA
ATOM     31  H1  UNL     1      34.701  72.631  86.424  1.00  0.00     0.162 HD
ENDBRANCH   1  27
TORSDOF 3
ENDMDL
MODEL 4
REMARK VINA RESULT: -8.169192591      1.793      3.340
REMARK  3 active torsions:
REMARK  status: ('A' for Active; 'I' for Inactive)
REMARK       I    between atoms: C2_2  and  N1_4 
REMARK    1  A    between atoms: N1_4  and  C3_6 
REMARK    2  A    between atoms: C12_15  and  C13_16 
REMARK       I    between atoms: C13_16  and  N2_18 
REMARK    3  A    between atoms: N3_21  and  C16_22 
ROOT
HETATM    1  C3  UNL     1      33.644  74.170  86.825  1.00  0.00     0.093 C 
HETATM    2  C4  UNL     1      35.076  73.905  86.434  1.00  0.00     0.009 C 
HETATM    3  C5  UNL     1      35.434  74.472  85.102  1.00  0.00     0.011 C 
HETATM    4  C6  UNL     1      34.937  73.697  83.932  1.00  0.00    -0.013 C 
HETATM    5  C7  UNL     1      35.112  72.205  84.069  1.00  0.00     0.009 C 
HETATM    6  C8  UNL     1      34.487  71.797  85.381  1.00  0.00    -0.013 C 
HETATM    7  C9  UNL     1      35.310  72.431  86.475  1.00  0.00     0.011 C 
HETATM    8  C10 UNL     1      33.032  72.144  85.460  1.00  0.00     0.012 C 
HETATM    9  C11 UNL     1      32.747  73.558  85.807  1.00  0.00     0.022 C 
HETATM   10  C12 UNL     1      32.650  74.493  84.612  1.00  0.00     0.084 C 
HETATM   11  C25 UNL     1      33.537  74.003  83.507  1.00  0.00     0.019 C 
ENDROOT
BRANCH  10  12
HETATM   12  C13 UNL     1      31.242  74.620  84.151  1.00  0.00     0.225 C 
HETATM   13  O2  UNL     1      30.544  75.561  84.684  1.00  0.00    -0.273 OA
HETATM   14  N2  UNL     1      30.608  73.821  83.203  1.00  0.00    -0.334 N 
HETATM   15  C14 UNL     1      29.247  73.932  82.764  1.00  0.00     0.147 C 
HETATM   16  C24 UNL     1      31.185  72.735  82.464  1.00  0.00     0.247 C 
HETATM   17  C15 UNL     1      29.406  73.665  81.260  1.00  0.00     0.139 C 
HETATM   18  N3  UNL     1      30.515  72.811  81.212  1.00  0.00    -0.391 N 
BRANCH  18  19
HETATM   19  C16 UNL     1      30.495  71.692  80.384  1.00  0.00     0.085 C 
HETATM   20  C17 UNL     1      30.671  70.422  81.195  1.00  0.00     0.030 C 
HETATM   21  C18 UNL     1      30.197  69.287  80.312  1.00  0.00    -0.013 C 
HETATM   22  C19 UNL     1      30.537  69.514  78.854  1.00  0.00     0.005 C 
HETATM   23  C23 UNL     1      28.676  69.276  80.416  1.00  0.00     0.005 C 
HETATM   24  C20 UNL     1      29.784  70.697  78.281  1.00  0.00     0.007 C 
HETATM   25  C21 UNL     1      29.312  71.510  79.500  1.00  0.00     0.008 C 
HETATM   26  C22 UNL     1      28.201  70.670  80.094  1.00  0.00     0.007 C 
ENDBRANCH  18  19
ENDBRANCH  10  12
BRANCH   1  27
HETATM   27  N1  UNL     1      33.413  73.712  88.171  1.00  0.00    -0.356 N 
HETATM   28  C2  UNL     1      33.446  74.626  89.260  1.00  0.00     0.213 C 
HETATM   29  C1  UNL     1      33.210  74.184  90.658  1.00  0.00     0.117 C 
HETATM   30  O1  UNL     1      33.673  75.854  89.105  1.00  0.00    -0.274 OA
ATOM     31  H1  UNL     1      33.224  72.724  88.344  1.00  0.00     0.162 HD
ENDBRANCH   1  27
TORSDOF 3
ENDMDL
MODEL 5
REMARK VINA RESULT: -8.150805136      5.343      8.062
REMARK  3 active torsions:
REMARK  status: ('A' for Active; 'I' for Inactive)
REMARK       I    between atoms: C2_2  and  N1_4 
REMARK    1  A    between atoms: N1_4  and  C3_6 
REMARK    2  A    between atoms: C12_15  and  C13_16 
REMARK       I    between atoms: C13_16  and  N2_18 
REMARK    3  A    between atoms: N3_21  and  C16_22 
ROOT
HETATM    1  C3  UNL     1      29.490  73.143  81.562  1.00  0.00     0.093 C 
HETATM    2  C4  UNL     1      29.821  72.062  82.560  1.00  0.00     0.009 C 
HETATM    3  C5  UNL     1      29.241  72.314  83.910  1.00  0.00     0.011 C 
HETATM    4  C6  UNL     1      29.958  73.332  84.726  1.00  0.00    -0.013 C 
HETATM    5  C7  UNL     1      31.461  73.204  84.681  1.00  0.00     0.009 C 
HETATM    6  C8  UNL     1      31.867  73.188  83.227  1.00  0.00    -0.013 C 
HETATM    7  C9  UNL     1      31.306  71.923  82.628  1.00  0.00     0.011 C 
HETATM    8  C10 UNL     1      31.445  74.426  82.497  1.00  0.00     0.012 C 
HETATM    9  C11 UNL     1      30.027  74.438  82.061  1.00  0.00     0.022 C 
HETATM   10  C12 UNL     1      29.059  75.011  83.083  1.00  0.00     0.084 C 
HETATM   11  C25 UNL     1      29.567  74.752  84.469  1.00  0.00     0.019 C 
ENDROOT
BRANCH  10  12
HETATM   12  C13 UNL     1      28.844  76.464  82.855  1.00  0.00     0.225 C 
HETATM   13  O2  UNL     1      29.493  76.996  81.878  1.00  0.00    -0.273 OA
HETATM   14  N2  UNL     1      28.014  77.304  83.594  1.00  0.00    -0.334 N 
HETATM   15  C14 UNL     1      27.814  78.709  83.386  1.00  0.00     0.147 C 
HETATM   16  C24 UNL     1      27.183  76.935  84.704  1.00  0.00     0.247 C 
HETATM   17  C15 UNL     1      26.304  78.825  83.637  1.00  0.00     0.139 C 
HETATM   18  N3  UNL     1      26.064  77.802  84.563  1.00  0.00    -0.391 N 
BRANCH  18  19
HETATM   19  C16 UNL     1      25.245  78.038  85.665  1.00  0.00     0.085 C 
HETATM   20  C17 UNL     1      24.763  79.476  85.674  1.00  0.00     0.030 C 
HETATM   21  C18 UNL     1      23.569  79.516  86.603  1.00  0.00    -0.013 C 
HETATM   22  C19 UNL     1      23.730  78.581  87.784  1.00  0.00     0.005 C 
HETATM   23  C23 UNL     1      22.383  79.006  85.792  1.00  0.00     0.005 C 
HETATM   24  C20 UNL     1      23.746  77.129  87.351  1.00  0.00     0.007 C 
HETATM   25  C21 UNL     1      24.060  77.156  85.844  1.00  0.00     0.008 C 
HETATM   26  C22 UNL     1      22.785  77.674  85.212  1.00  0.00     0.007 C 
ENDBRANCH  18  19
ENDBRANCH  10  12
BRANCH   1  27
HETATM   27  N1  UNL     1      29.969  72.765  80.257  1.00  0.00    -0.356 N 
HETATM   28  C2  UNL     1      29.400  71.656  79.573  1.00  0.00     0.213 C 
HETATM   29  C1  UNL     1      29.871  71.243  78.226  1.00  0.00     0.117 C 
HETATM   30  O1  UNL     1      28.469  70.965  80.063  1.00  0.00    -0.274 OA
ATOM     31  H1  UNL     1      30.722  73.298  79.820  1.00  0.00     0.162 HD
ENDBRANCH   1  27
TORSDOF 3
ENDMDL
