MODEL 1
REMARK VINA RESULT: -8.352933708      0.000      0.000
REMARK  4 active torsions:
REMARK  status: ('A' for Active; 'I' for Inactive)
REMARK    1  A    between atoms: N1_9  and  C9_10 
REMARK    2  A    between atoms: C9_10  and  C10_11 
REMARK       I    between atoms: N2_14  and  C13_15 
REMARK    3  A    between atoms: C13_15  and  C14_17 
REMARK    4  A    between atoms: C20_23  and  N3_24 
ROOT
HETATM    1  C1  UNL     1      33.503  74.072  89.535  1.00  0.00     0.011 C 
HETATM    2  C2  UNL     1      34.630  73.620  88.678  1.00  0.00    -0.010 C 
HETATM    3  C3  UNL     1      34.847  74.487  87.461  1.00  0.00    -0.010 C 
HETATM    4  C4  UNL     1      34.892  75.917  87.540  1.00  0.00     0.005 C 
HETATM    5  C5  UNL     1      33.727  76.582  86.770  1.00  0.00     0.001 C 
HETATM    6  C6  UNL     1      33.494  75.955  85.420  1.00  0.00     0.008 C 
HETATM    7  C7  UNL     1      32.180  75.268  85.225  1.00  0.00     0.049 C 
HETATM    8  C8  UNL     1      31.306  75.787  84.132  1.00  0.00     0.279 C 
HETATM    9  N1  UNL     1      31.125  74.457  83.558  1.00  0.00     0.096 N 
HETATM   10  C19 UNL     1      32.264  74.014  84.339  1.00  0.00     0.259 C 
HETATM   11  C20 UNL     1      31.928  72.752  85.049  1.00  0.00     0.221 C 
HETATM   12  C21 UNL     1      32.948  72.063  85.858  1.00  0.00     0.019 C 
HETATM   13  C22 UNL     1      34.378  72.215  85.486  1.00  0.00     0.011 C 
HETATM   14  C23 UNL     1      35.215  72.348  86.718  1.00  0.00    -0.009 C 
HETATM   15  C24 UNL     1      35.944  73.706  86.789  1.00  0.00     0.010 C 
HETATM   16  C25 UNL     1      34.279  72.317  87.910  1.00  0.00    -0.006 C 
HETATM   17  C26 UNL     1      32.881  72.370  87.357  1.00  0.00     0.012 C 
ENDROOT
BRANCH   9  18
HETATM   18  C9  UNL     1      31.390  74.538  82.112  1.00  0.00     0.279 C 
BRANCH  18  19
HETATM   19  C10 UNL     1      30.226  74.007  81.324  1.00  0.00     0.033 C 
HETATM   20  C11 UNL     1      29.047  73.624  82.173  1.00  0.00     0.028 C 
HETATM   21  C12 UNL     1      28.303  72.685  81.254  1.00  0.00     0.126 C 
HETATM   22  N2  UNL     1      29.400  71.882  80.688  1.00  0.00    -0.351 N 
HETATM   23  C13 UNL     1      29.261  70.587  80.182  1.00  0.00     0.224 C 
HETATM   24  C18 UNL     1      30.627  72.660  80.750  1.00  0.00     0.132 C 
HETATM   25  O1  UNL     1      28.141  70.026  80.191  1.00  0.00    -0.273 OA
BRANCH  23  26
HETATM   26  C14 UNL     1      30.404  69.851  79.629  1.00  0.00     0.078 C 
HETATM   27  C15 UNL     1      30.613  69.970  78.135  1.00  0.00     0.014 C 
HETATM   28  C16 UNL     1      30.803  68.475  78.078  1.00  0.00     0.002 C 
HETATM   29  C17 UNL     1      30.179  68.366  79.438  1.00  0.00     0.014 C 
ENDBRANCH  23  26
ENDBRANCH  18  19
ENDBRANCH   9  18
BRANCH  11  30
HETATM   30  N3  UNL     1      30.789  73.053  85.934  1.00  0.00    -0.073 N 
ATOM     31  H33 UNL     1      31.052  73.592  86.760  1.00  0.00     0.274 HD
ATOM     32  H32 UNL     1      30.141  73.734  85.538  1.00  0.00     0.274 HD
ATOM     33  H31 UNL     1      30.348  72.162  86.159  1.00  0.00     0.274 HD
ENDBRANCH  11  30
TORSDOF 4
ENDMDL
MODEL 2
REMARK VINA RESULT: -8.051543947      5.712      7.966
REMARK  4 active torsions:
REMARK  status: ('A' for Active; 'I' for Inactive)
REMARK    1  A    between atoms: N1_9  and  C9_10 
REMARK    2  A    between atoms: C9_10  and  C10_11 
REMARK       I    between atoms: N2_14  and  C13_15 
REMARK    3  A    between atoms: C13_15  and  C14_17 
REMARK    4  A    between atoms: C20_23  and  N3_24 
ROOT
HETATM    1  C1  UNL     1      24.364  80.234  88.145  1.00  0.00     0.011 C 
HETATM    2  C2  UNL     1      23.377  79.547  87.271  1.00  0.00    -0.010 C 
HETATM    3  C3  UNL     1      23.478  78.042  87.314  1.00  0.00    -0.010 C 
HETATM    4  C4  UNL     1      23.562  77.317  88.547  1.00  0.00     0.005 C 
HETATM    5  C5  UNL     1      24.911  76.574  88.698  1.00  0.00     0.001 C 
HETATM    6  C6  UNL     1      25.328  75.870  87.433  1.00  0.00     0.008 C 
HETATM    7  C7  UNL     1      26.579  76.362  86.779  1.00  0.00     0.049 C 
HETATM    8  C8  UNL     1      27.689  75.376  86.623  1.00  0.00     0.279 C 
HETATM    9  N1  UNL     1      27.839  75.674  85.203  1.00  0.00     0.096 N 
HETATM   10  C19 UNL     1      26.536  76.309  85.244  1.00  0.00     0.259 C 
HETATM   11  C20 UNL     1      26.606  77.644  84.593  1.00  0.00     0.221 C 
HETATM   12  C21 UNL     1      25.390  78.461  84.447  1.00  0.00     0.019 C 
HETATM   13  C22 UNL     1      24.076  77.776  84.338  1.00  0.00     0.011 C 
HETATM   14  C23 UNL     1      23.043  78.527  85.115  1.00  0.00    -0.009 C 
HETATM   15  C24 UNL     1      22.453  77.691  86.269  1.00  0.00     0.010 C 
HETATM   16  C25 UNL     1      23.733  79.708  85.768  1.00  0.00    -0.006 C 
HETATM   17  C26 UNL     1      25.207  79.525  85.534  1.00  0.00     0.012 C 
ENDROOT
BRANCH   9  18
HETATM   18  C9  UNL     1      27.858  74.401  84.464  1.00  0.00     0.279 C 
BRANCH  18  19
HETATM   19  C10 UNL     1      29.128  74.258  83.673  1.00  0.00     0.033 C 
HETATM   20  C11 UNL     1      29.187  75.145  82.461  1.00  0.00     0.028 C 
HETATM   21  C12 UNL     1      30.232  74.448  81.625  1.00  0.00     0.126 C 
HETATM   22  N2  UNL     1      29.853  73.034  81.782  1.00  0.00    -0.351 N 
HETATM   23  C13 UNL     1      30.151  72.022  80.865  1.00  0.00     0.224 C 
HETATM   24  C18 UNL     1      29.126  72.882  83.032  1.00  0.00     0.132 C 
HETATM   25  O1  UNL     1      30.784  72.290  79.817  1.00  0.00    -0.273 OA
BRANCH  23  26
HETATM   26  C14 UNL     1      29.740  70.633  81.094  1.00  0.00     0.078 C 
HETATM   27  C15 UNL     1      30.518  69.576  80.339  1.00  0.00     0.014 C 
HETATM   28  C16 UNL     1      29.208  68.930  79.963  1.00  0.00     0.002 C 
HETATM   29  C17 UNL     1      28.499  70.197  80.343  1.00  0.00     0.014 C 
ENDBRANCH  23  26
ENDBRANCH  18  19
ENDBRANCH   9  18
BRANCH  11  30
HETATM   30  N3  UNL     1      27.585  78.438  85.357  1.00  0.00    -0.073 N 
ATOM     31  H33 UNL     1      27.159  79.191  85.898  1.00  0.00     0.274 HD
ATOM     32  H32 UNL     1      27.990  77.930  86.144  1.00  0.00     0.274 HD
ATOM     33  H31 UNL     1      28.282  78.766  84.689  1.00  0.00     0.274 HD
ENDBRANCH  11  30
TORSDOF 4
ENDMDL
MODEL 3
REMARK VINA RESULT: -7.905853971      5.452      8.015
REMARK  4 active torsions:
REMARK  status: ('A' for Active; 'I' for Inactive)
REMARK    1  A    between atoms: N1_9  and  C9_10 
REMARK    2  A    between atoms: C9_10  and  C10_11 
REMARK       I    between atoms: N2_14  and  C13_15 
REMARK    3  A    between atoms: C13_15  and  C14_17 
REMARK    4  A    between atoms: C20_23  and  N3_24 
ROOT
HETATM    1  C1  UNL     1      32.394  72.381  84.311  1.00  0.00     0.011 C 
HETATM    2  C2  UNL     1      31.675  72.323  83.012  1.00  0.00    -0.010 C 
HETATM    3  C3  UNL     1      31.518  73.669  82.348  1.00  0.00    -0.010 C 
HETATM    4  C4  UNL     1      32.611  74.587  82.213  1.00  0.00     0.005 C 
HETATM    5  C5  UNL     1      32.382  75.890  83.015  1.00  0.00     0.001 C 
HETATM    6  C6  UNL     1      30.983  76.428  82.857  1.00  0.00     0.008 C 
HETATM    7  C7  UNL     1      30.141  76.460  84.092  1.00  0.00     0.049 C 
HETATM    8  C8  UNL     1      29.637  77.796  84.527  1.00  0.00     0.279 C 
HETATM    9  N1  UNL     1      28.262  77.317  84.625  1.00  0.00     0.096 N 
HETATM   10  C19 UNL     1      28.654  76.167  83.834  1.00  0.00     0.259 C 
HETATM   11  C20 UNL     1      28.165  74.920  84.480  1.00  0.00     0.221 C 
HETATM   12  C21 UNL     1      28.380  73.616  83.831  1.00  0.00     0.019 C 
HETATM   13  C22 UNL     1      28.473  73.562  82.349  1.00  0.00     0.011 C 
HETATM   14  C23 UNL     1      29.535  72.592  81.940  1.00  0.00    -0.009 C 
HETATM   15  C24 UNL     1      30.682  73.270  81.162  1.00  0.00     0.010 C 
HETATM   16  C25 UNL     1      30.161  72.040  83.206  1.00  0.00    -0.006 C 
HETATM   17  C26 UNL     1      29.598  72.844  84.346  1.00  0.00     0.012 C 
ENDROOT
BRANCH   9  18
HETATM   18  C9  UNL     1      27.391  78.263  83.908  1.00  0.00     0.279 C 
BRANCH  18  19
HETATM   19  C10 UNL     1      26.378  78.869  84.838  1.00  0.00     0.033 C 
HETATM   20  C11 UNL     1      26.436  78.317  86.235  1.00  0.00     0.028 C 
HETATM   21  C12 UNL     1      25.063  78.667  86.756  1.00  0.00     0.126 C 
HETATM   22  N2  UNL     1      24.206  78.329  85.608  1.00  0.00    -0.351 N 
HETATM   23  C13 UNL     1      22.853  77.991  85.696  1.00  0.00     0.224 C 
HETATM   24  C18 UNL     1      25.002  78.405  84.394  1.00  0.00     0.132 C 
HETATM   25  O1  UNL     1      22.284  77.958  86.812  1.00  0.00    -0.273 OA
BRANCH  23  26
HETATM   26  C14 UNL     1      22.063  77.668  84.503  1.00  0.00     0.078 C 
HETATM   27  C15 UNL     1      21.559  78.846  83.699  1.00  0.00     0.014 C 
HETATM   28  C16 UNL     1      20.204  78.185  83.644  1.00  0.00     0.002 C 
HETATM   29  C17 UNL     1      20.622  77.286  84.771  1.00  0.00     0.014 C 
ENDBRANCH  23  26
ENDBRANCH  18  19
ENDBRANCH   9  18
BRANCH  11  30
HETATM   30  N3  UNL     1      28.792  74.860  85.813  1.00  0.00    -0.073 N 
ATOM     31  H33 UNL     1      29.132  73.930  86.056  1.00  0.00     0.274 HD
ATOM     32  H32 UNL     1      29.690  75.341  85.858  1.00  0.00     0.274 HD
ATOM     33  H31 UNL     1      28.107  75.224  86.475  1.00  0.00     0.274 HD
ENDBRANCH  11  30
TORSDOF 4
ENDMDL
MODEL 4
REMARK VINA RESULT: -7.891632454      3.978      5.374
REMARK  4 active torsions:
REMARK  status: ('A' for Active; 'I' for Inactive)
REMARK    1  A    between atoms: N1_9  and  C9_10 
REMARK    2  A    between atoms: C9_10  and  C10_11 
REMARK       I    between atoms: N2_14  and  C13_15 
REMARK    3  A    between atoms: C13_15  and  C14_17 
REMARK    4  A    between atoms: C20_23  and  N3_24 
ROOT
HETATM    1  C1  UNL     1      29.133  76.140  92.425  1.00  0.00     0.011 C 
HETATM    2  C2  UNL     1      28.022  75.194  92.142  1.00  0.00    -0.010 C 
HETATM    3  C3  UNL     1      28.483  73.875  91.571  1.00  0.00    -0.010 C 
HETATM    4  C4  UNL     1      29.568  73.133  92.141  1.00  0.00     0.005 C 
HETATM    5  C5  UNL     1      30.770  73.017  91.174  1.00  0.00     0.001 C 
HETATM    6  C6  UNL     1      30.349  72.686  89.766  1.00  0.00     0.008 C 
HETATM    7  C7  UNL     1      30.631  73.723  88.726  1.00  0.00     0.049 C 
HETATM    8  C8  UNL     1      31.517  73.317  87.595  1.00  0.00     0.279 C 
HETATM    9  N1  UNL     1      30.565  73.793  86.596  1.00  0.00     0.096 N 
HETATM   10  C19 UNL     1      29.553  73.812  87.634  1.00  0.00     0.259 C 
HETATM   11  C20 UNL     1      28.829  75.110  87.608  1.00  0.00     0.221 C 
HETATM   12  C21 UNL     1      27.703  75.349  88.526  1.00  0.00     0.019 C 
HETATM   13  C22 UNL     1      26.898  74.189  88.988  1.00  0.00     0.011 C 
HETATM   14  C23 UNL     1      26.549  74.352  90.433  1.00  0.00    -0.009 C 
HETATM   15  C24 UNL     1      27.147  73.233  91.311  1.00  0.00     0.010 C 
HETATM   16  C25 UNL     1      27.187  75.641  90.912  1.00  0.00    -0.006 C 
HETATM   17  C26 UNL     1      28.074  76.121  89.797  1.00  0.00     0.012 C 
ENDROOT
BRANCH   9  18
HETATM   18  C9  UNL     1      30.374  72.728  85.598  1.00  0.00     0.279 C 
BRANCH  18  19
HETATM   19  C10 UNL     1      30.149  73.309  84.230  1.00  0.00     0.033 C 
HETATM   20  C11 UNL     1      28.745  73.795  84.006  1.00  0.00     0.028 C 
HETATM   21  C12 UNL     1      28.666  73.811  82.498  1.00  0.00     0.126 C 
HETATM   22  N2  UNL     1      29.328  72.545  82.146  1.00  0.00    -0.351 N 
HETATM   23  C13 UNL     1      29.105  71.829  80.967  1.00  0.00     0.224 C 
HETATM   24  C18 UNL     1      30.234  72.176  83.223  1.00  0.00     0.132 C 
HETATM   25  O1  UNL     1      28.289  72.258  80.117  1.00  0.00    -0.273 OA
BRANCH  23  26
HETATM   26  C14 UNL     1      29.807  70.572  80.685  1.00  0.00     0.078 C 
HETATM   27  C15 UNL     1      30.004  70.233  79.223  1.00  0.00     0.014 C 
HETATM   28  C16 UNL     1      29.535  68.831  79.523  1.00  0.00     0.002 C 
HETATM   29  C17 UNL     1      28.965  69.322  80.821  1.00  0.00     0.014 C 
ENDBRANCH  23  26
ENDBRANCH  18  19
ENDBRANCH   9  18
BRANCH  11  30
HETATM   30  N3  UNL     1      29.833  76.161  87.854  1.00  0.00    -0.073 N 
ATOM     31  H33 UNL     1      29.442  76.999  88.285  1.00  0.00     0.274 HD
ATOM     32  H32 UNL     1      30.486  75.926  88.602  1.00  0.00     0.274 HD
ATOM     33  H31 UNL     1      30.291  76.344  86.962  1.00  0.00     0.274 HD
ENDBRANCH  11  30
TORSDOF 4
ENDMDL
MODEL 5
REMARK VINA RESULT: -7.619115808      4.888      6.272
REMARK  4 active torsions:
REMARK  status: ('A' for Active; 'I' for Inactive)
REMARK    1  A    between atoms: N1_9  and  C9_10 
REMARK    2  A    between atoms: C9_10  and  C10_11 
REMARK       I    between atoms: N2_14  and  C13_15 
REMARK    3  A    between atoms: C13_15  and  C14_17 
REMARK    4  A    between atoms: C20_23  and  N3_24 
ROOT
HETATM    1  C1  UNL     1      26.627  77.821  90.794  1.00  0.00     0.011 C 
HETATM    2  C2  UNL     1      25.561  76.946  90.239  1.00  0.00    -0.010 C 
HETATM    3  C3  UNL     1      26.000  75.517  90.033  1.00  0.00    -0.010 C 
HETATM    4  C4  UNL     1      26.702  74.779  91.041  1.00  0.00     0.005 C 
HETATM    5  C5  UNL     1      28.136  74.403  90.598  1.00  0.00     0.001 C 
HETATM    6  C6  UNL     1      28.187  73.890  89.182  1.00  0.00     0.008 C 
HETATM    7  C7  UNL     1      28.956  74.718  88.203  1.00  0.00     0.049 C 
HETATM    8  C8  UNL     1      30.113  74.059  87.527  1.00  0.00     0.279 C 
HETATM    9  N1  UNL     1      29.644  74.453  86.202  1.00  0.00     0.096 N 
HETATM   10  C19 UNL     1      28.349  74.729  86.791  1.00  0.00     0.259 C 
HETATM   11  C20 UNL     1      27.870  76.067  86.352  1.00  0.00     0.221 C 
HETATM   12  C21 UNL     1      26.541  76.550  86.763  1.00  0.00     0.019 C 
HETATM   13  C22 UNL     1      25.471  75.556  87.032  1.00  0.00     0.011 C 
HETATM   14  C23 UNL     1      24.669  75.978  88.222  1.00  0.00    -0.009 C 
HETATM   15  C24 UNL     1      24.761  74.964  89.381  1.00  0.00     0.010 C 
HETATM   16  C25 UNL     1      25.276  77.264  88.747  1.00  0.00    -0.006 C 
HETATM   17  C26 UNL     1      26.554  77.478  87.982  1.00  0.00     0.012 C 
ENDROOT
BRANCH   9  18
HETATM   18  C9  UNL     1      29.663  73.265  85.334  1.00  0.00     0.279 C 
BRANCH  18  19
HETATM   19  C10 UNL     1      29.832  73.655  83.893  1.00  0.00     0.033 C 
HETATM   20  C11 UNL     1      28.603  74.273  83.287  1.00  0.00     0.028 C 
HETATM   21  C12 UNL     1      28.856  74.070  81.813  1.00  0.00     0.126 C 
HETATM   22  N2  UNL     1      29.373  72.692  81.780  1.00  0.00    -0.351 N 
HETATM   23  C13 UNL     1      29.302  71.840  80.675  1.00  0.00     0.224 C 
HETATM   24  C18 UNL     1      29.956  72.381  83.076  1.00  0.00     0.132 C 
HETATM   25  O1  UNL     1      28.767  72.233  79.612  1.00  0.00    -0.273 OA
BRANCH  23  26
HETATM   26  C14 UNL     1      29.844  70.477  80.719  1.00  0.00     0.078 C 
HETATM   27  C15 UNL     1      30.344  69.917  79.405  1.00  0.00     0.014 C 
HETATM   28  C16 UNL     1      29.599  68.641  79.706  1.00  0.00     0.002 C 
HETATM   29  C17 UNL     1      28.807  69.374  80.748  1.00  0.00     0.014 C 
ENDBRANCH  23  26
ENDBRANCH  18  19
ENDBRANCH   9  18
BRANCH  11  30
HETATM   30  N3  UNL     1      28.865  77.048  86.823  1.00  0.00    -0.073 N 
ATOM     31  H33 UNL     1      29.027  77.005  87.829  1.00  0.00     0.274 HD
ATOM     32  H32 UNL     1      29.817  76.829  86.530  1.00  0.00     0.274 HD
ATOM     33  H31 UNL     1      28.546  77.963  86.505  1.00  0.00     0.274 HD
ENDBRANCH  11  30
TORSDOF 4
ENDMDL
