MODEL 1
REMARK VINA RESULT: -9.459925805      0.000      0.000
REMARK  9 active torsions:
REMARK  status: ('A' for Active; 'I' for Inactive)
REMARK    1  A    between atoms: C2_2  and  C17_17 
REMARK    2  A    between atoms: C3_3  and  C4_4 
REMARK    3  A    between atoms: C4_4  and  C5_5 
REMARK    4  A    between atoms: C5_5  and  C6_6 
REMARK    5  A    between atoms: C6_6  and  C8_8 
REMARK    6  A    between atoms: C17_17  and  O2_19 
REMARK    7  A    between atoms: O2_19  and  C18_20 
REMARK    8  A    between atoms: C18_20  and  C19_22 
REMARK    9  A    between atoms: C19_22  and  O4_25 
ROOT
HETATM    1  C1  UNL     1      37.914  30.421  30.885  1.00  0.00     0.054 C 
HETATM    2  C2  UNL     1      39.314  30.244  31.444  1.00  0.00     0.010 C 
HETATM    3  C3  UNL     1      40.200  29.703  30.690  1.00  0.00    -0.014 C 
ENDROOT
BRANCH   3   4
HETATM    4  C4  UNL     1      41.609  29.400  30.928  1.00  0.00     0.028 C 
BRANCH   4   5
HETATM    5  C5  UNL     1      42.403  30.585  30.343  1.00  0.00     0.008 C 
BRANCH   5   6
HETATM    6  C6  UNL     1      43.177  31.171  31.475  1.00  0.00    -0.014 C 
HETATM    7  C7  UNL     1      43.464  30.081  32.482  1.00  0.00     0.010 C 
BRANCH   6   8
HETATM    8  C8  UNL     1      44.479  31.794  31.060  1.00  0.00    -0.006 C 
HETATM    9  C9  UNL     1      44.448  32.295  29.629  1.00  0.00     0.032 C 
HETATM   10  C10 UNL     1      45.855  32.603  29.267  1.00  0.00    -0.023 C 
HETATM   11  C11 UNL     1      46.671  33.111  30.179  1.00  0.00    -0.080 C 
HETATM   12  C12 UNL     1      48.113  33.432  29.825  1.00  0.00     0.044 C 
HETATM   13  C13 UNL     1      46.264  33.402  31.576  1.00  0.00    -0.025 C 
HETATM   14  C14 UNL     1      47.183  32.637  32.540  1.00  0.00     0.019 C 
HETATM   15  C15 UNL     1      46.465  34.890  31.877  1.00  0.00     0.019 C 
HETATM   16  C16 UNL     1      44.862  32.969  31.911  1.00  0.00     0.018 C 
ENDBRANCH   6   8
ENDBRANCH   5   6
ENDBRANCH   4   5
ENDBRANCH   3   4
BRANCH   2  17
HETATM   17  C17 UNL     1      39.501  30.709  32.784  1.00  0.00     0.296 C 
HETATM   18  O1  UNL     1      40.172  31.702  33.079  1.00  0.00    -0.259 OA
BRANCH  17  19
HETATM   19  O2  UNL     1      38.918  30.049  33.892  1.00  0.00    -0.239 OA
BRANCH  19  20
HETATM   20  C18 UNL     1      39.442  28.899  34.438  1.00  0.00     0.300 C 
HETATM   21  O3  UNL     1      40.590  28.989  34.970  1.00  0.00    -0.261 OA
BRANCH  20  22
HETATM   22  C19 UNL     1      38.696  27.612  34.406  1.00  0.00     0.138 C 
HETATM   23  C20 UNL     1      38.341  27.275  35.841  1.00  0.00     0.056 C 
HETATM   24  C21 UNL     1      39.516  26.524  33.768  1.00  0.00     0.056 C 
BRANCH  22  25
HETATM   25  O4  UNL     1      37.528  27.811  33.703  1.00  0.00    -0.380 OA
ATOM     26  H4  UNL     1      36.851  27.272  34.095  1.00  0.00     0.211 HD
ENDBRANCH  22  25
ENDBRANCH  20  22
ENDBRANCH  19  20
ENDBRANCH  17  19
ENDBRANCH   2  17
TORSDOF 9
ENDMDL
MODEL 2
REMARK VINA RESULT: -9.334238988      0.964      1.306
REMARK  9 active torsions:
REMARK  status: ('A' for Active; 'I' for Inactive)
REMARK    1  A    between atoms: C2_2  and  C17_17 
REMARK    2  A    between atoms: C3_3  and  C4_4 
REMARK    3  A    between atoms: C4_4  and  C5_5 
REMARK    4  A    between atoms: C5_5  and  C6_6 
REMARK    5  A    between atoms: C6_6  and  C8_8 
REMARK    6  A    between atoms: C17_17  and  O2_19 
REMARK    7  A    between atoms: O2_19  and  C18_20 
REMARK    8  A    between atoms: C18_20  and  C19_22 
REMARK    9  A    between atoms: C19_22  and  O4_25 
ROOT
HETATM    1  C1  UNL     1      37.750  30.667  30.888  1.00  0.00     0.054 C 
HETATM    2  C2  UNL     1      38.972  30.064  31.559  1.00  0.00     0.010 C 
HETATM    3  C3  UNL     1      40.022  29.881  30.847  1.00  0.00    -0.014 C 
ENDROOT
BRANCH   3   4
HETATM    4  C4  UNL     1      41.332  29.333  31.189  1.00  0.00     0.028 C 
BRANCH   4   5
HETATM    5  C5  UNL     1      42.367  30.229  30.476  1.00  0.00     0.008 C 
BRANCH   5   6
HETATM    6  C6  UNL     1      43.080  30.980  31.548  1.00  0.00    -0.014 C 
HETATM    7  C7  UNL     1      43.438  30.018  32.658  1.00  0.00     0.010 C 
BRANCH   6   8
HETATM    8  C8  UNL     1      44.335  31.658  31.080  1.00  0.00    -0.006 C 
HETATM    9  C9  UNL     1      44.222  32.156  29.651  1.00  0.00     0.032 C 
HETATM   10  C10 UNL     1      45.598  32.524  29.231  1.00  0.00    -0.023 C 
HETATM   11  C11 UNL     1      46.429  33.068  30.109  1.00  0.00    -0.080 C 
HETATM   12  C12 UNL     1      47.841  33.450  29.694  1.00  0.00     0.044 C 
HETATM   13  C13 UNL     1      46.070  33.342  31.522  1.00  0.00    -0.025 C 
HETATM   14  C14 UNL     1      47.060  32.617  32.445  1.00  0.00     0.019 C 
HETATM   15  C15 UNL     1      46.219  34.838  31.816  1.00  0.00     0.019 C 
HETATM   16  C16 UNL     1      44.703  32.850  31.915  1.00  0.00     0.018 C 
ENDBRANCH   6   8
ENDBRANCH   5   6
ENDBRANCH   4   5
ENDBRANCH   3   4
BRANCH   2  17
HETATM   17  C17 UNL     1      38.816  29.754  32.947  1.00  0.00     0.296 C 
HETATM   18  O1  UNL     1      39.271  30.448  33.861  1.00  0.00    -0.259 OA
BRANCH  17  19
HETATM   19  O2  UNL     1      38.116  28.603  33.383  1.00  0.00    -0.239 OA
BRANCH  19  20
HETATM   20  C18 UNL     1      38.749  27.475  33.851  1.00  0.00     0.300 C 
HETATM   21  O3  UNL     1      39.514  26.869  33.041  1.00  0.00    -0.261 OA
BRANCH  20  22
HETATM   22  C19 UNL     1      38.548  26.991  35.244  1.00  0.00     0.138 C 
HETATM   23  C20 UNL     1      37.072  26.675  35.390  1.00  0.00     0.056 C 
HETATM   24  C21 UNL     1      38.998  28.017  36.247  1.00  0.00     0.056 C 
BRANCH  22  25
HETATM   25  O4  UNL     1      39.261  25.822  35.398  1.00  0.00    -0.380 OA
ATOM     26  H4  UNL     1      38.706  25.099  35.131  1.00  0.00     0.211 HD
ENDBRANCH  22  25
ENDBRANCH  20  22
ENDBRANCH  19  20
ENDBRANCH  17  19
ENDBRANCH   2  17
TORSDOF 9
ENDMDL
MODEL 3
REMARK VINA RESULT: -8.910210569      1.631      3.169
REMARK  9 active torsions:
REMARK  status: ('A' for Active; 'I' for Inactive)
REMARK    1  A    between atoms: C2_2  and  C17_17 
REMARK    2  A    between atoms: C3_3  and  C4_4 
REMARK    3  A    between atoms: C4_4  and  C5_5 
REMARK    4  A    between atoms: C5_5  and  C6_6 
REMARK    5  A    between atoms: C6_6  and  C8_8 
REMARK    6  A    between atoms: C17_17  and  O2_19 
REMARK    7  A    between atoms: O2_19  and  C18_20 
REMARK    8  A    between atoms: C18_20  and  C19_22 
REMARK    9  A    between atoms: C19_22  and  O4_25 
ROOT
HETATM    1  C1  UNL     1      39.929  31.892  30.096  1.00  0.00     0.054 C 
HETATM    2  C2  UNL     1      41.205  31.123  30.387  1.00  0.00     0.010 C 
HETATM    3  C3  UNL     1      42.325  31.710  30.173  1.00  0.00    -0.014 C 
ENDROOT
BRANCH   3   4
HETATM    4  C4  UNL     1      43.701  31.250  30.349  1.00  0.00     0.028 C 
BRANCH   4   5
HETATM    5  C5  UNL     1      44.265  32.049  31.542  1.00  0.00     0.008 C 
BRANCH   5   6
HETATM    6  C6  UNL     1      44.709  33.363  30.994  1.00  0.00    -0.014 C 
HETATM    7  C7  UNL     1      44.132  34.466  31.852  1.00  0.00     0.010 C 
BRANCH   6   8
HETATM    8  C8  UNL     1      46.201  33.525  30.946  1.00  0.00    -0.006 C 
HETATM    9  C9  UNL     1      46.907  32.677  31.987  1.00  0.00     0.032 C 
HETATM   10  C10 UNL     1      48.313  33.153  32.024  1.00  0.00    -0.023 C 
HETATM   11  C11 UNL     1      48.905  33.540  30.904  1.00  0.00    -0.080 C 
HETATM   12  C12 UNL     1      50.344  34.030  30.926  1.00  0.00     0.044 C 
HETATM   13  C13 UNL     1      48.242  33.531  29.577  1.00  0.00    -0.025 C 
HETATM   14  C14 UNL     1      48.283  34.946  28.982  1.00  0.00     0.019 C 
HETATM   15  C15 UNL     1      49.022  32.633  28.612  1.00  0.00     0.019 C 
HETATM   16  C16 UNL     1      46.789  33.142  29.619  1.00  0.00     0.018 C 
ENDBRANCH   6   8
ENDBRANCH   5   6
ENDBRANCH   4   5
ENDBRANCH   3   4
BRANCH   2  17
HETATM   17  C17 UNL     1      41.019  29.792  30.880  1.00  0.00     0.296 C 
HETATM   18  O1  UNL     1      41.880  28.910  30.816  1.00  0.00    -0.259 OA
BRANCH  17  19
HETATM   19  O2  UNL     1      39.808  29.382  31.487  1.00  0.00    -0.239 OA
BRANCH  19  20
HETATM   20  C18 UNL     1      39.765  28.678  32.668  1.00  0.00     0.300 C 
HETATM   21  O3  UNL     1      39.538  27.433  32.586  1.00  0.00    -0.261 OA
BRANCH  20  22
HETATM   22  C19 UNL     1      39.975  29.347  33.981  1.00  0.00     0.138 C 
HETATM   23  C20 UNL     1      39.188  28.556  35.008  1.00  0.00     0.056 C 
HETATM   24  C21 UNL     1      39.537  30.785  33.935  1.00  0.00     0.056 C 
BRANCH  22  25
HETATM   25  O4  UNL     1      41.313  29.261  34.297  1.00  0.00    -0.380 OA
ATOM     26  H4  UNL     1      41.714  30.102  34.115  1.00  0.00     0.211 HD
ENDBRANCH  22  25
ENDBRANCH  20  22
ENDBRANCH  19  20
ENDBRANCH  17  19
ENDBRANCH   2  17
TORSDOF 9
ENDMDL
MODEL 4
REMARK VINA RESULT: -8.890153119      1.669      3.145
REMARK  9 active torsions:
REMARK  status: ('A' for Active; 'I' for Inactive)
REMARK    1  A    between atoms: C2_2  and  C17_17 
REMARK    2  A    between atoms: C3_3  and  C4_4 
REMARK    3  A    between atoms: C4_4  and  C5_5 
REMARK    4  A    between atoms: C5_5  and  C6_6 
REMARK    5  A    between atoms: C6_6  and  C8_8 
REMARK    6  A    between atoms: C17_17  and  O2_19 
REMARK    7  A    between atoms: O2_19  and  C18_20 
REMARK    8  A    between atoms: C18_20  and  C19_22 
REMARK    9  A    between atoms: C19_22  and  O4_25 
ROOT
HETATM    1  C1  UNL     1      39.995  31.931  29.868  1.00  0.00     0.054 C 
HETATM    2  C2  UNL     1      41.262  31.622  30.646  1.00  0.00     0.010 C 
HETATM    3  C3  UNL     1      42.368  31.567  30.000  1.00  0.00    -0.014 C 
ENDROOT
BRANCH   3   4
HETATM    4  C4  UNL     1      43.731  31.298  30.449  1.00  0.00     0.028 C 
BRANCH   4   5
HETATM    5  C5  UNL     1      44.638  32.264  29.658  1.00  0.00     0.008 C 
BRANCH   5   6
HETATM    6  C6  UNL     1      45.051  33.329  30.615  1.00  0.00    -0.014 C 
HETATM    7  C7  UNL     1      44.622  32.925  32.007  1.00  0.00     0.010 C 
BRANCH   6   8
HETATM    8  C8  UNL     1      46.530  33.591  30.628  1.00  0.00    -0.006 C 
HETATM    9  C9  UNL     1      47.234  32.864  31.758  1.00  0.00     0.032 C 
HETATM   10  C10 UNL     1      48.602  33.437  31.830  1.00  0.00    -0.023 C 
HETATM   11  C11 UNL     1      49.226  33.789  30.715  1.00  0.00    -0.080 C 
HETATM   12  C12 UNL     1      50.626  34.376  30.772  1.00  0.00     0.044 C 
HETATM   13  C13 UNL     1      48.635  33.645  29.361  1.00  0.00    -0.025 C 
HETATM   14  C14 UNL     1      48.615  35.016  28.671  1.00  0.00     0.019 C 
HETATM   15  C15 UNL     1      49.522  32.739  28.501  1.00  0.00     0.019 C 
HETATM   16  C16 UNL     1      47.210  33.161  29.361  1.00  0.00     0.018 C 
ENDBRANCH   6   8
ENDBRANCH   5   6
ENDBRANCH   4   5
ENDBRANCH   3   4
BRANCH   2  17
HETATM   17  C17 UNL     1      41.081  31.418  32.051  1.00  0.00     0.296 C 
HETATM   18  O1  UNL     1      40.855  32.328  32.853  1.00  0.00    -0.259 OA
BRANCH  17  19
HETATM   19  O2  UNL     1      41.152  30.131  32.634  1.00  0.00    -0.239 OA
BRANCH  19  20
HETATM   20  C18 UNL     1      40.404  29.065  32.188  1.00  0.00     0.300 C 
HETATM   21  O3  UNL     1      40.935  28.321  31.308  1.00  0.00    -0.261 OA
BRANCH  20  22
HETATM   22  C19 UNL     1      39.038  28.798  32.715  1.00  0.00     0.138 C 
HETATM   23  C20 UNL     1      38.061  29.407  31.728  1.00  0.00     0.056 C 
HETATM   24  C21 UNL     1      38.865  29.373  34.094  1.00  0.00     0.056 C 
BRANCH  22  25
HETATM   25  O4  UNL     1      38.846  27.434  32.734  1.00  0.00    -0.380 OA
ATOM     26  H4  UNL     1      38.928  27.136  33.632  1.00  0.00     0.211 HD
ENDBRANCH  22  25
ENDBRANCH  20  22
ENDBRANCH  19  20
ENDBRANCH  17  19
ENDBRANCH   2  17
TORSDOF 9
ENDMDL
MODEL 5
REMARK VINA RESULT: -8.854980750      1.462      2.953
REMARK  9 active torsions:
REMARK  status: ('A' for Active; 'I' for Inactive)
REMARK    1  A    between atoms: C2_2  and  C17_17 
REMARK    2  A    between atoms: C3_3  and  C4_4 
REMARK    3  A    between atoms: C4_4  and  C5_5 
REMARK    4  A    between atoms: C5_5  and  C6_6 
REMARK    5  A    between atoms: C6_6  and  C8_8 
REMARK    6  A    between atoms: C17_17  and  O2_19 
REMARK    7  A    between atoms: O2_19  and  C18_20 
REMARK    8  A    between atoms: C18_20  and  C19_22 
REMARK    9  A    between atoms: C19_22  and  O4_25 
ROOT
HETATM    1  C1  UNL     1      40.350  30.405  30.041  1.00  0.00     0.054 C 
HETATM    2  C2  UNL     1      41.441  30.986  30.922  1.00  0.00     0.010 C 
HETATM    3  C3  UNL     1      42.650  30.935  30.497  1.00  0.00    -0.014 C 
ENDROOT
BRANCH   3   4
HETATM    4  C4  UNL     1      43.900  31.397  31.096  1.00  0.00     0.028 C 
BRANCH   4   5
HETATM    5  C5  UNL     1      44.576  32.288  30.033  1.00  0.00     0.008 C 
BRANCH   5   6
HETATM    6  C6  UNL     1      45.062  33.501  30.751  1.00  0.00    -0.014 C 
HETATM    7  C7  UNL     1      44.620  33.420  32.194  1.00  0.00     0.010 C 
BRANCH   6   8
HETATM    8  C8  UNL     1      46.554  33.667  30.717  1.00  0.00    -0.006 C 
HETATM    9  C9  UNL     1      47.249  32.855  31.794  1.00  0.00     0.032 C 
HETATM   10  C10 UNL     1      48.653  33.337  31.833  1.00  0.00    -0.023 C 
HETATM   11  C11 UNL     1      49.259  33.689  30.709  1.00  0.00    -0.080 C 
HETATM   12  C12 UNL     1      50.695  34.184  30.733  1.00  0.00     0.044 C 
HETATM   13  C13 UNL     1      48.612  33.634  29.374  1.00  0.00    -0.025 C 
HETATM   14  C14 UNL     1      48.657  35.028  28.733  1.00  0.00     0.019 C 
HETATM   15  C15 UNL     1      49.407  32.706  28.450  1.00  0.00     0.019 C 
HETATM   16  C16 UNL     1      47.160  33.242  29.411  1.00  0.00     0.018 C 
ENDBRANCH   6   8
ENDBRANCH   5   6
ENDBRANCH   4   5
ENDBRANCH   3   4
BRANCH   2  17
HETATM   17  C17 UNL     1      40.995  31.538  32.165  1.00  0.00     0.296 C 
HETATM   18  O1  UNL     1      41.391  32.616  32.618  1.00  0.00    -0.259 OA
BRANCH  17  19
HETATM   19  O2  UNL     1      40.049  30.875  32.982  1.00  0.00    -0.239 OA
BRANCH  19  20
HETATM   20  C18 UNL     1      40.306  29.671  33.596  1.00  0.00     0.300 C 
HETATM   21  O3  UNL     1      41.263  29.644  34.428  1.00  0.00    -0.261 OA
BRANCH  20  22
HETATM   22  C19 UNL     1      39.498  28.457  33.299  1.00  0.00     0.138 C 
HETATM   23  C20 UNL     1      38.238  28.929  32.599  1.00  0.00     0.056 C 
HETATM   24  C21 UNL     1      39.182  27.693  34.556  1.00  0.00     0.056 C 
BRANCH  22  25
HETATM   25  O4  UNL     1      40.213  27.669  32.424  1.00  0.00    -0.380 OA
ATOM     26  H4  UNL     1      39.794  27.715  31.573  1.00  0.00     0.211 HD
ENDBRANCH  22  25
ENDBRANCH  20  22
ENDBRANCH  19  20
ENDBRANCH  17  19
ENDBRANCH   2  17
TORSDOF 9
ENDMDL
