MODEL 1
REMARK VINA RESULT: -7.671718195      0.000      0.000
REMARK  7 active torsions:
REMARK  status: ('A' for Active; 'I' for Inactive)
REMARK    1  A    between atoms: C5_5  and  N1_6 
REMARK    2  A    between atoms: N1_6  and  C6_8 
REMARK    3  A    between atoms: C6_8  and  S2_10 
REMARK    4  A    between atoms: S2_10  and  C7_11 
REMARK    5  A    between atoms: C7_11  and  C8_12 
REMARK    6  A    between atoms: C8_12  and  C9_13 
REMARK    7  A    between atoms: C9_13  and  N2_14 
ROOT
HETATM    1  N1  UNL     1      43.057  32.382  31.983  1.00  0.00    -0.366 N 
ATOM      2  H1  UNL     1      42.733  32.872  32.817  1.00  0.00     0.161 HD
ENDROOT
BRANCH   1   3
HETATM    3  C5  UNL     1      44.339  32.775  31.451  1.00  0.00     0.032 C 
HETATM    4  C4  UNL     1      44.348  32.655  29.943  1.00  0.00     0.032 C 
HETATM    5  C3  UNL     1      45.703  33.005  29.379  1.00  0.00     0.012 C 
HETATM    6  C2  UNL     1      46.758  33.322  30.361  1.00  0.00    -0.040 C 
HETATM    7  C1  UNL     1      48.112  33.063  29.686  1.00  0.00     0.015 C 
HETATM    8  C16 UNL     1      46.761  32.601  31.650  1.00  0.00    -0.004 C 
HETATM    9  C18 UNL     1      46.637  34.816  30.687  1.00  0.00     0.014 C 
HETATM   10  C15 UNL     1      46.821  33.697  32.715  1.00  0.00     0.010 C 
HETATM   11  C17 UNL     1      45.426  31.884  31.944  1.00  0.00     0.036 C 
HETATM   12  C14 UNL     1      45.898  34.711  32.029  1.00  0.00    -0.011 C 
HETATM   13  C13 UNL     1      44.524  34.229  31.861  1.00  0.00     0.035 C 
ENDBRANCH   1   3
BRANCH   1  14
HETATM   14  C6  UNL     1      42.225  31.397  31.466  1.00  0.00     0.135 C 
HETATM   15  S1  UNL     1      42.397  29.793  31.665  1.00  0.00    -0.053 SA
BRANCH  14  16
HETATM   16  S2  UNL     1      40.779  31.871  30.472  1.00  0.00    -0.101 SA
BRANCH  16  17
HETATM   17  C7  UNL     1      39.757  30.400  30.225  1.00  0.00     0.083 C 
BRANCH  17  18
HETATM   18  C8  UNL     1      38.436  30.608  30.904  1.00  0.00     0.031 C 
BRANCH  18  19
HETATM   19  C9  UNL     1      37.905  29.368  31.553  1.00  0.00     0.130 C 
BRANCH  19  20
HETATM   20  N2  UNL     1      38.712  29.035  32.705  1.00  0.00    -0.352 N 
HETATM   21  C10 UNL     1      38.994  29.953  33.669  1.00  0.00     0.108 A 
HETATM   22  C11 UNL     1      39.776  29.321  34.591  1.00  0.00     0.106 A 
HETATM   23  N3  UNL     1      39.948  28.058  34.173  1.00  0.00    -0.361 N 
HETATM   24  C12 UNL     1      39.302  27.869  33.021  1.00  0.00     0.182 A 
ATOM     25  H3  UNL     1      40.492  27.347  34.663  1.00  0.00     0.166 HD
ENDBRANCH  19  20
ENDBRANCH  18  19
ENDBRANCH  17  18
ENDBRANCH  16  17
ENDBRANCH  14  16
ENDBRANCH   1  14
TORSDOF 7
ENDMDL
MODEL 2
REMARK VINA RESULT: -7.629973821      1.262      1.768
REMARK  7 active torsions:
REMARK  status: ('A' for Active; 'I' for Inactive)
REMARK    1  A    between atoms: C5_5  and  N1_6 
REMARK    2  A    between atoms: N1_6  and  C6_8 
REMARK    3  A    between atoms: C6_8  and  S2_10 
REMARK    4  A    between atoms: S2_10  and  C7_11 
REMARK    5  A    between atoms: C7_11  and  C8_12 
REMARK    6  A    between atoms: C8_12  and  C9_13 
REMARK    7  A    between atoms: C9_13  and  N2_14 
ROOT
HETATM    1  N1  UNL     1      42.467  31.592  32.170  1.00  0.00    -0.366 N 
ATOM      2  H1  UNL     1      42.260  31.814  33.144  1.00  0.00     0.161 HD
ENDROOT
BRANCH   1   3
HETATM    3  C5  UNL     1      43.641  32.202  31.594  1.00  0.00     0.032 C 
HETATM    4  C4  UNL     1      43.582  32.146  30.084  1.00  0.00     0.032 C 
HETATM    5  C3  UNL     1      44.832  32.726  29.470  1.00  0.00     0.012 C 
HETATM    6  C2  UNL     1      45.880  33.164  30.413  1.00  0.00    -0.040 C 
HETATM    7  C1  UNL     1      47.217  33.147  29.660  1.00  0.00     0.015 C 
HETATM    8  C16 UNL     1      46.067  32.400  31.664  1.00  0.00    -0.004 C 
HETATM    9  C18 UNL     1      45.549  34.606  30.817  1.00  0.00     0.014 C 
HETATM   10  C15 UNL     1      46.018  33.447  32.777  1.00  0.00     0.010 C 
HETATM   11  C17 UNL     1      44.878  31.472  31.988  1.00  0.00     0.036 C 
HETATM   12  C14 UNL     1      44.913  34.333  32.188  1.00  0.00    -0.011 C 
HETATM   13  C13 UNL     1      43.622  33.649  32.065  1.00  0.00     0.035 C 
ENDBRANCH   1   3
BRANCH   1  14
HETATM   14  C6  UNL     1      41.592  30.729  31.521  1.00  0.00     0.135 C 
HETATM   15  S1  UNL     1      41.956  29.258  30.933  1.00  0.00    -0.053 SA
BRANCH  14  16
HETATM   16  S2  UNL     1      39.858  31.218  31.279  1.00  0.00    -0.101 SA
BRANCH  16  17
HETATM   17  C7  UNL     1      38.824  30.168  32.326  1.00  0.00     0.083 C 
BRANCH  17  18
HETATM   18  C8  UNL     1      39.220  30.370  33.758  1.00  0.00     0.031 C 
BRANCH  18  19
HETATM   19  C9  UNL     1      40.130  29.300  34.276  1.00  0.00     0.130 C 
BRANCH  19  20
HETATM   20  N2  UNL     1      39.376  28.090  34.511  1.00  0.00    -0.352 N 
HETATM   21  C10 UNL     1      38.770  27.845  35.705  1.00  0.00     0.108 A 
HETATM   22  C11 UNL     1      38.166  26.628  35.593  1.00  0.00     0.106 A 
HETATM   23  N3  UNL     1      38.413  26.169  34.356  1.00  0.00    -0.361 N 
HETATM   24  C12 UNL     1      39.152  27.053  33.684  1.00  0.00     0.182 A 
ATOM     25  H3  UNL     1      38.085  25.277  33.985  1.00  0.00     0.166 HD
ENDBRANCH  19  20
ENDBRANCH  18  19
ENDBRANCH  17  18
ENDBRANCH  16  17
ENDBRANCH  14  16
ENDBRANCH   1  14
TORSDOF 7
ENDMDL
MODEL 3
REMARK VINA RESULT: -7.480045770      3.146      8.258
REMARK  7 active torsions:
REMARK  status: ('A' for Active; 'I' for Inactive)
REMARK    1  A    between atoms: C5_5  and  N1_6 
REMARK    2  A    between atoms: N1_6  and  C6_8 
REMARK    3  A    between atoms: C6_8  and  S2_10 
REMARK    4  A    between atoms: S2_10  and  C7_11 
REMARK    5  A    between atoms: C7_11  and  C8_12 
REMARK    6  A    between atoms: C8_12  and  C9_13 
REMARK    7  A    between atoms: C9_13  and  N2_14 
ROOT
HETATM    1  N1  UNL     1      43.342  32.986  31.122  1.00  0.00    -0.366 N 
ATOM      2  H1  UNL     1      43.179  33.439  30.224  1.00  0.00     0.161 HD
ENDROOT
BRANCH   1   3
HETATM    3  C5  UNL     1      42.384  31.990  31.536  1.00  0.00     0.032 C 
HETATM    4  C4  UNL     1      41.526  32.515  32.666  1.00  0.00     0.032 C 
HETATM    5  C3  UNL     1      40.560  31.462  33.149  1.00  0.00     0.012 C 
HETATM    6  C2  UNL     1      40.665  30.136  32.509  1.00  0.00    -0.040 C 
HETATM    7  C1  UNL     1      40.078  29.105  33.482  1.00  0.00     0.015 C 
HETATM    8  C16 UNL     1      42.001  29.653  32.105  1.00  0.00    -0.004 C 
HETATM    9  C18 UNL     1      39.804  30.177  31.241  1.00  0.00     0.014 C 
HETATM   10  C15 UNL     1      41.848  29.249  30.638  1.00  0.00     0.010 C 
HETATM   11  C17 UNL     1      43.062  30.773  32.063  1.00  0.00     0.036 C 
HETATM   12  C14 UNL     1      40.915  30.386  30.202  1.00  0.00    -0.011 C 
HETATM   13  C13 UNL     1      41.524  31.715  30.311  1.00  0.00     0.035 C 
ENDBRANCH   1   3
BRANCH   1  14
HETATM   14  C6  UNL     1      44.467  33.384  31.834  1.00  0.00     0.135 C 
HETATM   15  S1  UNL     1      44.503  34.474  33.039  1.00  0.00    -0.053 SA
BRANCH  14  16
HETATM   16  S2  UNL     1      46.085  32.653  31.445  1.00  0.00    -0.101 SA
BRANCH  16  17
HETATM   17  C7  UNL     1      46.369  32.822  29.668  1.00  0.00     0.083 C 
BRANCH  17  18
HETATM   18  C8  UNL     1      47.494  33.788  29.447  1.00  0.00     0.031 C 
BRANCH  18  19
HETATM   19  C9  UNL     1      48.029  34.373  30.717  1.00  0.00     0.130 C 
BRANCH  19  20
HETATM   20  N2  UNL     1      49.435  34.065  30.843  1.00  0.00    -0.352 N 
HETATM   21  C10 UNL     1      50.388  34.807  30.214  1.00  0.00     0.108 A 
HETATM   22  C11 UNL     1      51.590  34.244  30.530  1.00  0.00     0.106 A 
HETATM   23  N3  UNL     1      51.345  33.193  31.328  1.00  0.00    -0.361 N 
HETATM   24  C12 UNL     1      50.031  33.073  31.528  1.00  0.00     0.182 A 
ATOM     25  H3  UNL     1      52.057  32.579  31.723  1.00  0.00     0.166 HD
ENDBRANCH  19  20
ENDBRANCH  18  19
ENDBRANCH  17  18
ENDBRANCH  16  17
ENDBRANCH  14  16
ENDBRANCH   1  14
TORSDOF 7
ENDMDL
MODEL 4
REMARK VINA RESULT: -7.430523398      3.013      8.254
REMARK  7 active torsions:
REMARK  status: ('A' for Active; 'I' for Inactive)
REMARK    1  A    between atoms: C5_5  and  N1_6 
REMARK    2  A    between atoms: N1_6  and  C6_8 
REMARK    3  A    between atoms: C6_8  and  S2_10 
REMARK    4  A    between atoms: S2_10  and  C7_11 
REMARK    5  A    between atoms: C7_11  and  C8_12 
REMARK    6  A    between atoms: C8_12  and  C9_13 
REMARK    7  A    between atoms: C9_13  and  N2_14 
ROOT
HETATM    1  N1  UNL     1      44.031  31.523  31.735  1.00  0.00    -0.366 N 
ATOM      2  H1  UNL     1      44.643  31.053  32.401  1.00  0.00     0.161 HD
ENDROOT
BRANCH   1   3
HETATM    3  C5  UNL     1      42.668  31.055  31.655  1.00  0.00     0.032 C 
HETATM    4  C4  UNL     1      42.360  30.552  30.262  1.00  0.00     0.032 C 
HETATM    5  C3  UNL     1      40.920  30.116  30.147  1.00  0.00     0.012 C 
HETATM    6  C2  UNL     1      40.081  30.314  31.346  1.00  0.00    -0.040 C 
HETATM    7  C1  UNL     1      38.621  30.388  30.880  1.00  0.00     0.015 C 
HETATM    8  C16 UNL     1      40.335  31.495  32.197  1.00  0.00    -0.004 C 
HETATM    9  C18 UNL     1      40.264  29.078  32.234  1.00  0.00     0.014 C 
HETATM   10  C15 UNL     1      40.486  30.936  33.612  1.00  0.00     0.010 C 
HETATM   11  C17 UNL     1      41.701  32.156  31.921  1.00  0.00     0.036 C 
HETATM   12  C14 UNL     1      41.254  29.657  33.254  1.00  0.00    -0.011 C 
HETATM   13  C13 UNL     1      42.568  29.914  32.657  1.00  0.00     0.035 C 
ENDBRANCH   1   3
BRANCH   1  14
HETATM   14  C6  UNL     1      44.586  32.555  30.989  1.00  0.00     0.135 C 
HETATM   15  S1  UNL     1      45.067  32.467  29.439  1.00  0.00    -0.053 SA
BRANCH  14  16
HETATM   16  S2  UNL     1      44.816  34.192  31.746  1.00  0.00    -0.101 SA
BRANCH  16  17
HETATM   17  C7  UNL     1      46.270  34.118  32.818  1.00  0.00     0.083 C 
BRANCH  17  18
HETATM   18  C8  UNL     1      47.214  33.082  32.285  1.00  0.00     0.031 C 
BRANCH  18  19
HETATM   19  C9  UNL     1      48.598  33.199  32.845  1.00  0.00     0.130 C 
BRANCH  19  20
HETATM   20  N2  UNL     1      49.486  33.744  31.843  1.00  0.00    -0.352 N 
HETATM   21  C10 UNL     1      50.575  33.055  31.404  1.00  0.00     0.108 A 
HETATM   22  C11 UNL     1      51.192  33.851  30.483  1.00  0.00     0.106 A 
HETATM   23  N3  UNL     1      50.477  34.983  30.387  1.00  0.00    -0.361 N 
HETATM   24  C12 UNL     1      49.431  34.930  31.213  1.00  0.00     0.182 A 
ATOM     25  H3  UNL     1      50.701  35.766  29.773  1.00  0.00     0.166 HD
ENDBRANCH  19  20
ENDBRANCH  18  19
ENDBRANCH  17  18
ENDBRANCH  16  17
ENDBRANCH  14  16
ENDBRANCH   1  14
TORSDOF 7
ENDMDL
MODEL 5
REMARK VINA RESULT: -7.430146072      2.913      8.043
REMARK  7 active torsions:
REMARK  status: ('A' for Active; 'I' for Inactive)
REMARK    1  A    between atoms: C5_5  and  N1_6 
REMARK    2  A    between atoms: N1_6  and  C6_8 
REMARK    3  A    between atoms: C6_8  and  S2_10 
REMARK    4  A    between atoms: S2_10  and  C7_11 
REMARK    5  A    between atoms: C7_11  and  C8_12 
REMARK    6  A    between atoms: C8_12  and  C9_13 
REMARK    7  A    between atoms: C9_13  and  N2_14 
ROOT
HETATM    1  N1  UNL     1      44.059  31.659  31.884  1.00  0.00    -0.366 N 
ATOM      2  H1  UNL     1      44.766  31.023  32.253  1.00  0.00     0.161 HD
ENDROOT
BRANCH   1   3
HETATM    3  C5  UNL     1      42.720  31.139  31.748  1.00  0.00     0.032 C 
HETATM    4  C4  UNL     1      42.479  30.654  30.335  1.00  0.00     0.032 C 
HETATM    5  C3  UNL     1      41.063  30.165  30.163  1.00  0.00     0.012 C 
HETATM    6  C2  UNL     1      40.177  30.303  31.335  1.00  0.00    -0.040 C 
HETATM    7  C1  UNL     1      38.731  30.329  30.822  1.00  0.00     0.015 C 
HETATM    8  C16 UNL     1      40.354  31.474  32.218  1.00  0.00    -0.004 C 
HETATM    9  C18 UNL     1      40.379  29.056  32.204  1.00  0.00     0.014 C 
HETATM   10  C15 UNL     1      40.481  30.891  33.626  1.00  0.00     0.010 C 
HETATM   11  C17 UNL     1      41.701  32.195  32.003  1.00  0.00     0.036 C 
HETATM   12  C14 UNL     1      41.310  29.652  33.269  1.00  0.00    -0.011 C 
HETATM   13  C13 UNL     1      42.632  29.973  32.722  1.00  0.00     0.035 C 
ENDBRANCH   1   3
BRANCH   1  14
HETATM   14  C6  UNL     1      44.474  32.944  31.560  1.00  0.00     0.135 C 
HETATM   15  S1  UNL     1      44.744  34.157  32.608  1.00  0.00    -0.053 SA
BRANCH  14  16
HETATM   16  S2  UNL     1      44.773  33.384  29.822  1.00  0.00    -0.101 SA
BRANCH  16  17
HETATM   17  C7  UNL     1      46.350  32.656  29.319  1.00  0.00     0.083 C 
BRANCH  17  18
HETATM   18  C8  UNL     1      47.321  33.759  29.023  1.00  0.00     0.031 C 
BRANCH  18  19
HETATM   19  C9  UNL     1      47.950  34.339  30.252  1.00  0.00     0.130 C 
BRANCH  19  20
HETATM   20  N2  UNL     1      49.161  33.616  30.567  1.00  0.00    -0.352 N 
HETATM   21  C10 UNL     1      50.008  33.181  29.594  1.00  0.00     0.108 A 
HETATM   22  C11 UNL     1      51.029  32.535  30.228  1.00  0.00     0.106 A 
HETATM   23  N3  UNL     1      50.783  32.591  31.546  1.00  0.00    -0.361 N 
HETATM   24  C12 UNL     1      49.645  33.250  31.767  1.00  0.00     0.182 A 
ATOM     25  H3  UNL     1      51.379  32.190  32.271  1.00  0.00     0.166 HD
ENDBRANCH  19  20
ENDBRANCH  18  19
ENDBRANCH  17  18
ENDBRANCH  16  17
ENDBRANCH  14  16
ENDBRANCH   1  14
TORSDOF 7
ENDMDL
