MODEL 1
REMARK VINA RESULT: -8.850697254      0.000      0.000
REMARK  7 active torsions:
REMARK  status: ('A' for Active; 'I' for Inactive)
REMARK    1  A    between atoms: C1_2  and  O2_3 
REMARK    2  A    between atoms: C1_2  and  O3_20 
REMARK    3  A    between atoms: O2_3  and  C2_4 
REMARK    4  A    between atoms: C5_7  and  C6_8 
REMARK    5  A    between atoms: C6_8  and  C7_9 
REMARK    6  A    between atoms: C7_9  and  C8_10 
REMARK    7  A    between atoms: O3_20  and  C15_21 
ROOT
HETATM    1  C2  UNL     1      45.598  33.569  31.697  1.00  0.00     0.134 C 
HETATM    2  C3  UNL     1      45.692  32.268  30.989  1.00  0.00     0.033 C 
HETATM    3  C4  UNL     1      44.613  32.137  29.937  1.00  0.00     0.007 C 
HETATM    4  C5  UNL     1      43.236  32.131  30.554  1.00  0.00    -0.014 C 
HETATM    5  C13 UNL     1      43.226  32.751  31.927  1.00  0.00     0.007 C 
HETATM    6  C14 UNL     1      44.200  33.867  32.091  1.00  0.00     0.033 C 
ENDROOT
BRANCH   1   7
HETATM    7  O2  UNL     1      46.473  33.689  32.792  1.00  0.00    -0.293 OA
BRANCH   7   8
HETATM    8  C1  UNL     1      47.843  33.489  32.737  1.00  0.00     0.407 C 
HETATM    9  O1  UNL     1      48.307  32.541  33.386  1.00  0.00    -0.229 OA
BRANCH   8  10
HETATM   10  O3  UNL     1      48.702  34.285  32.003  1.00  0.00    -0.292 OA
BRANCH  10  11
HETATM   11  C15 UNL     1      49.512  33.690  31.044  1.00  0.00     0.138 C 
HETATM   12  C16 UNL     1      50.560  34.653  30.487  1.00  0.00     0.037 C 
HETATM   13  C17 UNL     1      50.526  34.496  28.991  1.00  0.00    -0.012 C 
HETATM   14  C18 UNL     1      49.333  35.241  28.473  1.00  0.00     0.005 C 
HETATM   15  C21 UNL     1      50.010  33.051  28.880  1.00  0.00     0.012 C 
HETATM   16  C19 UNL     1      48.166  34.459  29.079  1.00  0.00     0.007 C 
HETATM   17  C20 UNL     1      48.791  33.275  29.795  1.00  0.00     0.016 C 
ENDBRANCH  10  11
ENDBRANCH   8  10
ENDBRANCH   7   8
ENDBRANCH   1   7
BRANCH   4  18
HETATM   18  C6  UNL     1      42.695  30.725  30.691  1.00  0.00     0.007 C 
BRANCH  18  19
HETATM   19  C7  UNL     1      41.258  30.587  30.296  1.00  0.00     0.033 C 
BRANCH  19  20
HETATM   20  C8  UNL     1      40.515  29.683  31.265  1.00  0.00     0.185 C 
HETATM   21  C9  UNL     1      41.053  29.875  32.668  1.00  0.00     0.033 C 
HETATM   22  C10 UNL     1      40.193  30.852  33.456  1.00  0.00     0.004 C 
HETATM   23  C11 UNL     1      38.784  30.325  33.626  1.00  0.00     0.027 C 
HETATM   24  C12 UNL     1      38.533  29.380  32.470  1.00  0.00     0.232 C 
HETATM   25  N1  UNL     1      39.106  29.966  31.290  1.00  0.00    -0.071 N 
ATOM     26  H12 UNL     1      38.908  30.964  31.218  1.00  0.00     0.277 HD
ATOM     27  H11 UNL     1      38.633  29.665  30.438  1.00  0.00     0.277 HD
ENDBRANCH  19  20
ENDBRANCH  18  19
ENDBRANCH   4  18
TORSDOF 7
ENDMDL
MODEL 2
REMARK VINA RESULT: -8.764793595      3.932      9.760
REMARK  7 active torsions:
REMARK  status: ('A' for Active; 'I' for Inactive)
REMARK    1  A    between atoms: C1_2  and  O2_3 
REMARK    2  A    between atoms: C1_2  and  O3_20 
REMARK    3  A    between atoms: O2_3  and  C2_4 
REMARK    4  A    between atoms: C5_7  and  C6_8 
REMARK    5  A    between atoms: C6_8  and  C7_9 
REMARK    6  A    between atoms: C7_9  and  C8_10 
REMARK    7  A    between atoms: O3_20  and  C15_21 
ROOT
HETATM    1  C2  UNL     1      41.744  30.775  32.011  1.00  0.00     0.134 C 
HETATM    2  C3  UNL     1      41.712  31.884  31.026  1.00  0.00     0.033 C 
HETATM    3  C4  UNL     1      42.681  31.637  29.891  1.00  0.00     0.007 C 
HETATM    4  C5  UNL     1      44.109  31.606  30.378  1.00  0.00    -0.014 C 
HETATM    5  C13 UNL     1      44.200  31.316  31.854  1.00  0.00     0.007 C 
HETATM    6  C14 UNL     1      43.137  30.398  32.353  1.00  0.00     0.033 C 
ENDROOT
BRANCH   1   7
HETATM    7  O2  UNL     1      40.982  31.017  33.169  1.00  0.00    -0.293 OA
BRANCH   7   8
HETATM    8  C1  UNL     1      39.883  30.272  33.564  1.00  0.00     0.407 C 
HETATM    9  O1  UNL     1      38.766  30.665  33.197  1.00  0.00    -0.229 OA
BRANCH   8  10
HETATM   10  O3  UNL     1      39.972  29.129  34.336  1.00  0.00    -0.292 OA
BRANCH  10  11
HETATM   11  C15 UNL     1      38.803  28.549  34.811  1.00  0.00     0.138 C 
HETATM   12  C16 UNL     1      39.015  27.803  36.127  1.00  0.00     0.037 C 
HETATM   13  C17 UNL     1      38.331  26.471  35.975  1.00  0.00    -0.012 C 
HETATM   14  C18 UNL     1      39.214  25.588  35.147  1.00  0.00     0.005 C 
HETATM   15  C21 UNL     1      37.259  26.834  34.933  1.00  0.00     0.012 C 
HETATM   16  C19 UNL     1      39.218  26.300  33.793  1.00  0.00     0.007 C 
HETATM   17  C20 UNL     1      38.251  27.462  33.935  1.00  0.00     0.016 C 
ENDBRANCH  10  11
ENDBRANCH   8  10
ENDBRANCH   7   8
ENDBRANCH   1   7
BRANCH   4  18
HETATM   18  C6  UNL     1      44.805  32.927  30.136  1.00  0.00     0.007 C 
BRANCH  18  19
HETATM   19  C7  UNL     1      46.199  32.789  29.605  1.00  0.00     0.033 C 
BRANCH  19  20
HETATM   20  C8  UNL     1      47.141  33.757  30.302  1.00  0.00     0.185 C 
HETATM   21  C9  UNL     1      46.788  33.856  31.771  1.00  0.00     0.033 C 
HETATM   22  C10 UNL     1      47.666  32.936  32.609  1.00  0.00     0.004 C 
HETATM   23  C11 UNL     1      49.123  33.333  32.509  1.00  0.00     0.027 C 
HETATM   24  C12 UNL     1      49.289  34.044  31.182  1.00  0.00     0.232 C 
HETATM   25  N1  UNL     1      48.512  33.336  30.204  1.00  0.00    -0.071 N 
ATOM     26  H12 UNL     1      48.614  32.324  30.285  1.00  0.00     0.277 HD
ATOM     27  H11 UNL     1      48.885  33.441  29.261  1.00  0.00     0.277 HD
ENDBRANCH  19  20
ENDBRANCH  18  19
ENDBRANCH   4  18
TORSDOF 7
ENDMDL
MODEL 3
REMARK VINA RESULT: -8.757524479      3.272      9.032
REMARK  7 active torsions:
REMARK  status: ('A' for Active; 'I' for Inactive)
REMARK    1  A    between atoms: C1_2  and  O2_3 
REMARK    2  A    between atoms: C1_2  and  O3_20 
REMARK    3  A    between atoms: O2_3  and  C2_4 
REMARK    4  A    between atoms: C5_7  and  C6_8 
REMARK    5  A    between atoms: C6_8  and  C7_9 
REMARK    6  A    between atoms: C7_9  and  C8_10 
REMARK    7  A    between atoms: O3_20  and  C15_21 
ROOT
HETATM    1  C2  UNL     1      43.432  31.992  31.081  1.00  0.00     0.134 C 
HETATM    2  C3  UNL     1      44.846  31.898  30.640  1.00  0.00     0.033 C 
HETATM    3  C4  UNL     1      45.796  32.082  31.802  1.00  0.00     0.007 C 
HETATM    4  C5  UNL     1      45.678  33.463  32.400  1.00  0.00    -0.014 C 
HETATM    5  C13 UNL     1      44.361  34.115  32.071  1.00  0.00     0.007 C 
HETATM    6  C14 UNL     1      43.223  33.157  31.974  1.00  0.00     0.033 C 
ENDROOT
BRANCH   1   7
HETATM    7  O2  UNL     1      42.502  31.985  30.025  1.00  0.00    -0.293 OA
BRANCH   7   8
HETATM    8  C1  UNL     1      41.222  31.461  30.100  1.00  0.00     0.407 C 
HETATM    9  O1  UNL     1      40.361  31.950  29.353  1.00  0.00    -0.229 OA
BRANCH   8  10
HETATM   10  O3  UNL     1      40.866  30.434  30.952  1.00  0.00    -0.292 OA
BRANCH  10  11
HETATM   11  C15 UNL     1      40.337  30.749  32.197  1.00  0.00     0.138 C 
HETATM   12  C16 UNL     1      41.042  30.013  33.335  1.00  0.00     0.037 C 
HETATM   13  C17 UNL     1      39.957  29.460  34.219  1.00  0.00    -0.012 C 
HETATM   14  C18 UNL     1      39.398  28.237  33.559  1.00  0.00     0.005 C 
HETATM   15  C21 UNL     1      38.830  30.465  33.926  1.00  0.00     0.012 C 
HETATM   16  C19 UNL     1      38.760  28.807  32.291  1.00  0.00     0.007 C 
HETATM   17  C20 UNL     1      38.914  30.315  32.395  1.00  0.00     0.016 C 
ENDBRANCH  10  11
ENDBRANCH   8  10
ENDBRANCH   7   8
ENDBRANCH   1   7
BRANCH   4  18
HETATM   18  C6  UNL     1      46.772  34.379  31.898  1.00  0.00     0.007 C 
BRANCH  18  19
HETATM   19  C7  UNL     1      48.125  34.073  32.461  1.00  0.00     0.033 C 
BRANCH  19  20
HETATM   20  C8  UNL     1      49.212  34.344  31.433  1.00  0.00     0.185 C 
HETATM   21  C9  UNL     1      49.450  33.107  30.593  1.00  0.00     0.033 C 
HETATM   22  C10 UNL     1      48.674  33.175  29.285  1.00  0.00     0.004 C 
HETATM   23  C11 UNL     1      49.135  34.341  28.437  1.00  0.00     0.027 C 
HETATM   24  C12 UNL     1      49.706  35.370  29.390  1.00  0.00     0.232 C 
HETATM   25  N1  UNL     1      48.855  35.418  30.547  1.00  0.00    -0.071 N 
ATOM     26  H12 UNL     1      47.865  35.408  30.301  1.00  0.00     0.277 HD
ATOM     27  H11 UNL     1      48.878  36.328  31.008  1.00  0.00     0.277 HD
ENDBRANCH  19  20
ENDBRANCH  18  19
ENDBRANCH   4  18
TORSDOF 7
ENDMDL
MODEL 4
REMARK VINA RESULT: -8.716467118      3.354      9.053
REMARK  7 active torsions:
REMARK  status: ('A' for Active; 'I' for Inactive)
REMARK    1  A    between atoms: C1_2  and  O2_3 
REMARK    2  A    between atoms: C1_2  and  O3_20 
REMARK    3  A    between atoms: O2_3  and  C2_4 
REMARK    4  A    between atoms: C5_7  and  C6_8 
REMARK    5  A    between atoms: C6_8  and  C7_9 
REMARK    6  A    between atoms: C7_9  and  C8_10 
REMARK    7  A    between atoms: O3_20  and  C15_21 
ROOT
HETATM    1  C2  UNL     1      42.856  31.934  31.003  1.00  0.00     0.134 C 
HETATM    2  C3  UNL     1      44.258  31.591  30.656  1.00  0.00     0.033 C 
HETATM    3  C4  UNL     1      45.173  31.750  31.850  1.00  0.00     0.007 C 
HETATM    4  C5  UNL     1      45.238  33.185  32.312  1.00  0.00    -0.014 C 
HETATM    5  C13 UNL     1      44.049  33.986  31.847  1.00  0.00     0.007 C 
HETATM    6  C14 UNL     1      42.786  33.199  31.772  1.00  0.00     0.033 C 
ENDROOT
BRANCH   1   7
HETATM    7  O2  UNL     1      41.984  31.958  29.899  1.00  0.00    -0.293 OA
BRANCH   7   8
HETATM    8  C1  UNL     1      40.605  31.857  29.977  1.00  0.00     0.407 C 
HETATM    9  O1  UNL     1      39.955  32.125  28.956  1.00  0.00    -0.229 OA
BRANCH   8  10
HETATM   10  O3  UNL     1      39.930  31.477  31.122  1.00  0.00    -0.292 OA
BRANCH  10  11
HETATM   11  C15 UNL     1      39.676  30.128  31.334  1.00  0.00     0.138 C 
HETATM   12  C16 UNL     1      38.280  29.880  31.903  1.00  0.00     0.037 C 
HETATM   13  C17 UNL     1      38.454  28.914  33.044  1.00  0.00    -0.012 C 
HETATM   14  C18 UNL     1      38.974  29.677  34.223  1.00  0.00     0.005 C 
HETATM   15  C21 UNL     1      39.739  28.196  32.599  1.00  0.00     0.012 C 
HETATM   16  C19 UNL     1      40.354  30.129  33.743  1.00  0.00     0.007 C 
HETATM   17  C20 UNL     1      40.544  29.490  32.378  1.00  0.00     0.016 C 
ENDBRANCH  10  11
ENDBRANCH   8  10
ENDBRANCH   7   8
ENDBRANCH   1   7
BRANCH   4  18
HETATM   18  C6  UNL     1      46.478  33.878  31.792  1.00  0.00     0.007 C 
BRANCH  18  19
HETATM   19  C7  UNL     1      47.743  33.111  32.025  1.00  0.00     0.033 C 
BRANCH  19  20
HETATM   20  C8  UNL     1      48.835  33.568  31.072  1.00  0.00     0.185 C 
HETATM   21  C9  UNL     1      48.528  33.093  29.667  1.00  0.00     0.033 C 
HETATM   22  C10 UNL     1      47.840  34.184  28.858  1.00  0.00     0.004 C 
HETATM   23  C11 UNL     1      48.739  35.392  28.695  1.00  0.00     0.027 C 
HETATM   24  C12 UNL     1      49.696  35.380  29.870  1.00  0.00     0.232 C 
HETATM   25  N1  UNL     1      48.953  35.001  31.038  1.00  0.00    -0.071 N 
ATOM     26  H12 UNL     1      48.046  35.466  31.091  1.00  0.00     0.277 HD
ATOM     27  H11 UNL     1      49.357  35.378  31.895  1.00  0.00     0.277 HD
ENDBRANCH  19  20
ENDBRANCH  18  19
ENDBRANCH   4  18
TORSDOF 7
ENDMDL
MODEL 5
REMARK VINA RESULT: -8.713094423      0.697      1.045
REMARK  7 active torsions:
REMARK  status: ('A' for Active; 'I' for Inactive)
REMARK    1  A    between atoms: C1_2  and  O2_3 
REMARK    2  A    between atoms: C1_2  and  O3_20 
REMARK    3  A    between atoms: O2_3  and  C2_4 
REMARK    4  A    between atoms: C5_7  and  C6_8 
REMARK    5  A    between atoms: C6_8  and  C7_9 
REMARK    6  A    between atoms: C7_9  and  C8_10 
REMARK    7  A    between atoms: O3_20  and  C15_21 
ROOT
HETATM    1  C2  UNL     1      45.616  33.599  31.713  1.00  0.00     0.134 C 
HETATM    2  C3  UNL     1      45.650  32.247  31.102  1.00  0.00     0.033 C 
HETATM    3  C4  UNL     1      44.566  32.089  30.059  1.00  0.00     0.007 C 
HETATM    4  C5  UNL     1      43.190  32.193  30.670  1.00  0.00    -0.014 C 
HETATM    5  C13 UNL     1      43.209  32.910  31.994  1.00  0.00     0.007 C 
HETATM    6  C14 UNL     1      44.233  33.989  32.080  1.00  0.00     0.033 C 
ENDROOT
BRANCH   1   7
HETATM    7  O2  UNL     1      46.496  33.758  32.799  1.00  0.00    -0.293 OA
BRANCH   7   8
HETATM    8  C1  UNL     1      47.858  33.512  32.758  1.00  0.00     0.407 C 
HETATM    9  O1  UNL     1      48.284  32.547  33.410  1.00  0.00    -0.229 OA
BRANCH   8  10
HETATM   10  O3  UNL     1      48.752  34.279  32.035  1.00  0.00    -0.292 OA
BRANCH  10  11
HETATM   11  C15 UNL     1      49.541  33.661  31.074  1.00  0.00     0.138 C 
HETATM   12  C16 UNL     1      50.608  34.596  30.506  1.00  0.00     0.037 C 
HETATM   13  C17 UNL     1      50.562  34.433  29.011  1.00  0.00    -0.012 C 
HETATM   14  C18 UNL     1      49.384  35.204  28.496  1.00  0.00     0.005 C 
HETATM   15  C21 UNL     1      50.012  33.000  28.910  1.00  0.00     0.012 C 
HETATM   16  C19 UNL     1      48.202  34.453  29.112  1.00  0.00     0.007 C 
HETATM   17  C20 UNL     1      48.803  33.258  29.830  1.00  0.00     0.016 C 
ENDBRANCH  10  11
ENDBRANCH   8  10
ENDBRANCH   7   8
ENDBRANCH   1   7
BRANCH   4  18
HETATM   18  C6  UNL     1      42.585  30.827  30.906  1.00  0.00     0.007 C 
BRANCH  18  19
HETATM   19  C7  UNL     1      41.185  30.687  30.396  1.00  0.00     0.033 C 
BRANCH  19  20
HETATM   20  C8  UNL     1      40.177  31.064  31.470  1.00  0.00     0.185 C 
HETATM   21  C9  UNL     1      38.817  30.494  31.127  1.00  0.00     0.033 C 
HETATM   22  C10 UNL     1      38.578  29.174  31.848  1.00  0.00     0.004 C 
HETATM   23  C11 UNL     1      38.575  29.366  33.349  1.00  0.00     0.027 C 
HETATM   24  C12 UNL     1      39.414  30.595  33.631  1.00  0.00     0.232 C 
HETATM   25  N1  UNL     1      40.556  30.556  32.761  1.00  0.00    -0.071 N 
ATOM     26  H12 UNL     1      40.972  29.626  32.707  1.00  0.00     0.277 HD
ATOM     27  H11 UNL     1      41.359  31.049  33.152  1.00  0.00     0.277 HD
ENDBRANCH  19  20
ENDBRANCH  18  19
ENDBRANCH   4  18
TORSDOF 7
ENDMDL
