MODEL 1
REMARK VINA RESULT: -9.114369148      0.000      0.000
REMARK  5 active torsions:
REMARK  status: ('A' for Active; 'I' for Inactive)
REMARK    1  A    between atoms: C2_3  and  C3_4 
REMARK    2  A    between atoms: C4_5  and  C5_6 
REMARK       I    between atoms: C5_6  and  N2_8 
REMARK    3  A    between atoms: N2_8  and  C6_9 
REMARK    4  A    between atoms: C14_19  and  S1_20 
REMARK    5  A    between atoms: S1_20  and  C15_21 
ROOT
HETATM    1  C1  UNL     1      40.479  31.562  30.962  1.00  0.00     0.158 C 
HETATM    2  N1  UNL     1      41.445  30.861  31.777  1.00  0.00    -0.331 N 
HETATM    3  C2  UNL     1      42.791  30.785  31.524  1.00  0.00     0.051 A 
HETATM    4  C13 UNL     1      43.281  30.021  32.551  1.00  0.00     0.119 A 
HETATM    5  N3  UNL     1      42.279  29.646  33.403  1.00  0.00    -0.344 N 
ATOM      6  H3  UNL     1      42.358  29.080  34.248  1.00  0.00     0.167 HD
HETATM    7  C14 UNL     1      41.177  30.184  32.887  1.00  0.00     0.146 A 
ENDROOT
BRANCH   3   8
HETATM    8  C3  UNL     1      43.367  31.358  30.334  1.00  0.00     0.038 C 
HETATM    9  C4  UNL     1      44.070  32.388  30.052  1.00  0.00     0.092 C 
BRANCH   9  10
HETATM   10  C5  UNL     1      44.593  33.471  30.882  1.00  0.00     0.310 C 
HETATM   11  O1  UNL     1      43.781  34.145  31.513  1.00  0.00    -0.252 OA
HETATM   12  N2  UNL     1      45.949  33.667  30.907  1.00  0.00    -0.406 NA
BRANCH  12  13
HETATM   13  C6  UNL     1      47.318  33.864  30.932  1.00  0.00     0.167 C 
HETATM   14  C7  UNL     1      47.873  33.005  32.082  1.00  0.00     0.039 C 
HETATM   15  C8  UNL     1      49.287  33.360  32.401  1.00  0.00     0.003 C 
HETATM   16  C9  UNL     1      50.179  33.451  31.188  1.00  0.00     0.000 C 
HETATM   17  C10 UNL     1      49.888  34.655  30.332  1.00  0.00     0.000 C 
HETATM   18  C11 UNL     1      49.028  34.263  29.187  1.00  0.00     0.003 C 
HETATM   19  C12 UNL     1      47.914  33.385  29.613  1.00  0.00     0.039 C 
ENDBRANCH  12  13
ENDBRANCH   9  10
ENDBRANCH   3   8
BRANCH   7  20
HETATM   20  S1  UNL     1      39.530  30.048  33.607  1.00  0.00    -0.089 SA
BRANCH  20  21
HETATM   21  C15 UNL     1      39.316  28.357  34.229  1.00  0.00     0.055 C 
HETATM   22  C16 UNL     1      38.075  27.691  33.749  1.00  0.00     0.015 C 
HETATM   23  C17 UNL     1      37.592  26.833  34.893  1.00  0.00     0.001 C 
HETATM   24  C18 UNL     1      38.464  27.121  36.076  1.00  0.00     0.001 C 
HETATM   25  C19 UNL     1      39.200  28.380  35.718  1.00  0.00     0.015 C 
ENDBRANCH  20  21
ENDBRANCH   7  20
TORSDOF 5
ENDMDL
MODEL 2
REMARK VINA RESULT: -8.912324388      0.464      1.358
REMARK  5 active torsions:
REMARK  status: ('A' for Active; 'I' for Inactive)
REMARK    1  A    between atoms: C2_3  and  C3_4 
REMARK    2  A    between atoms: C4_5  and  C5_6 
REMARK       I    between atoms: C5_6  and  N2_8 
REMARK    3  A    between atoms: N2_8  and  C6_9 
REMARK    4  A    between atoms: C14_19  and  S1_20 
REMARK    5  A    between atoms: S1_20  and  C15_21 
ROOT
HETATM    1  C1  UNL     1      40.477  31.565  30.856  1.00  0.00     0.158 C 
HETATM    2  N1  UNL     1      41.460  30.893  31.676  1.00  0.00    -0.331 N 
HETATM    3  C2  UNL     1      42.802  30.814  31.401  1.00  0.00     0.051 A 
HETATM    4  C13 UNL     1      43.313  30.085  32.443  1.00  0.00     0.119 A 
HETATM    5  N3  UNL     1      42.328  29.734  33.324  1.00  0.00    -0.344 N 
ATOM      6  H3  UNL     1      42.425  29.195  34.185  1.00  0.00     0.167 HD
HETATM    7  C14 UNL     1      41.214  30.251  32.811  1.00  0.00     0.146 A 
ENDROOT
BRANCH   3   8
HETATM    8  C3  UNL     1      43.354  31.351  30.183  1.00  0.00     0.038 C 
HETATM    9  C4  UNL     1      44.172  32.282  29.872  1.00  0.00     0.092 C 
BRANCH   9  10
HETATM   10  C5  UNL     1      44.914  33.243  30.686  1.00  0.00     0.310 C 
HETATM   11  O1  UNL     1      44.266  33.976  31.430  1.00  0.00    -0.252 OA
HETATM   12  N2  UNL     1      46.280  33.266  30.571  1.00  0.00    -0.406 NA
BRANCH  12  13
HETATM   13  C6  UNL     1      47.658  33.289  30.457  1.00  0.00     0.167 C 
HETATM   14  C7  UNL     1      47.990  34.140  29.219  1.00  0.00     0.039 C 
HETATM   15  C8  UNL     1      49.421  33.994  28.819  1.00  0.00     0.003 C 
HETATM   16  C9  UNL     1      50.390  34.137  29.966  1.00  0.00     0.000 C 
HETATM   17  C10 UNL     1      50.356  32.967  30.913  1.00  0.00     0.000 C 
HETATM   18  C11 UNL     1      49.516  33.299  32.093  1.00  0.00     0.003 C 
HETATM   19  C12 UNL     1      48.248  33.953  31.696  1.00  0.00     0.039 C 
ENDBRANCH  12  13
ENDBRANCH   9  10
ENDBRANCH   3   8
BRANCH   7  20
HETATM   20  S1  UNL     1      39.582  30.133  33.565  1.00  0.00    -0.089 SA
BRANCH  20  21
HETATM   21  C15 UNL     1      39.358  28.441  34.179  1.00  0.00     0.055 C 
HETATM   22  C16 UNL     1      38.116  27.781  33.691  1.00  0.00     0.015 C 
HETATM   23  C17 UNL     1      37.623  26.921  34.829  1.00  0.00     0.001 C 
HETATM   24  C18 UNL     1      38.490  27.201  36.017  1.00  0.00     0.001 C 
HETATM   25  C19 UNL     1      39.234  28.458  35.668  1.00  0.00     0.015 C 
ENDBRANCH  20  21
ENDBRANCH   7  20
TORSDOF 5
ENDMDL
MODEL 3
REMARK VINA RESULT: -8.682461247      0.850      1.485
REMARK  5 active torsions:
REMARK  status: ('A' for Active; 'I' for Inactive)
REMARK    1  A    between atoms: C2_3  and  C3_4 
REMARK    2  A    between atoms: C4_5  and  C5_6 
REMARK       I    between atoms: C5_6  and  N2_8 
REMARK    3  A    between atoms: N2_8  and  C6_9 
REMARK    4  A    between atoms: C14_19  and  S1_20 
REMARK    5  A    between atoms: S1_20  and  C15_21 
ROOT
HETATM    1  C1  UNL     1      42.277  30.140  32.933  1.00  0.00     0.158 C 
HETATM    2  N1  UNL     1      41.279  30.583  31.985  1.00  0.00    -0.331 N 
HETATM    3  C2  UNL     1      41.514  30.887  30.669  1.00  0.00     0.051 A 
HETATM    4  C13 UNL     1      40.285  31.259  30.188  1.00  0.00     0.119 A 
HETATM    5  N3  UNL     1      39.333  31.182  31.167  1.00  0.00    -0.344 N 
ATOM      6  H3  UNL     1      38.339  31.397  31.088  1.00  0.00     0.167 HD
HETATM    7  C14 UNL     1      39.990  30.764  32.246  1.00  0.00     0.146 A 
ENDROOT
BRANCH   3   8
HETATM    8  C3  UNL     1      42.845  30.863  30.116  1.00  0.00     0.038 C 
HETATM    9  C4  UNL     1      43.908  31.561  30.240  1.00  0.00     0.092 C 
BRANCH   9  10
HETATM   10  C5  UNL     1      44.212  32.746  31.038  1.00  0.00     0.310 C 
HETATM   11  O1  UNL     1      43.271  33.317  31.585  1.00  0.00    -0.252 OA
HETATM   12  N2  UNL     1      45.520  33.146  31.127  1.00  0.00    -0.406 NA
BRANCH  12  13
HETATM   13  C6  UNL     1      46.839  33.550  31.217  1.00  0.00     0.167 C 
HETATM   14  C7  UNL     1      47.455  32.804  32.413  1.00  0.00     0.039 C 
HETATM   15  C8  UNL     1      48.780  33.375  32.796  1.00  0.00     0.003 C 
HETATM   16  C9  UNL     1      49.712  33.581  31.628  1.00  0.00     0.000 C 
HETATM   17  C10 UNL     1      49.289  34.713  30.730  1.00  0.00     0.000 C 
HETATM   18  C11 UNL     1      48.561  34.176  29.552  1.00  0.00     0.003 C 
HETATM   19  C12 UNL     1      47.571  33.147  29.942  1.00  0.00     0.039 C 
ENDBRANCH  12  13
ENDBRANCH   9  10
ENDBRANCH   3   8
BRANCH   7  20
HETATM   20  S1  UNL     1      39.236  30.449  33.852  1.00  0.00    -0.089 SA
BRANCH  20  21
HETATM   21  C15 UNL     1      39.299  28.665  34.174  1.00  0.00     0.055 C 
HETATM   22  C16 UNL     1      38.142  27.911  33.620  1.00  0.00     0.015 C 
HETATM   23  C17 UNL     1      37.848  26.810  34.610  1.00  0.00     0.001 C 
HETATM   24  C18 UNL     1      38.733  27.021  35.799  1.00  0.00     0.001 C 
HETATM   25  C19 UNL     1      39.262  28.418  35.646  1.00  0.00     0.015 C 
ENDBRANCH  20  21
ENDBRANCH   7  20
TORSDOF 5
ENDMDL
MODEL 4
REMARK VINA RESULT: -8.676390664      2.975      9.791
REMARK  5 active torsions:
REMARK  status: ('A' for Active; 'I' for Inactive)
REMARK    1  A    between atoms: C2_3  and  C3_4 
REMARK    2  A    between atoms: C4_5  and  C5_6 
REMARK       I    between atoms: C5_6  and  N2_8 
REMARK    3  A    between atoms: N2_8  and  C6_9 
REMARK    4  A    between atoms: C14_19  and  S1_20 
REMARK    5  A    between atoms: S1_20  and  C15_21 
ROOT
HETATM    1  C1  UNL     1      47.391  33.648  29.011  1.00  0.00     0.158 C 
HETATM    2  N1  UNL     1      47.284  33.300  30.410  1.00  0.00    -0.331 N 
HETATM    3  C2  UNL     1      46.238  32.620  30.980  1.00  0.00     0.051 A 
HETATM    4  C13 UNL     1      46.577  32.536  32.306  1.00  0.00     0.119 A 
HETATM    5  N3  UNL     1      47.784  33.136  32.541  1.00  0.00    -0.344 N 
ATOM      6  H3  UNL     1      48.276  33.220  33.431  1.00  0.00     0.167 HD
HETATM    7  C14 UNL     1      48.175  33.587  31.351  1.00  0.00     0.146 A 
ENDROOT
BRANCH   3   8
HETATM    8  C3  UNL     1      45.075  32.247  30.215  1.00  0.00     0.038 C 
HETATM    9  C4  UNL     1      43.808  32.311  30.369  1.00  0.00     0.092 C 
BRANCH   9  10
HETATM   10  C5  UNL     1      42.983  32.815  31.465  1.00  0.00     0.310 C 
HETATM   11  O1  UNL     1      43.348  33.847  32.022  1.00  0.00    -0.252 OA
HETATM   12  N2  UNL     1      41.857  32.108  31.801  1.00  0.00    -0.406 NA
BRANCH  12  13
HETATM   13  C6  UNL     1      40.720  31.397  32.139  1.00  0.00     0.167 C 
HETATM   14  C7  UNL     1      40.068  30.941  30.823  1.00  0.00     0.039 C 
HETATM   15  C8  UNL     1      38.685  30.425  31.044  1.00  0.00     0.003 C 
HETATM   16  C9  UNL     1      38.580  29.438  32.180  1.00  0.00     0.000 C 
HETATM   17  C10 UNL     1      38.742  30.078  33.533  1.00  0.00     0.000 C 
HETATM   18  C11 UNL     1      40.134  29.889  34.014  1.00  0.00     0.003 C 
HETATM   19  C12 UNL     1      41.125  30.171  32.951  1.00  0.00     0.039 C 
ENDBRANCH  12  13
ENDBRANCH   9  10
ENDBRANCH   3   8
BRANCH   7  20
HETATM   20  S1  UNL     1      49.726  34.449  31.037  1.00  0.00    -0.089 SA
BRANCH  20  21
HETATM   21  C15 UNL     1      51.070  33.232  31.054  1.00  0.00     0.055 C 
HETATM   22  C16 UNL     1      52.427  33.829  30.925  1.00  0.00     0.015 C 
HETATM   23  C17 UNL     1      53.238  32.853  30.107  1.00  0.00     0.001 C 
HETATM   24  C18 UNL     1      52.312  31.774  29.640  1.00  0.00     0.001 C 
HETATM   25  C19 UNL     1      50.932  32.314  29.884  1.00  0.00     0.015 C 
ENDBRANCH  20  21
ENDBRANCH   7  20
TORSDOF 5
ENDMDL
MODEL 5
REMARK VINA RESULT: -8.534999048      1.775      3.007
REMARK  5 active torsions:
REMARK  status: ('A' for Active; 'I' for Inactive)
REMARK    1  A    between atoms: C2_3  and  C3_4 
REMARK    2  A    between atoms: C4_5  and  C5_6 
REMARK       I    between atoms: C5_6  and  N2_8 
REMARK    3  A    between atoms: N2_8  and  C6_9 
REMARK    4  A    between atoms: C14_19  and  S1_20 
REMARK    5  A    between atoms: S1_20  and  C15_21 
ROOT
HETATM    1  C1  UNL     1      41.611  28.861  31.544  1.00  0.00     0.158 C 
HETATM    2  N1  UNL     1      40.248  29.343  31.517  1.00  0.00    -0.331 N 
HETATM    3  C2  UNL     1      39.785  30.368  30.731  1.00  0.00     0.051 A 
HETATM    4  C13 UNL     1      38.456  30.463  31.056  1.00  0.00     0.119 A 
HETATM    5  N3  UNL     1      38.115  29.531  31.997  1.00  0.00    -0.344 N 
ATOM      6  H3  UNL     1      37.198  29.376  32.416  1.00  0.00     0.167 HD
HETATM    7  C14 UNL     1      39.244  28.872  32.246  1.00  0.00     0.146 A 
ENDROOT
BRANCH   3   8
HETATM    8  C3  UNL     1      40.671  31.131  29.889  1.00  0.00     0.038 C 
HETATM    9  C4  UNL     1      41.669  31.910  30.065  1.00  0.00     0.092 C 
BRANCH   9  10
HETATM   10  C5  UNL     1      42.345  32.374  31.275  1.00  0.00     0.310 C 
HETATM   11  O1  UNL     1      41.658  32.539  32.281  1.00  0.00    -0.252 OA
HETATM   12  N2  UNL     1      43.697  32.594  31.214  1.00  0.00    -0.406 NA
BRANCH  12  13
HETATM   13  C6  UNL     1      45.061  32.815  31.154  1.00  0.00     0.167 C 
HETATM   14  C7  UNL     1      45.407  33.075  29.678  1.00  0.00     0.039 C 
HETATM   15  C8  UNL     1      46.881  33.031  29.444  1.00  0.00     0.003 C 
HETATM   16  C9  UNL     1      47.678  33.841  30.435  1.00  0.00     0.000 C 
HETATM   17  C10 UNL     1      47.705  33.227  31.810  1.00  0.00     0.000 C 
HETATM   18  C11 UNL     1      46.694  33.886  32.675  1.00  0.00     0.003 C 
HETATM   19  C12 UNL     1      45.400  34.053  31.976  1.00  0.00     0.039 C 
ENDBRANCH  12  13
ENDBRANCH   9  10
ENDBRANCH   3   8
BRANCH   7  20
HETATM   20  S1  UNL     1      39.399  27.494  33.398  1.00  0.00    -0.089 SA
BRANCH  20  21
HETATM   21  C15 UNL     1      38.167  27.707  34.712  1.00  0.00     0.055 C 
HETATM   22  C16 UNL     1      38.746  27.743  36.082  1.00  0.00     0.015 C 
HETATM   23  C17 UNL     1      37.746  27.055  36.978  1.00  0.00     0.001 C 
HETATM   24  C18 UNL     1      36.668  26.491  36.105  1.00  0.00     0.001 C 
HETATM   25  C19 UNL     1      37.228  26.545  34.713  1.00  0.00     0.015 C 
ENDBRANCH  20  21
ENDBRANCH   7  20
TORSDOF 5
ENDMDL
