MODEL 1
REMARK VINA RESULT: -7.772718104      0.000      0.000
REMARK  7 active torsions:
REMARK  status: ('A' for Active; 'I' for Inactive)
REMARK    1  A    between atoms: C2_2  and  C5_5 
REMARK    2  A    between atoms: C5_5  and  N1_6 
REMARK    3  A    between atoms: C9_12  and  N3_13 
REMARK    4  A    between atoms: N3_13  and  C10_15 
REMARK    5  A    between atoms: C10_15  and  C11_16 
REMARK    6  A    between atoms: C11_16  and  C12_17 
REMARK    7  A    between atoms: C12_17  and  C13_18 
ROOT
HETATM    1  N1  UNL     1      39.785  28.430  33.595  1.00  0.00     0.094 N 
HETATM    2  C6  UNL     1      40.297  29.573  34.340  1.00  0.00     0.279 C 
HETATM    3  C7  UNL     1      39.826  30.833  33.663  1.00  0.00     0.088 C 
HETATM    4  C8  UNL     1      40.768  30.923  32.457  1.00  0.00     0.028 A 
HETATM    5  N2  UNL     1      41.526  31.885  32.021  1.00  0.00    -0.339 N 
ATOM      6  H2  UNL     1      41.566  32.777  32.512  1.00  0.00     0.168 HD
HETATM    7  C9  UNL     1      42.246  31.685  30.923  1.00  0.00     0.145 A 
HETATM    8  S2  UNL     1      41.848  30.081  30.481  1.00  0.00    -0.055 SA
HETATM    9  C17 UNL     1      40.759  29.744  31.747  1.00  0.00     0.037 A 
HETATM   10  C18 UNL     1      39.872  28.594  32.190  1.00  0.00     0.320 C 
ENDROOT
BRANCH   7  11
HETATM   11  N3  UNL     1      43.075  32.522  30.313  1.00  0.00    -0.370 N 
ATOM     12  H3  UNL     1      42.769  33.442  29.996  1.00  0.00     0.161 HD
BRANCH  11  13
HETATM   13  C10 UNL     1      44.435  32.066  30.118  1.00  0.00     0.122 C 
BRANCH  13  14
HETATM   14  C11 UNL     1      45.181  31.981  31.404  1.00  0.00     0.024 C 
BRANCH  14  15
HETATM   15  C12 UNL     1      45.548  33.266  32.052  1.00  0.00     0.041 C 
BRANCH  15  16
HETATM   16  C13 UNL     1      47.036  33.500  31.818  1.00  0.00    -0.051 A 
HETATM   17  C14 UNL     1      47.966  33.015  32.653  1.00  0.00     0.014 A 
HETATM   18  C15 UNL     1      49.275  33.291  32.361  1.00  0.00     0.050 A 
HETATM   19  S1  UNL     1      49.166  34.216  30.938  1.00  0.00    -0.113 SA
HETATM   20  C16 UNL     1      47.474  34.230  30.746  1.00  0.00     0.056 A 
ENDBRANCH  15  16
ENDBRANCH  14  15
ENDBRANCH  13  14
ENDBRANCH  11  13
ENDBRANCH   7  11
BRANCH   1  21
HETATM   21  C5  UNL     1      38.453  28.211  34.085  1.00  0.00     0.281 C 
BRANCH  21  22
HETATM   22  C2  UNL     1      38.225  27.094  35.023  1.00  0.00    -0.025 C 
HETATM   23  C1  UNL     1      39.118  25.897  34.729  1.00  0.00     0.016 C 
HETATM   24  C3  UNL     1      36.820  26.629  35.178  1.00  0.00     0.016 C 
HETATM   25  C4  UNL     1      38.662  27.594  36.426  1.00  0.00     0.016 C 
ENDBRANCH  21  22
ENDBRANCH   1  21
TORSDOF 7
ENDMDL
MODEL 2
REMARK VINA RESULT: -7.715795228      2.977      9.258
REMARK  7 active torsions:
REMARK  status: ('A' for Active; 'I' for Inactive)
REMARK    1  A    between atoms: C2_2  and  C5_5 
REMARK    2  A    between atoms: C5_5  and  N1_6 
REMARK    3  A    between atoms: C9_12  and  N3_13 
REMARK    4  A    between atoms: N3_13  and  C10_15 
REMARK    5  A    between atoms: C10_15  and  C11_16 
REMARK    6  A    between atoms: C11_16  and  C12_17 
REMARK    7  A    between atoms: C12_17  and  C13_18 
ROOT
HETATM    1  N1  UNL     1      42.744  31.446  31.963  1.00  0.00     0.094 N 
HETATM    2  C6  UNL     1      43.005  30.023  31.787  1.00  0.00     0.279 C 
HETATM    3  C7  UNL     1      41.878  29.427  30.985  1.00  0.00     0.088 C 
HETATM    4  C8  UNL     1      40.763  29.314  32.030  1.00  0.00     0.028 A 
HETATM    5  N2  UNL     1      40.013  28.315  32.391  1.00  0.00    -0.339 N 
ATOM      6  H2  UNL     1      40.122  27.400  31.954  1.00  0.00     0.168 HD
HETATM    7  C9  UNL     1      39.102  28.507  33.338  1.00  0.00     0.145 A 
HETATM    8  S2  UNL     1      39.303  30.156  33.744  1.00  0.00    -0.055 SA
HETATM    9  C17 UNL     1      40.564  30.521  32.659  1.00  0.00     0.037 A 
HETATM   10  C18 UNL     1      41.389  31.733  32.261  1.00  0.00     0.320 C 
ENDROOT
BRANCH   7  11
HETATM   11  N3  UNL     1      38.243  27.635  33.849  1.00  0.00    -0.370 N 
ATOM     12  H3  UNL     1      37.238  27.719  33.693  1.00  0.00     0.161 HD
BRANCH  11  13
HETATM   13  C10 UNL     1      38.800  26.558  34.640  1.00  0.00     0.122 C 
BRANCH  13  14
HETATM   14  C11 UNL     1      38.956  25.309  33.844  1.00  0.00     0.024 C 
BRANCH  14  15
HETATM   15  C12 UNL     1      40.171  24.496  34.103  1.00  0.00     0.041 C 
BRANCH  15  16
HETATM   16  C13 UNL     1      40.016  23.173  33.363  1.00  0.00    -0.051 A 
HETATM   17  C14 UNL     1      39.115  23.015  32.382  1.00  0.00     0.014 A 
HETATM   18  C15 UNL     1      39.046  21.784  31.787  1.00  0.00     0.050 A 
HETATM   19  S1  UNL     1      40.235  20.890  32.613  1.00  0.00    -0.113 SA
HETATM   20  C16 UNL     1      40.789  22.090  33.686  1.00  0.00     0.056 A 
ENDBRANCH  15  16
ENDBRANCH  14  15
ENDBRANCH  13  14
ENDBRANCH  11  13
ENDBRANCH   7  11
BRANCH   1  21
HETATM   21  C5  UNL     1      43.238  32.081  30.773  1.00  0.00     0.281 C 
BRANCH  21  22
HETATM   22  C2  UNL     1      44.540  32.773  30.835  1.00  0.00    -0.025 C 
HETATM   23  C1  UNL     1      45.094  33.093  29.454  1.00  0.00     0.016 C 
HETATM   24  C3  UNL     1      45.603  32.126  31.651  1.00  0.00     0.016 C 
HETATM   25  C4  UNL     1      44.280  34.153  31.499  1.00  0.00     0.016 C 
ENDBRANCH  21  22
ENDBRANCH   1  21
TORSDOF 7
ENDMDL
MODEL 3
REMARK VINA RESULT: -7.708656589      2.143      9.277
REMARK  7 active torsions:
REMARK  status: ('A' for Active; 'I' for Inactive)
REMARK    1  A    between atoms: C2_2  and  C5_5 
REMARK    2  A    between atoms: C5_5  and  N1_6 
REMARK    3  A    between atoms: C9_12  and  N3_13 
REMARK    4  A    between atoms: N3_13  and  C10_15 
REMARK    5  A    between atoms: C10_15  and  C11_16 
REMARK    6  A    between atoms: C11_16  and  C12_17 
REMARK    7  A    between atoms: C12_17  and  C13_18 
ROOT
HETATM    1  N1  UNL     1      46.138  32.966  30.658  1.00  0.00     0.094 N 
HETATM    2  C6  UNL     1      45.134  33.981  30.368  1.00  0.00     0.279 C 
HETATM    3  C7  UNL     1      44.451  34.358  31.656  1.00  0.00     0.088 C 
HETATM    4  C8  UNL     1      43.502  33.174  31.877  1.00  0.00     0.028 A 
HETATM    5  N2  UNL     1      42.225  33.121  32.108  1.00  0.00    -0.339 N 
ATOM      6  H2  UNL     1      41.671  33.976  32.164  1.00  0.00     0.168 HD
HETATM    7  C9  UNL     1      41.651  31.934  32.270  1.00  0.00     0.145 A 
HETATM    8  S2  UNL     1      42.957  30.843  32.090  1.00  0.00    -0.055 SA
HETATM    9  C17 UNL     1      44.190  31.985  31.814  1.00  0.00     0.037 A 
HETATM   10  C18 UNL     1      45.691  31.983  31.575  1.00  0.00     0.320 C 
ENDROOT
BRANCH   7  11
HETATM   11  N3  UNL     1      40.377  31.656  32.513  1.00  0.00    -0.370 N 
ATOM     12  H3  UNL     1      39.859  32.126  33.254  1.00  0.00     0.161 HD
BRANCH  11  13
HETATM   13  C10 UNL     1      39.759  30.651  31.674  1.00  0.00     0.122 C 
BRANCH  13  14
HETATM   14  C11 UNL     1      38.771  29.830  32.429  1.00  0.00     0.024 C 
BRANCH  14  15
HETATM   15  C12 UNL     1      38.955  29.746  33.899  1.00  0.00     0.041 C 
BRANCH  15  16
HETATM   16  C13 UNL     1      38.952  28.272  34.288  1.00  0.00    -0.051 A 
HETATM   17  C14 UNL     1      38.648  27.872  35.532  1.00  0.00     0.014 A 
HETATM   18  C15 UNL     1      38.685  26.527  35.784  1.00  0.00     0.050 A 
HETATM   19  S1  UNL     1      39.143  25.867  34.284  1.00  0.00    -0.113 SA
HETATM   20  C16 UNL     1      39.274  27.302  33.378  1.00  0.00     0.056 A 
ENDBRANCH  15  16
ENDBRANCH  14  15
ENDBRANCH  13  14
ENDBRANCH  11  13
ENDBRANCH   7  11
BRANCH   1  21
HETATM   21  C5  UNL     1      47.307  33.685  31.082  1.00  0.00     0.281 C 
BRANCH  21  22
HETATM   22  C2  UNL     1      48.459  33.757  30.162  1.00  0.00    -0.025 C 
HETATM   23  C1  UNL     1      48.811  35.189  29.784  1.00  0.00     0.016 C 
HETATM   24  C3  UNL     1      48.382  32.930  28.928  1.00  0.00     0.016 C 
HETATM   25  C4  UNL     1      49.690  33.230  30.948  1.00  0.00     0.016 C 
ENDBRANCH  21  22
ENDBRANCH   1  21
TORSDOF 7
ENDMDL
MODEL 4
REMARK VINA RESULT: -7.555633163      2.116      9.218
REMARK  7 active torsions:
REMARK  status: ('A' for Active; 'I' for Inactive)
REMARK    1  A    between atoms: C2_2  and  C5_5 
REMARK    2  A    between atoms: C5_5  and  N1_6 
REMARK    3  A    between atoms: C9_12  and  N3_13 
REMARK    4  A    between atoms: N3_13  and  C10_15 
REMARK    5  A    between atoms: C10_15  and  C11_16 
REMARK    6  A    between atoms: C11_16  and  C12_17 
REMARK    7  A    between atoms: C12_17  and  C13_18 
ROOT
HETATM    1  N1  UNL     1      45.825  33.528  30.451  1.00  0.00     0.094 N 
HETATM    2  C6  UNL     1      45.005  34.447  31.229  1.00  0.00     0.279 C 
HETATM    3  C7  UNL     1      44.463  33.708  32.424  1.00  0.00     0.088 C 
HETATM    4  C8  UNL     1      43.331  32.880  31.805  1.00  0.00     0.028 A 
HETATM    5  N2  UNL     1      42.077  32.757  32.123  1.00  0.00    -0.339 N 
ATOM      6  H2  UNL     1      41.688  33.272  32.912  1.00  0.00     0.168 HD
HETATM    7  C9  UNL     1      41.311  31.946  31.402  1.00  0.00     0.145 A 
HETATM    8  S2  UNL     1      42.391  31.331  30.227  1.00  0.00    -0.055 SA
HETATM    9  C17 UNL     1      43.793  32.157  30.730  1.00  0.00     0.037 A 
HETATM   10  C18 UNL     1      45.256  32.237  30.328  1.00  0.00     0.320 C 
ENDROOT
BRANCH   7  11
HETATM   11  N3  UNL     1      40.020  31.676  31.552  1.00  0.00    -0.370 N 
ATOM     12  H3  UNL     1      39.303  32.379  31.377  1.00  0.00     0.161 HD
BRANCH  11  13
HETATM   13  C10 UNL     1      39.682  30.334  31.977  1.00  0.00     0.122 C 
BRANCH  13  14
HETATM   14  C11 UNL     1      39.320  30.285  33.421  1.00  0.00     0.024 C 
BRANCH  14  15
HETATM   15  C12 UNL     1      40.208  29.491  34.307  1.00  0.00     0.041 C 
BRANCH  15  16
HETATM   16  C13 UNL     1      39.448  28.240  34.733  1.00  0.00    -0.051 A 
HETATM   17  C14 UNL     1      39.258  27.212  33.893  1.00  0.00     0.014 A 
HETATM   18  C15 UNL     1      38.552  26.138  34.368  1.00  0.00     0.050 A 
HETATM   19  S1  UNL     1      38.177  26.598  35.963  1.00  0.00    -0.113 SA
HETATM   20  C16 UNL     1      38.920  28.130  35.991  1.00  0.00     0.056 A 
ENDBRANCH  15  16
ENDBRANCH  14  15
ENDBRANCH  13  14
ENDBRANCH  11  13
ENDBRANCH   7  11
BRANCH   1  21
HETATM   21  C5  UNL     1      47.123  33.548  31.067  1.00  0.00     0.281 C 
BRANCH  21  22
HETATM   22  C2  UNL     1      48.307  33.726  30.205  1.00  0.00    -0.025 C 
HETATM   23  C1  UNL     1      48.603  35.191  29.919  1.00  0.00     0.016 C 
HETATM   24  C3  UNL     1      48.324  32.966  28.926  1.00  0.00     0.016 C 
HETATM   25  C4  UNL     1      49.529  33.215  31.016  1.00  0.00     0.016 C 
ENDBRANCH  21  22
ENDBRANCH   1  21
TORSDOF 7
ENDMDL
MODEL 5
REMARK VINA RESULT: -7.536687157      2.186      9.085
REMARK  7 active torsions:
REMARK  status: ('A' for Active; 'I' for Inactive)
REMARK    1  A    between atoms: C2_2  and  C5_5 
REMARK    2  A    between atoms: C5_5  and  N1_6 
REMARK    3  A    between atoms: C9_12  and  N3_13 
REMARK    4  A    between atoms: N3_13  and  C10_15 
REMARK    5  A    between atoms: C10_15  and  C11_16 
REMARK    6  A    between atoms: C11_16  and  C12_17 
REMARK    7  A    between atoms: C12_17  and  C13_18 
ROOT
HETATM    1  N1  UNL     1      45.700  33.235  30.427  1.00  0.00     0.094 N 
HETATM    2  C6  UNL     1      44.892  34.239  31.108  1.00  0.00     0.279 C 
HETATM    3  C7  UNL     1      44.289  33.613  32.337  1.00  0.00     0.088 C 
HETATM    4  C8  UNL     1      43.146  32.780  31.747  1.00  0.00     0.028 A 
HETATM    5  N2  UNL     1      41.879  32.724  32.034  1.00  0.00    -0.339 N 
ATOM      6  H2  UNL     1      41.487  33.311  32.770  1.00  0.00     0.168 HD
HETATM    7  C9  UNL     1      41.104  31.889  31.352  1.00  0.00     0.145 A 
HETATM    8  S2  UNL     1      42.194  31.149  30.261  1.00  0.00    -0.055 SA
HETATM    9  C17 UNL     1      43.611  31.961  30.744  1.00  0.00     0.037 A 
HETATM   10  C18 UNL     1      45.086  31.959  30.383  1.00  0.00     0.320 C 
ENDROOT
BRANCH   7  11
HETATM   11  N3  UNL     1      39.801  31.675  31.481  1.00  0.00    -0.370 N 
ATOM     12  H3  UNL     1      39.114  32.373  31.196  1.00  0.00     0.161 HD
BRANCH  11  13
HETATM   13  C10 UNL     1      39.402  30.404  32.047  1.00  0.00     0.122 C 
BRANCH  13  14
HETATM   14  C11 UNL     1      39.354  30.451  33.536  1.00  0.00     0.024 C 
BRANCH  14  15
HETATM   15  C12 UNL     1      40.280  29.548  34.265  1.00  0.00     0.041 C 
BRANCH  15  16
HETATM   16  C13 UNL     1      39.518  28.273  34.608  1.00  0.00    -0.051 A 
HETATM   17  C14 UNL     1      38.959  28.089  35.813  1.00  0.00     0.014 A 
HETATM   18  C15 UNL     1      38.306  26.904  36.027  1.00  0.00     0.050 A 
HETATM   19  S1  UNL     1      38.494  26.089  34.545  1.00  0.00    -0.113 SA
HETATM   20  C16 UNL     1      39.389  27.262  33.695  1.00  0.00     0.056 A 
ENDBRANCH  15  16
ENDBRANCH  14  15
ENDBRANCH  13  14
ENDBRANCH  11  13
ENDBRANCH   7  11
BRANCH   1  21
HETATM   21  C5  UNL     1      46.979  33.257  31.080  1.00  0.00     0.281 C 
BRANCH  21  22
HETATM   22  C2  UNL     1      48.161  33.664  30.296  1.00  0.00    -0.025 C 
HETATM   23  C1  UNL     1      49.464  33.176  30.915  1.00  0.00     0.016 C 
HETATM   24  C3  UNL     1      48.285  35.112  29.976  1.00  0.00     0.016 C 
HETATM   25  C4  UNL     1      48.062  32.935  28.929  1.00  0.00     0.016 C 
ENDBRANCH  21  22
ENDBRANCH   1  21
TORSDOF 7
ENDMDL
