MODEL 1
REMARK VINA RESULT: -6.886824693      0.000      0.000
REMARK  9 active torsions:
REMARK  status: ('A' for Active; 'I' for Inactive)
REMARK    1  A    between atoms: C2_2  and  C3_3 
REMARK    2  A    between atoms: C3_3  and  C4_4 
REMARK    3  A    between atoms: C5_5  and  C6_6 
REMARK    4  A    between atoms: C6_6  and  C7_7 
REMARK    5  A    between atoms: C7_7  and  C10_11 
REMARK    6  A    between atoms: C8_8  and  C9_9 
REMARK    7  A    between atoms: C10_11  and  N1_12 
REMARK    8  A    between atoms: C12_15  and  C13_16 
REMARK    9  A    between atoms: C17_23  and  O3_24 
ROOT
HETATM    1  N1  UNL     1      15.028 -12.547  20.823  1.00  0.00    -0.312 N 
HETATM    2  C11 UNL     1      14.342 -13.754  20.506  1.00  0.00     0.245 C 
HETATM    3  O1  UNL     1      14.090 -14.623  21.371  1.00  0.00    -0.271 OA
HETATM    4  C12 UNL     1      13.895 -14.013  19.103  1.00  0.00     0.180 C 
HETATM    5  N2  UNL     1      14.692 -13.261  18.158  1.00  0.00    -0.344 N 
ATOM      6  H2  UNL     1      15.056 -13.683  17.304  1.00  0.00     0.163 HD
HETATM    7  C16 UNL     1      14.939 -11.906  18.486  1.00  0.00     0.267 C 
HETATM    8  O2  UNL     1      15.304 -11.071  17.626  1.00  0.00    -0.269 OA
HETATM    9  C17 UNL     1      14.759 -11.459  19.883  1.00  0.00     0.317 C 
ENDROOT
BRANCH   1  10
HETATM   10  C10 UNL     1      15.902 -12.399  21.928  1.00  0.00     0.163 C 
BRANCH  10  11
HETATM   11  C7  UNL     1      17.228 -13.045  21.821  1.00  0.00    -0.054 C 
HETATM   12  C8  UNL     1      18.115 -12.489  21.021  1.00  0.00    -0.011 C 
BRANCH  11  13
HETATM   13  C6  UNL     1      17.537 -14.264  22.578  1.00  0.00     0.129 C 
BRANCH  13  14
HETATM   14  C5  UNL     1      18.369 -13.934  23.770  1.00  0.00    -0.102 C 
HETATM   15  C4  UNL     1      19.041 -13.674  24.737  1.00  0.00    -0.106 C 
BRANCH  15  16
HETATM   16  C3  UNL     1      19.856 -13.332  25.900  1.00  0.00     0.093 C 
BRANCH  16  17
HETATM   17  C2  UNL     1      20.827 -12.209  25.533  1.00  0.00     0.007 C 
HETATM   18  C1  UNL     1      22.044 -12.824  24.871  1.00  0.00     0.006 C 
ENDBRANCH  16  17
ENDBRANCH  15  16
ENDBRANCH  13  14
ENDBRANCH  11  13
BRANCH  12  19
HETATM   19  C9  UNL     1      19.485 -12.978  20.773  1.00  0.00     0.112 C 
HETATM   20 BR1  UNL     1      20.335 -11.836  19.451  1.00  0.00    -0.092 Br
ENDBRANCH  12  19
ENDBRANCH  10  11
ENDBRANCH   1  10
BRANCH   9  21
HETATM   21  O3  UNL     1      15.643 -10.433  20.167  1.00  0.00    -0.368 OA
ATOM     22  H3  UNL     1      16.030 -10.152  19.347  1.00  0.00     0.212 HD
ENDBRANCH   9  21
BRANCH   4  23
HETATM   23  C13 UNL     1      13.913 -15.451  18.717  1.00  0.00     0.009 C 
HETATM   24  C14 UNL     1      14.825 -15.787  17.574  1.00  0.00     0.012 C 
HETATM   25  C15 UNL     1      12.543 -15.989  18.385  1.00  0.00     0.012 C 
ENDBRANCH   4  23
TORSDOF 9
ENDMDL
MODEL 2
REMARK VINA RESULT: -6.884800453      2.867      4.919
REMARK  9 active torsions:
REMARK  status: ('A' for Active; 'I' for Inactive)
REMARK    1  A    between atoms: C2_2  and  C3_3 
REMARK    2  A    between atoms: C3_3  and  C4_4 
REMARK    3  A    between atoms: C5_5  and  C6_6 
REMARK    4  A    between atoms: C6_6  and  C7_7 
REMARK    5  A    between atoms: C7_7  and  C10_11 
REMARK    6  A    between atoms: C8_8  and  C9_9 
REMARK    7  A    between atoms: C10_11  and  N1_12 
REMARK    8  A    between atoms: C12_15  and  C13_16 
REMARK    9  A    between atoms: C17_23  and  O3_24 
ROOT
HETATM    1  N1  UNL     1      14.517 -13.997  20.018  1.00  0.00    -0.312 N 
HETATM    2  C11 UNL     1      13.273 -13.401  20.369  1.00  0.00     0.245 C 
HETATM    3  O1  UNL     1      12.273 -13.457  19.617  1.00  0.00    -0.271 OA
HETATM    4  C12 UNL     1      13.128 -12.682  21.672  1.00  0.00     0.180 C 
HETATM    5  N2  UNL     1      14.412 -12.222  22.154  1.00  0.00    -0.344 N 
ATOM      6  H2  UNL     1      14.541 -11.282  22.529  1.00  0.00     0.163 HD
HETATM    7  C16 UNL     1      15.480 -13.148  22.077  1.00  0.00     0.267 C 
HETATM    8  O2  UNL     1      16.526 -13.013  22.753  1.00  0.00    -0.269 OA
HETATM    9  C17 UNL     1      15.359 -14.312  21.173  1.00  0.00     0.317 C 
ENDROOT
BRANCH   1  10
HETATM   10  C10 UNL     1      14.927 -14.255  18.687  1.00  0.00     0.163 C 
BRANCH  10  11
HETATM   11  C7  UNL     1      15.296 -13.083  17.864  1.00  0.00    -0.054 C 
HETATM   12  C8  UNL     1      15.292 -13.232  16.555  1.00  0.00    -0.011 C 
BRANCH  11  13
HETATM   13  C6  UNL     1      15.658 -11.805  18.488  1.00  0.00     0.129 C 
BRANCH  13  14
HETATM   14  C5  UNL     1      17.063 -11.853  18.984  1.00  0.00    -0.102 C 
HETATM   15  C4  UNL     1      18.198 -11.885  19.389  1.00  0.00    -0.106 C 
BRANCH  15  16
HETATM   16  C3  UNL     1      19.580 -11.944  19.861  1.00  0.00     0.093 C 
BRANCH  16  17
HETATM   17  C2  UNL     1      19.841 -13.305  20.508  1.00  0.00     0.007 C 
HETATM   18  C1  UNL     1      20.000 -13.103  22.002  1.00  0.00     0.006 C 
ENDBRANCH  16  17
ENDBRANCH  15  16
ENDBRANCH  13  14
ENDBRANCH  11  13
BRANCH  12  19
HETATM   19  C9  UNL     1      15.633 -12.193  15.563  1.00  0.00     0.112 C 
HETATM   20 BR1  UNL     1      15.936 -13.038  13.840  1.00  0.00    -0.092 Br
ENDBRANCH  12  19
ENDBRANCH  10  11
ENDBRANCH   1  10
BRANCH   9  21
HETATM   21  O3  UNL     1      16.607 -14.670  20.697  1.00  0.00    -0.368 OA
ATOM     22  H3  UNL     1      17.115 -14.989  21.432  1.00  0.00     0.212 HD
ENDBRANCH   9  21
BRANCH   4  23
HETATM   23  C13 UNL     1      12.185 -11.531  21.627  1.00  0.00     0.009 C 
HETATM   24  C14 UNL     1      12.811 -10.214  21.275  1.00  0.00     0.012 C 
HETATM   25  C15 UNL     1      11.420 -11.347  22.915  1.00  0.00     0.012 C 
ENDBRANCH   4  23
TORSDOF 9
ENDMDL
MODEL 3
REMARK VINA RESULT: -6.795287706      1.820      2.205
REMARK  9 active torsions:
REMARK  status: ('A' for Active; 'I' for Inactive)
REMARK    1  A    between atoms: C2_2  and  C3_3 
REMARK    2  A    between atoms: C3_3  and  C4_4 
REMARK    3  A    between atoms: C5_5  and  C6_6 
REMARK    4  A    between atoms: C6_6  and  C7_7 
REMARK    5  A    between atoms: C7_7  and  C10_11 
REMARK    6  A    between atoms: C8_8  and  C9_9 
REMARK    7  A    between atoms: C10_11  and  N1_12 
REMARK    8  A    between atoms: C12_15  and  C13_16 
REMARK    9  A    between atoms: C17_23  and  O3_24 
ROOT
HETATM    1  N1  UNL     1      16.220 -12.724  21.084  1.00  0.00    -0.312 N 
HETATM    2  C11 UNL     1      15.225 -13.677  20.727  1.00  0.00     0.245 C 
HETATM    3  O1  UNL     1      14.818 -14.546  21.530  1.00  0.00    -0.271 OA
HETATM    4  C12 UNL     1      14.629 -13.659  19.355  1.00  0.00     0.180 C 
HETATM    5  N2  UNL     1      15.526 -13.030  18.410  1.00  0.00    -0.344 N 
ATOM      6  H2  UNL     1      15.708 -13.433  17.491  1.00  0.00     0.163 HD
HETATM    7  C16 UNL     1      16.137 -11.825  18.832  1.00  0.00     0.267 C 
HETATM    8  O2  UNL     1      16.646 -11.018  18.019  1.00  0.00    -0.269 OA
HETATM    9  C17 UNL     1      16.178 -11.505  20.275  1.00  0.00     0.317 C 
ENDROOT
BRANCH   1  10
HETATM   10  C10 UNL     1      17.178 -12.922  22.108  1.00  0.00     0.163 C 
BRANCH  10  11
HETATM   11  C7  UNL     1      18.306 -13.828  21.802  1.00  0.00    -0.054 C 
HETATM   12  C8  UNL     1      18.092 -15.124  21.901  1.00  0.00    -0.011 C 
BRANCH  11  13
HETATM   13  C6  UNL     1      19.616 -13.296  21.407  1.00  0.00     0.129 C 
BRANCH  13  14
HETATM   14  C5  UNL     1      20.513 -13.200  22.593  1.00  0.00    -0.102 C 
HETATM   15  C4  UNL     1      21.236 -13.117  23.553  1.00  0.00    -0.106 C 
BRANCH  15  16
HETATM   16  C3  UNL     1      22.128 -13.037  24.708  1.00  0.00     0.093 C 
BRANCH  16  17
HETATM   17  C2  UNL     1      21.435 -13.638  25.932  1.00  0.00     0.007 C 
HETATM   18  C1  UNL     1      20.717 -12.526  26.672  1.00  0.00     0.006 C 
ENDBRANCH  16  17
ENDBRANCH  15  16
ENDBRANCH  13  14
ENDBRANCH  11  13
BRANCH  12  19
HETATM   19  C9  UNL     1      19.082 -16.188  21.645  1.00  0.00     0.112 C 
HETATM   20 BR1  UNL     1      19.755 -16.849  23.343  1.00  0.00    -0.092 Br
ENDBRANCH  12  19
ENDBRANCH  10  11
ENDBRANCH   1  10
BRANCH   9  21
HETATM   21  O3  UNL     1      17.314 -10.771  20.563  1.00  0.00    -0.368 OA
ATOM     22  H3  UNL     1      17.556 -10.296  19.778  1.00  0.00     0.212 HD
ENDBRANCH   9  21
BRANCH   4  23
HETATM   23  C13 UNL     1      14.249 -15.004  18.842  1.00  0.00     0.009 C 
HETATM   24  C14 UNL     1      14.802 -15.345  17.491  1.00  0.00     0.012 C 
HETATM   25  C15 UNL     1      12.755 -15.214  18.793  1.00  0.00     0.012 C 
ENDBRANCH   4  23
TORSDOF 9
ENDMDL
MODEL 4
REMARK VINA RESULT: -6.761918349      2.087      4.041
REMARK  9 active torsions:
REMARK  status: ('A' for Active; 'I' for Inactive)
REMARK    1  A    between atoms: C2_2  and  C3_3 
REMARK    2  A    between atoms: C3_3  and  C4_4 
REMARK    3  A    between atoms: C5_5  and  C6_6 
REMARK    4  A    between atoms: C6_6  and  C7_7 
REMARK    5  A    between atoms: C7_7  and  C10_11 
REMARK    6  A    between atoms: C8_8  and  C9_9 
REMARK    7  A    between atoms: C10_11  and  N1_12 
REMARK    8  A    between atoms: C12_15  and  C13_16 
REMARK    9  A    between atoms: C17_23  and  O3_24 
ROOT
HETATM    1  N1  UNL     1      14.173 -12.749  19.701  1.00  0.00    -0.312 N 
HETATM    2  C11 UNL     1      13.325 -11.679  20.105  1.00  0.00     0.245 C 
HETATM    3  O1  UNL     1      13.429 -10.529  19.622  1.00  0.00    -0.271 OA
HETATM    4  C12 UNL     1      12.267 -11.912  21.136  1.00  0.00     0.180 C 
HETATM    5  N2  UNL     1      12.601 -13.044  21.974  1.00  0.00    -0.344 N 
ATOM      6  H2  UNL     1      12.500 -13.011  22.988  1.00  0.00     0.163 HD
HETATM    7  C16 UNL     1      13.076 -14.199  21.307  1.00  0.00     0.267 C 
HETATM    8  O2  UNL     1      13.073 -15.328  21.851  1.00  0.00    -0.269 OA
HETATM    9  C17 UNL     1      13.591 -14.072  19.927  1.00  0.00     0.317 C 
ENDROOT
BRANCH   1  10
HETATM   10  C10 UNL     1      15.464 -12.572  19.145  1.00  0.00     0.163 C 
BRANCH  10  11
HETATM   11  C7  UNL     1      16.526 -12.105  20.061  1.00  0.00    -0.054 C 
HETATM   12  C8  UNL     1      17.730 -11.921  19.557  1.00  0.00    -0.011 C 
BRANCH  11  13
HETATM   13  C6  UNL     1      16.246 -11.862  21.482  1.00  0.00     0.129 C 
BRANCH  13  14
HETATM   14  C5  UNL     1      16.674 -13.033  22.300  1.00  0.00    -0.102 C 
HETATM   15  C4  UNL     1      17.014 -13.978  22.965  1.00  0.00    -0.106 C 
BRANCH  15  16
HETATM   16  C3  UNL     1      17.451 -15.124  23.760  1.00  0.00     0.093 C 
BRANCH  16  17
HETATM   17  C2  UNL     1      17.706 -14.680  25.201  1.00  0.00     0.007 C 
HETATM   18  C1  UNL     1      18.951 -13.815  25.223  1.00  0.00     0.006 C 
ENDBRANCH  16  17
ENDBRANCH  15  16
ENDBRANCH  13  14
ENDBRANCH  11  13
BRANCH  12  19
HETATM   19  C9  UNL     1      18.921 -11.468  20.301  1.00  0.00     0.112 C 
HETATM   20 BR1  UNL     1      19.988 -13.015  20.792  1.00  0.00    -0.092 Br
ENDBRANCH  12  19
ENDBRANCH  10  11
ENDBRANCH   1  10
BRANCH   9  21
HETATM   21  O3  UNL     1      14.584 -15.010  19.707  1.00  0.00    -0.368 OA
ATOM     22  H3  UNL     1      14.161 -15.843  19.540  1.00  0.00     0.212 HD
ENDBRANCH   9  21
BRANCH   4  23
HETATM   23  C13 UNL     1      11.994 -10.731  22.002  1.00  0.00     0.009 C 
HETATM   24  C14 UNL     1      13.198  -9.903  22.338  1.00  0.00     0.012 C 
HETATM   25  C15 UNL     1      11.311 -11.096  23.296  1.00  0.00     0.012 C 
ENDBRANCH   4  23
TORSDOF 9
ENDMDL
MODEL 5
REMARK VINA RESULT: -6.754139409      2.031      2.660
REMARK  9 active torsions:
REMARK  status: ('A' for Active; 'I' for Inactive)
REMARK    1  A    between atoms: C2_2  and  C3_3 
REMARK    2  A    between atoms: C3_3  and  C4_4 
REMARK    3  A    between atoms: C5_5  and  C6_6 
REMARK    4  A    between atoms: C6_6  and  C7_7 
REMARK    5  A    between atoms: C7_7  and  C10_11 
REMARK    6  A    between atoms: C8_8  and  C9_9 
REMARK    7  A    between atoms: C10_11  and  N1_12 
REMARK    8  A    between atoms: C12_15  and  C13_16 
REMARK    9  A    between atoms: C17_23  and  O3_24 
ROOT
HETATM    1  N1  UNL     1      15.680 -12.627  21.269  1.00  0.00    -0.312 N 
HETATM    2  C11 UNL     1      15.413 -14.003  21.021  1.00  0.00     0.245 C 
HETATM    3  O1  UNL     1      16.290 -14.885  21.152  1.00  0.00    -0.271 OA
HETATM    4  C12 UNL     1      14.047 -14.433  20.590  1.00  0.00     0.180 C 
HETATM    5  N2  UNL     1      13.334 -13.342  19.961  1.00  0.00    -0.344 N 
ATOM      6  H2  UNL     1      12.809 -13.469  19.097  1.00  0.00     0.163 HD
HETATM    7  C16 UNL     1      13.408 -12.088  20.614  1.00  0.00     0.267 C 
HETATM    8  O2  UNL     1      12.586 -11.170  20.383  1.00  0.00    -0.269 OA
HETATM    9  C17 UNL     1      14.484 -11.850  21.598  1.00  0.00     0.317 C 
ENDROOT
BRANCH   1  10
HETATM   10  C10 UNL     1      16.969 -12.043  21.195  1.00  0.00     0.163 C 
BRANCH  10  11
HETATM   11  C7  UNL     1      17.561 -11.901  19.848  1.00  0.00    -0.054 C 
HETATM   12  C8  UNL     1      16.742 -11.672  18.842  1.00  0.00    -0.011 C 
BRANCH  11  13
HETATM   13  C6  UNL     1      19.010 -12.018  19.644  1.00  0.00     0.129 C 
BRANCH  13  14
HETATM   14  C5  UNL     1      19.664 -12.549  20.874  1.00  0.00    -0.102 C 
HETATM   15  C4  UNL     1      20.189 -12.984  21.868  1.00  0.00    -0.106 C 
BRANCH  15  16
HETATM   16  C3  UNL     1      20.831 -13.487  23.081  1.00  0.00     0.093 C 
BRANCH  16  17
HETATM   17  C2  UNL     1      20.040 -13.025  24.306  1.00  0.00     0.007 C 
HETATM   18  C1  UNL     1      21.000 -12.364  25.276  1.00  0.00     0.006 C 
ENDBRANCH  16  17
ENDBRANCH  15  16
ENDBRANCH  13  14
ENDBRANCH  11  13
BRANCH  12  19
HETATM   19  C9  UNL     1      17.131 -11.506  17.428  1.00  0.00     0.112 C 
HETATM   20 BR1  UNL     1      15.609 -11.936  16.299  1.00  0.00    -0.092 Br
ENDBRANCH  12  19
ENDBRANCH  10  11
ENDBRANCH   1  10
BRANCH   9  21
HETATM   21  O3  UNL     1      14.840 -10.513  21.595  1.00  0.00    -0.368 OA
ATOM     22  H3  UNL     1      14.085 -10.015  21.883  1.00  0.00     0.212 HD
ENDBRANCH   9  21
BRANCH   4  23
HETATM   23  C13 UNL     1      14.042 -15.607  19.674  1.00  0.00     0.009 C 
HETATM   24  C14 UNL     1      14.349 -15.291  18.240  1.00  0.00     0.012 C 
HETATM   25  C15 UNL     1      12.744 -16.375  19.708  1.00  0.00     0.012 C 
ENDBRANCH   4  23
TORSDOF 9
ENDMDL
