MODEL 1
REMARK VINA RESULT: -6.733397137      0.000      0.000
REMARK  8 active torsions:
REMARK  status: ('A' for Active; 'I' for Inactive)
REMARK    1  A    between atoms: C3_3  and  C4_4 
REMARK    2  A    between atoms: C7_9  and  N2_10 
REMARK    3  A    between atoms: N2_10  and  C8_12 
REMARK    4  A    between atoms: C8_12  and  C9_13 
REMARK    5  A    between atoms: C9_13  and  C10_15 
REMARK    6  A    between atoms: C10_15  and  N3_16 
REMARK    7  A    between atoms: C14_22  and  N5_23 
REMARK    8  A    between atoms: N5_23  and  C15_25 
ROOT
HETATM    1  C1  UNL     1      11.157 -10.406  24.355  1.00  0.00     0.012 C 
HETATM    2  C2  UNL     1      11.363 -10.908  23.276  1.00  0.00    -0.113 C 
HETATM    3  C3  UNL     1      11.588 -11.529  21.951  1.00  0.00     0.137 C 
ENDROOT
BRANCH   3   4
HETATM    4  C4  UNL     1      12.976 -11.363  21.528  1.00  0.00     0.020 A 
HETATM    5  C5  UNL     1      13.468 -10.139  21.132  1.00  0.00     0.033 A 
HETATM    6  C6  UNL     1      12.608  -8.912  21.114  1.00  0.00     0.069 C 
HETATM    7  N1  UNL     1      14.754 -10.085  20.760  1.00  0.00    -0.195 N 
HETATM    8  C7  UNL     1      15.566 -11.154  20.758  1.00  0.00     0.679 A 
ATOM      9  H1  UNL     1      15.135  -9.187  20.463  1.00  0.00     0.184 HD
HETATM   10  N4  UNL     1      15.095 -12.354  21.143  1.00  0.00    -0.176 N 
HETATM   11  C14 UNL     1      13.814 -12.474  21.527  1.00  0.00     0.126 A 
ATOM     12  H4  UNL     1      15.709 -13.169  21.142  1.00  0.00     0.186 HD
BRANCH   8  13
HETATM   13  N2  UNL     1      16.794 -11.077  20.399  1.00  0.00    -0.225 N 
ATOM     14  H2  UNL     1      17.262 -10.176  20.490  1.00  0.00     0.177 HD
BRANCH  13  15
HETATM   15  C8  UNL     1      17.559 -12.188  19.875  1.00  0.00     0.155 C 
BRANCH  15  16
HETATM   16  C9  UNL     1      18.718 -12.378  20.860  1.00  0.00     0.102 C 
HETATM   17 BR1  UNL     1      20.310 -11.839  19.885  1.00  0.00    -0.088 Br
BRANCH  16  18
HETATM   18  C10 UNL     1      18.787 -13.849  21.216  1.00  0.00     0.253 C 
BRANCH  18  19
HETATM   19  N3  UNL     1      18.778 -14.053  22.646  1.00  0.00    -0.077 N 
HETATM   20  C11 UNL     1      19.209 -15.411  22.986  1.00  0.00     0.271 C 
HETATM   21  C12 UNL     1      19.666 -13.154  23.338  1.00  0.00     0.271 C 
HETATM   22  C13 UNL     1      17.450 -13.895  23.207  1.00  0.00     0.271 C 
ENDBRANCH  18  19
ENDBRANCH  16  18
ENDBRANCH  15  16
ENDBRANCH  13  15
ENDBRANCH   8  13
BRANCH  11  23
HETATM   23  N5  UNL     1      13.391 -13.637  21.891  1.00  0.00    -0.371 N 
ATOM     24  H5  UNL     1      12.967 -13.763  22.810  1.00  0.00     0.161 HD
BRANCH  23  25
HETATM   25  C15 UNL     1      13.520 -14.761  20.994  1.00  0.00     0.083 A 
HETATM   26  C16 UNL     1      12.510 -14.834  19.830  1.00  0.00     0.027 A 
HETATM   27  C17 UNL     1      12.353 -15.774  20.997  1.00  0.00     0.027 A 
ENDBRANCH  23  25
ENDBRANCH  11  23
ENDBRANCH   3   4
TORSDOF 8
ENDMDL
MODEL 2
REMARK VINA RESULT: -6.635379103      1.383      1.712
REMARK  8 active torsions:
REMARK  status: ('A' for Active; 'I' for Inactive)
REMARK    1  A    between atoms: C3_3  and  C4_4 
REMARK    2  A    between atoms: C7_9  and  N2_10 
REMARK    3  A    between atoms: N2_10  and  C8_12 
REMARK    4  A    between atoms: C8_12  and  C9_13 
REMARK    5  A    between atoms: C9_13  and  C10_15 
REMARK    6  A    between atoms: C10_15  and  N3_16 
REMARK    7  A    between atoms: C14_22  and  N5_23 
REMARK    8  A    between atoms: N5_23  and  C15_25 
ROOT
HETATM    1  C1  UNL     1      11.242 -10.407  23.974  1.00  0.00     0.012 C 
HETATM    2  C2  UNL     1      11.558 -10.904  22.920  1.00  0.00    -0.113 C 
HETATM    3  C3  UNL     1      11.920 -11.509  21.618  1.00  0.00     0.137 C 
ENDROOT
BRANCH   3   4
HETATM    4  C4  UNL     1      13.351 -11.796  21.557  1.00  0.00     0.020 A 
HETATM    5  C5  UNL     1      14.280 -10.794  21.384  1.00  0.00     0.033 A 
HETATM    6  C6  UNL     1      13.875  -9.357  21.248  1.00  0.00     0.069 C 
HETATM    7  N1  UNL     1      15.570 -11.154  21.340  1.00  0.00    -0.195 N 
HETATM    8  C7  UNL     1      15.985 -12.425  21.456  1.00  0.00     0.679 A 
ATOM      9  H1  UNL     1      16.272 -10.425  21.210  1.00  0.00     0.184 HD
HETATM   10  N4  UNL     1      15.086 -13.410  21.626  1.00  0.00    -0.176 N 
HETATM   11  C14 UNL     1      13.777 -13.115  21.678  1.00  0.00     0.126 A 
ATOM     12  H4  UNL     1      15.397 -14.377  21.715  1.00  0.00     0.186 HD
BRANCH   8  13
HETATM   13  N2  UNL     1      17.226 -12.744  21.413  1.00  0.00    -0.225 N 
ATOM     14  H2  UNL     1      17.813 -12.284  20.718  1.00  0.00     0.177 HD
BRANCH  13  15
HETATM   15  C8  UNL     1      17.846 -13.715  22.287  1.00  0.00     0.155 C 
BRANCH  15  16
HETATM   16  C9  UNL     1      19.266 -13.188  22.530  1.00  0.00     0.102 C 
HETATM   17 BR1  UNL     1      19.924 -12.669  20.777  1.00  0.00    -0.088 Br
BRANCH  16  18
HETATM   18  C10 UNL     1      20.092 -14.327  23.091  1.00  0.00     0.253 C 
BRANCH  18  19
HETATM   19  N3  UNL     1      20.803 -13.932  24.285  1.00  0.00    -0.077 N 
HETATM   20  C11 UNL     1      21.010 -15.077  25.176  1.00  0.00     0.271 C 
HETATM   21  C12 UNL     1      22.107 -13.391  24.000  1.00  0.00     0.271 C 
HETATM   22  C13 UNL     1      20.064 -12.948  25.053  1.00  0.00     0.271 C 
ENDBRANCH  18  19
ENDBRANCH  16  18
ENDBRANCH  15  16
ENDBRANCH  13  15
ENDBRANCH   8  13
BRANCH  11  23
HETATM   23  N5  UNL     1      12.938 -14.081  21.843  1.00  0.00    -0.371 N 
ATOM     24  H5  UNL     1      12.112 -13.948  22.426  1.00  0.00     0.161 HD
BRANCH  23  25
HETATM   25  C15 UNL     1      13.172 -15.352  21.198  1.00  0.00     0.083 A 
HETATM   26  C16 UNL     1      12.794 -15.449  19.706  1.00  0.00     0.027 A 
HETATM   27  C17 UNL     1      11.916 -16.121  20.729  1.00  0.00     0.027 A 
ENDBRANCH  23  25
ENDBRANCH  11  23
ENDBRANCH   3   4
TORSDOF 8
ENDMDL
MODEL 3
REMARK VINA RESULT: -6.522615053      2.362      6.188
REMARK  8 active torsions:
REMARK  status: ('A' for Active; 'I' for Inactive)
REMARK    1  A    between atoms: C3_3  and  C4_4 
REMARK    2  A    between atoms: C7_9  and  N2_10 
REMARK    3  A    between atoms: N2_10  and  C8_12 
REMARK    4  A    between atoms: C8_12  and  C9_13 
REMARK    5  A    between atoms: C9_13  and  C10_15 
REMARK    6  A    between atoms: C10_15  and  N3_16 
REMARK    7  A    between atoms: C14_22  and  N5_23 
REMARK    8  A    between atoms: N5_23  and  C15_25 
ROOT
HETATM    1  C1  UNL     1      21.550 -13.058  23.733  1.00  0.00     0.012 C 
HETATM    2  C2  UNL     1      20.848 -13.500  22.856  1.00  0.00    -0.113 C 
HETATM    3  C3  UNL     1      20.003 -14.065  21.780  1.00  0.00     0.137 C 
ENDROOT
BRANCH   3   4
HETATM    4  C4  UNL     1      18.863 -13.195  21.503  1.00  0.00     0.020 A 
HETATM    5  C5  UNL     1      18.928 -12.204  20.549  1.00  0.00     0.033 A 
HETATM    6  C6  UNL     1      20.169 -11.964  19.745  1.00  0.00     0.069 C 
HETATM    7  N1  UNL     1      17.832 -11.455  20.366  1.00  0.00    -0.195 N 
HETATM    8  C7  UNL     1      16.696 -11.629  21.060  1.00  0.00     0.679 A 
ATOM      9  H1  UNL     1      17.862 -10.715  19.664  1.00  0.00     0.184 HD
HETATM   10  N4  UNL     1      16.622 -12.594  21.993  1.00  0.00    -0.176 N 
HETATM   11  C14 UNL     1      17.688 -13.379  22.225  1.00  0.00     0.126 A 
ATOM     12  H4  UNL     1      15.762 -12.730  22.523  1.00  0.00     0.186 HD
BRANCH   8  13
HETATM   13  N2  UNL     1      15.659 -10.901  20.865  1.00  0.00    -0.225 N 
ATOM     14  H2  UNL     1      15.777  -9.888  20.884  1.00  0.00     0.177 HD
BRANCH  13  15
HETATM   15  C8  UNL     1      14.333 -11.424  20.620  1.00  0.00     0.155 C 
BRANCH  15  16
HETATM   16  C9  UNL     1      14.545 -12.656  19.733  1.00  0.00     0.102 C 
HETATM   17 BR1  UNL     1      14.856 -11.954  17.948  1.00  0.00    -0.088 Br
BRANCH  16  18
HETATM   18  C10 UNL     1      13.270 -13.475  19.766  1.00  0.00     0.253 C 
BRANCH  18  19
HETATM   19  N3  UNL     1      13.547 -14.887  19.900  1.00  0.00    -0.077 N 
HETATM   20  C11 UNL     1      13.157 -15.615  18.691  1.00  0.00     0.271 C 
HETATM   21  C12 UNL     1      14.946 -15.159  20.112  1.00  0.00     0.271 C 
HETATM   22  C13 UNL     1      12.802 -15.482  20.992  1.00  0.00     0.271 C 
ENDBRANCH  18  19
ENDBRANCH  16  18
ENDBRANCH  15  16
ENDBRANCH  13  15
ENDBRANCH   8  13
BRANCH  11  23
HETATM   23  N5  UNL     1      17.587 -14.297  23.126  1.00  0.00    -0.371 N 
ATOM     24  H5  UNL     1      17.631 -15.281  22.861  1.00  0.00     0.161 HD
BRANCH  23  25
HETATM   25  C15 UNL     1      17.411 -13.927  24.510  1.00  0.00     0.083 A 
HETATM   26  C16 UNL     1      18.602 -14.193  25.453  1.00  0.00     0.027 A 
HETATM   27  C17 UNL     1      17.393 -15.087  25.530  1.00  0.00     0.027 A 
ENDBRANCH  23  25
ENDBRANCH  11  23
ENDBRANCH   3   4
TORSDOF 8
ENDMDL
MODEL 4
REMARK VINA RESULT: -6.348609231      2.478      7.014
REMARK  8 active torsions:
REMARK  status: ('A' for Active; 'I' for Inactive)
REMARK    1  A    between atoms: C3_3  and  C4_4 
REMARK    2  A    between atoms: C7_9  and  N2_10 
REMARK    3  A    between atoms: N2_10  and  C8_12 
REMARK    4  A    between atoms: C8_12  and  C9_13 
REMARK    5  A    between atoms: C9_13  and  C10_15 
REMARK    6  A    between atoms: C10_15  and  N3_16 
REMARK    7  A    between atoms: C14_22  and  N5_23 
REMARK    8  A    between atoms: N5_23  and  C15_25 
ROOT
HETATM    1  C1  UNL     1      20.689 -12.275  25.323  1.00  0.00     0.012 C 
HETATM    2  C2  UNL     1      20.602 -13.196  24.547  1.00  0.00    -0.113 C 
HETATM    3  C3  UNL     1      20.523 -14.331  23.600  1.00  0.00     0.137 C 
ENDROOT
BRANCH   3   4
HETATM    4  C4  UNL     1      19.147 -14.543  23.156  1.00  0.00     0.020 A 
HETATM    5  C5  UNL     1      18.198 -15.093  23.989  1.00  0.00     0.033 A 
HETATM    6  C6  UNL     1      18.524 -15.502  25.394  1.00  0.00     0.069 C 
HETATM    7  N1  UNL     1      16.963 -15.250  23.494  1.00  0.00    -0.195 N 
HETATM    8  C7  UNL     1      16.621 -14.900  22.244  1.00  0.00     0.679 A 
ATOM      9  H1  UNL     1      16.248 -15.657  24.096  1.00  0.00     0.184 HD
HETATM   10  N4  UNL     1      17.540 -14.363  21.423  1.00  0.00    -0.176 N 
HETATM   11  C14 UNL     1      18.797 -14.179  21.860  1.00  0.00     0.126 A 
ATOM     12  H4  UNL     1      17.284 -14.096  20.472  1.00  0.00     0.186 HD
BRANCH   8  13
HETATM   13  N2  UNL     1      15.431 -15.059  21.793  1.00  0.00    -0.225 N 
ATOM     14  H2  UNL     1      14.706 -15.346  22.449  1.00  0.00     0.177 HD
BRANCH  13  15
HETATM   15  C8  UNL     1      15.052 -14.856  20.412  1.00  0.00     0.155 C 
BRANCH  15  16
HETATM   16  C9  UNL     1      13.716 -14.105  20.468  1.00  0.00     0.102 C 
HETATM   17 BR1  UNL     1      12.478 -15.189  19.435  1.00  0.00    -0.088 Br
BRANCH  16  18
HETATM   18  C10 UNL     1      13.916 -12.755  19.810  1.00  0.00     0.253 C 
BRANCH  18  19
HETATM   19  N3  UNL     1      13.864 -11.680  20.773  1.00  0.00    -0.077 N 
HETATM   20  C11 UNL     1      13.331 -10.458  20.168  1.00  0.00     0.271 C 
HETATM   21  C12 UNL     1      13.018 -11.986  21.898  1.00  0.00     0.271 C 
HETATM   22  C13 UNL     1      15.181 -11.342  21.279  1.00  0.00     0.271 C 
ENDBRANCH  18  19
ENDBRANCH  16  18
ENDBRANCH  15  16
ENDBRANCH  13  15
ENDBRANCH   8  13
BRANCH  11  23
HETATM   23  N5  UNL     1      19.657 -13.662  21.049  1.00  0.00    -0.371 N 
ATOM     24  H5  UNL     1      20.501 -14.178  20.802  1.00  0.00     0.161 HD
BRANCH  23  25
HETATM   25  C15 UNL     1      19.421 -12.351  20.494  1.00  0.00     0.083 A 
HETATM   26  C16 UNL     1      19.929 -12.107  19.058  1.00  0.00     0.027 A 
HETATM   27  C17 UNL     1      20.674 -11.492  20.214  1.00  0.00     0.027 A 
ENDBRANCH  23  25
ENDBRANCH  11  23
ENDBRANCH   3   4
TORSDOF 8
ENDMDL
MODEL 5
REMARK VINA RESULT: -6.339105807      2.552      6.410
REMARK  8 active torsions:
REMARK  status: ('A' for Active; 'I' for Inactive)
REMARK    1  A    between atoms: C3_3  and  C4_4 
REMARK    2  A    between atoms: C7_9  and  N2_10 
REMARK    3  A    between atoms: N2_10  and  C8_12 
REMARK    4  A    between atoms: C8_12  and  C9_13 
REMARK    5  A    between atoms: C9_13  and  C10_15 
REMARK    6  A    between atoms: C10_15  and  N3_16 
REMARK    7  A    between atoms: C14_22  and  N5_23 
REMARK    8  A    between atoms: N5_23  and  C15_25 
ROOT
HETATM    1  C1  UNL     1      21.523 -13.017  23.939  1.00  0.00     0.012 C 
HETATM    2  C2  UNL     1      20.932 -13.421  22.967  1.00  0.00    -0.113 C 
HETATM    3  C3  UNL     1      20.224 -13.938  21.773  1.00  0.00     0.137 C 
ENDROOT
BRANCH   3   4
HETATM    4  C4  UNL     1      19.037 -13.136  21.484  1.00  0.00     0.020 A 
HETATM    5  C5  UNL     1      19.060 -12.127  20.548  1.00  0.00     0.033 A 
HETATM    6  C6  UNL     1      20.301 -11.795  19.776  1.00  0.00     0.069 C 
HETATM    7  N1  UNL     1      17.923 -11.445  20.353  1.00  0.00    -0.195 N 
HETATM    8  C7  UNL     1      16.786 -11.702  21.018  1.00  0.00     0.679 A 
ATOM      9  H1  UNL     1      17.922 -10.693  19.664  1.00  0.00     0.184 HD
HETATM   10  N4  UNL     1      16.753 -12.686  21.933  1.00  0.00    -0.176 N 
HETATM   11  C14 UNL     1      17.861 -13.406  22.176  1.00  0.00     0.126 A 
ATOM     12  H4  UNL     1      15.892 -12.885  22.442  1.00  0.00     0.186 HD
BRANCH   8  13
HETATM   13  N2  UNL     1      15.709 -11.037  20.811  1.00  0.00    -0.225 N 
ATOM     14  H2  UNL     1      15.633 -10.511  19.942  1.00  0.00     0.177 HD
BRANCH  13  15
HETATM   15  C8  UNL     1      14.596 -10.987  21.733  1.00  0.00     0.155 C 
BRANCH  15  16
HETATM   16  C9  UNL     1      13.443 -11.693  21.010  1.00  0.00     0.102 C 
HETATM   17 BR1  UNL     1      11.826 -11.036  21.864  1.00  0.00    -0.088 Br
BRANCH  16  18
HETATM   18  C10 UNL     1      13.596 -13.183  21.240  1.00  0.00     0.253 C 
BRANCH  18  19
HETATM   19  N3  UNL     1      13.650 -13.911  19.994  1.00  0.00    -0.077 N 
HETATM   20  C11 UNL     1      14.677 -14.955  20.039  1.00  0.00     0.271 C 
HETATM   21  C12 UNL     1      12.406 -14.570  19.684  1.00  0.00     0.271 C 
HETATM   22  C13 UNL     1      13.994 -13.051  18.878  1.00  0.00     0.271 C 
ENDBRANCH  18  19
ENDBRANCH  16  18
ENDBRANCH  15  16
ENDBRANCH  13  15
ENDBRANCH   8  13
BRANCH  11  23
HETATM   23  N5  UNL     1      17.799 -14.344  23.061  1.00  0.00    -0.371 N 
ATOM     24  H5  UNL     1      17.993 -15.310  22.796  1.00  0.00     0.161 HD
BRANCH  23  25
HETATM   25  C15 UNL     1      17.455 -14.022  24.425  1.00  0.00     0.083 A 
HETATM   26  C16 UNL     1      18.546 -14.267  25.488  1.00  0.00     0.027 A 
HETATM   27  C17 UNL     1      17.376 -15.212  25.408  1.00  0.00     0.027 A 
ENDBRANCH  23  25
ENDBRANCH  11  23
ENDBRANCH   3   4
TORSDOF 8
ENDMDL
