MODEL 1
REMARK VINA RESULT: -9.145953365      0.000      0.000
REMARK  11 active torsions:
REMARK  status: ('A' for Active; 'I' for Inactive)
REMARK    1  A    between atoms: C2_2  and  C3_3 
REMARK    2  A    between atoms: C4_4  and  N1_5 
REMARK    3  A    between atoms: C5_10  and  O3_11 
REMARK    4  A    between atoms: C6_13  and  N3_14 
REMARK    5  A    between atoms: N3_14  and  C7_16 
REMARK    6  A    between atoms: C7_16  and  C8_17 
REMARK    7  A    between atoms: C9_18  and  O4_19 
REMARK    8  A    between atoms: C10_21  and  O5_22 
REMARK    9  A    between atoms: C13_26  and  O6_27 
REMARK   10  A    between atoms: C14_29  and  C15_30 
REMARK   11  A    between atoms: C15_30  and  C16_31 
ROOT
HETATM    1  C8  UNL     1      14.574  56.171  37.837  1.00  0.00     0.005 A 
HETATM    2  C9  UNL     1      13.982  57.112  36.998  1.00  0.00     0.108 A 
HETATM    3  C10 UNL     1      13.547  58.332  37.464  1.00  0.00     0.108 A 
HETATM    4  C11 UNL     1      13.692  58.671  38.784  1.00  0.00     0.008 A 
HETATM    5  C12 UNL     1      13.262  60.020  39.255  1.00  0.00     0.054 C 
HETATM    6  C13 UNL     1      14.276  57.746  39.631  1.00  0.00     0.081 A 
HETATM    7  C14 UNL     1      14.717  56.485  39.151  1.00  0.00    -0.010 A 
ENDROOT
BRANCH   1   8
HETATM    8  C7  UNL     1      14.777  54.872  37.197  1.00  0.00     0.162 C 
BRANCH   8   9
HETATM    9  N3  UNL     1      16.006  54.647  36.460  1.00  0.00    -0.381 N 
ATOM     10  H3  UNL     1      16.087  54.747  35.448  1.00  0.00     0.160 HD
BRANCH   9  11
HETATM   11  C6  UNL     1      17.121  54.259  37.336  1.00  0.00     0.093 A 
HETATM   12  C3  UNL     1      18.238  55.047  37.682  1.00  0.00     0.041 A 
HETATM   13  C4  UNL     1      18.921  54.306  38.575  1.00  0.00     0.188 A 
HETATM   14  N2  UNL     1      18.269  53.090  38.794  1.00  0.00    -0.316 N 
HETATM   15  C5  UNL     1      17.172  53.096  38.022  1.00  0.00     0.170 A 
ATOM     16  H2  UNL     1      18.570  52.343  39.421  1.00  0.00     0.169 HD
BRANCH  12  17
HETATM   17  C2  UNL     1      18.313  56.372  37.080  1.00  0.00    -0.013 C 
HETATM   18  C1  UNL     1      18.964  56.629  35.796  1.00  0.00     0.037 C 
ENDBRANCH  12  17
BRANCH  13  19
HETATM   19  N1  UNL     1      20.136  54.568  39.226  1.00  0.00    -0.097 N 
HETATM   20  O1  UNL     1      21.139  54.848  38.506  1.00  0.00    -0.530 OA
HETATM   21  O2  UNL     1      20.367  54.561  40.541  1.00  0.00    -0.530 OA
ENDBRANCH  13  19
BRANCH  15  22
HETATM   22  O3  UNL     1      16.244  52.025  37.985  1.00  0.00    -0.344 OA
ATOM     23  H3  UNL     1      15.469  52.027  37.436  1.00  0.00     0.219 HD
ENDBRANCH  15  22
ENDBRANCH   9  11
ENDBRANCH   8   9
ENDBRANCH   1   8
BRANCH   2  24
HETATM   24  O4  UNL     1      13.818  56.865  35.628  1.00  0.00    -0.357 OA
ATOM     25  H4  UNL     1      13.093  57.239  35.142  1.00  0.00     0.217 HD
ENDBRANCH   2  24
BRANCH   7  26
HETATM   26  C15 UNL     1      15.310  55.542  40.144  1.00  0.00     0.069 C 
BRANCH  26  27
HETATM   27  C16 UNL     1      14.542  54.290  40.321  1.00  0.00    -0.020 C 
HETATM   28  C17 UNL     1      13.553  54.124  41.146  1.00  0.00    -0.091 C 
HETATM   29  C18 UNL     1      12.872  52.816  41.216  1.00  0.00     0.042 C 
HETATM   30  C19 UNL     1      12.999  55.232  41.962  1.00  0.00     0.042 C 
ENDBRANCH  26  27
ENDBRANCH   7  26
BRANCH   3  31
HETATM   31  O5  UNL     1      12.955  59.235  36.589  1.00  0.00    -0.357 OA
ATOM     32  H5  UNL     1      12.012  59.353  36.600  1.00  0.00     0.217 HD
ENDBRANCH   3  31
BRANCH   6  33
HETATM   33  O6  UNL     1      14.440  58.029  40.911  1.00  0.00    -0.359 OA
ATOM     34  H6  UNL     1      14.376  57.342  41.563  1.00  0.00     0.217 HD
ENDBRANCH   6  33
TORSDOF 11
ENDMDL
MODEL 2
REMARK VINA RESULT: -9.001792487      1.203      1.996
REMARK  11 active torsions:
REMARK  status: ('A' for Active; 'I' for Inactive)
REMARK    1  A    between atoms: C2_2  and  C3_3 
REMARK    2  A    between atoms: C4_4  and  N1_5 
REMARK    3  A    between atoms: C5_10  and  O3_11 
REMARK    4  A    between atoms: C6_13  and  N3_14 
REMARK    5  A    between atoms: N3_14  and  C7_16 
REMARK    6  A    between atoms: C7_16  and  C8_17 
REMARK    7  A    between atoms: C9_18  and  O4_19 
REMARK    8  A    between atoms: C10_21  and  O5_22 
REMARK    9  A    between atoms: C13_26  and  O6_27 
REMARK   10  A    between atoms: C14_29  and  C15_30 
REMARK   11  A    between atoms: C15_30  and  C16_31 
ROOT
HETATM    1  C8  UNL     1      14.637  56.128  37.892  1.00  0.00     0.005 A 
HETATM    2  C9  UNL     1      14.069  57.062  37.028  1.00  0.00     0.108 A 
HETATM    3  C10 UNL     1      13.631  58.290  37.470  1.00  0.00     0.108 A 
HETATM    4  C11 UNL     1      13.750  58.644  38.788  1.00  0.00     0.008 A 
HETATM    5  C12 UNL     1      13.318  60.002  39.232  1.00  0.00     0.054 C 
HETATM    6  C13 UNL     1      14.310  57.727  39.658  1.00  0.00     0.081 A 
HETATM    7  C14 UNL     1      14.754  56.458  39.204  1.00  0.00    -0.010 A 
ENDROOT
BRANCH   1   8
HETATM    8  C7  UNL     1      14.845  54.819  37.272  1.00  0.00     0.162 C 
BRANCH   8   9
HETATM    9  N3  UNL     1      15.885  54.685  36.270  1.00  0.00    -0.381 N 
ATOM     10  H3  UNL     1      15.713  54.381  35.311  1.00  0.00     0.160 HD
BRANCH   9  11
HETATM   11  C6  UNL     1      17.214  55.038  36.791  1.00  0.00     0.093 A 
HETATM   12  C3  UNL     1      17.984  54.301  37.713  1.00  0.00     0.041 A 
HETATM   13  C4  UNL     1      19.151  54.968  37.799  1.00  0.00     0.188 A 
HETATM   14  N2  UNL     1      19.132  56.088  36.966  1.00  0.00    -0.316 N 
HETATM   15  C5  UNL     1      17.933  56.100  36.363  1.00  0.00     0.170 A 
ATOM     16  H2  UNL     1      19.884  56.765  36.840  1.00  0.00     0.169 HD
BRANCH  12  17
HETATM   17  C2  UNL     1      17.384  53.079  38.233  1.00  0.00    -0.013 C 
HETATM   18  C1  UNL     1      17.681  52.549  39.565  1.00  0.00     0.037 C 
ENDBRANCH  12  17
BRANCH  13  19
HETATM   19  N1  UNL     1      20.277  54.717  38.598  1.00  0.00    -0.097 N 
HETATM   20  O1  UNL     1      20.926  53.652  38.381  1.00  0.00    -0.530 OA
HETATM   21  O2  UNL     1      20.760  55.485  39.578  1.00  0.00    -0.530 OA
ENDBRANCH  13  19
BRANCH  15  22
HETATM   22  O3  UNL     1      17.546  57.090  35.425  1.00  0.00    -0.344 OA
ATOM     23  H3  UNL     1      18.129  57.776  35.123  1.00  0.00     0.219 HD
ENDBRANCH  15  22
ENDBRANCH   9  11
ENDBRANCH   8   9
ENDBRANCH   1   8
BRANCH   2  24
HETATM   24  O4  UNL     1      13.932  56.798  35.658  1.00  0.00    -0.357 OA
ATOM     25  H4  UNL     1      14.615  57.031  35.040  1.00  0.00     0.217 HD
ENDBRANCH   2  24
BRANCH   7  26
HETATM   26  C15 UNL     1      15.319  55.524  40.221  1.00  0.00     0.069 C 
BRANCH  26  27
HETATM   27  C16 UNL     1      14.554  54.267  40.379  1.00  0.00    -0.020 C 
HETATM   28  C17 UNL     1      13.542  54.098  41.174  1.00  0.00    -0.091 C 
HETATM   29  C18 UNL     1      12.867  52.786  41.228  1.00  0.00     0.042 C 
HETATM   30  C19 UNL     1      12.956  55.204  41.969  1.00  0.00     0.042 C 
ENDBRANCH  26  27
ENDBRANCH   7  26
BRANCH   3  31
HETATM   31  O5  UNL     1      13.063  59.185  36.571  1.00  0.00    -0.357 OA
ATOM     32  H5  UNL     1      12.120  59.300  36.552  1.00  0.00     0.217 HD
ENDBRANCH   3  31
BRANCH   6  33
HETATM   33  O6  UNL     1      14.448  58.025  40.938  1.00  0.00    -0.359 OA
ATOM     34  H6  UNL     1      13.781  57.765  41.562  1.00  0.00     0.217 HD
ENDBRANCH   6  33
TORSDOF 11
ENDMDL
MODEL 3
REMARK VINA RESULT: -8.785887031      2.044      2.586
REMARK  11 active torsions:
REMARK  status: ('A' for Active; 'I' for Inactive)
REMARK    1  A    between atoms: C2_2  and  C3_3 
REMARK    2  A    between atoms: C4_4  and  N1_5 
REMARK    3  A    between atoms: C5_10  and  O3_11 
REMARK    4  A    between atoms: C6_13  and  N3_14 
REMARK    5  A    between atoms: N3_14  and  C7_16 
REMARK    6  A    between atoms: C7_16  and  C8_17 
REMARK    7  A    between atoms: C9_18  and  O4_19 
REMARK    8  A    between atoms: C10_21  and  O5_22 
REMARK    9  A    between atoms: C13_26  and  O6_27 
REMARK   10  A    between atoms: C14_29  and  C15_30 
REMARK   11  A    between atoms: C15_30  and  C16_31 
ROOT
HETATM    1  C8  UNL     1      15.129  54.695  38.431  1.00  0.00     0.005 A 
HETATM    2  C9  UNL     1      15.056  55.027  37.079  1.00  0.00     0.108 A 
HETATM    3  C10 UNL     1      14.719  56.294  36.658  1.00  0.00     0.108 A 
HETATM    4  C11 UNL     1      14.450  57.286  37.564  1.00  0.00     0.008 A 
HETATM    5  C12 UNL     1      14.140  58.665  37.083  1.00  0.00     0.054 C 
HETATM    6  C13 UNL     1      14.517  56.972  38.909  1.00  0.00     0.081 A 
HETATM    7  C14 UNL     1      14.856  55.664  39.343  1.00  0.00    -0.010 A 
ENDROOT
BRANCH   1   8
HETATM    8  C7  UNL     1      15.299  53.262  38.665  1.00  0.00     0.162 C 
BRANCH   8   9
HETATM    9  N3  UNL     1      16.408  52.822  39.489  1.00  0.00    -0.381 N 
ATOM     10  H3  UNL     1      16.444  52.937  40.502  1.00  0.00     0.160 HD
BRANCH   9  11
HETATM   11  C6  UNL     1      17.476  52.190  38.699  1.00  0.00     0.093 A 
HETATM   12  C3  UNL     1      18.665  52.797  38.245  1.00  0.00     0.041 A 
HETATM   13  C4  UNL     1      19.361  51.802  37.663  1.00  0.00     0.188 A 
HETATM   14  N2  UNL     1      18.649  50.604  37.740  1.00  0.00    -0.316 N 
HETATM   15  C5  UNL     1      17.502  50.877  38.381  1.00  0.00     0.170 A 
ATOM     16  H2  UNL     1      18.944  49.697  37.379  1.00  0.00     0.169 HD
BRANCH  12  17
HETATM   17  C2  UNL     1      18.837  54.209  38.560  1.00  0.00    -0.013 C 
HETATM   18  C1  UNL     1      18.804  55.263  37.545  1.00  0.00     0.037 C 
ENDBRANCH  12  17
BRANCH  13  19
HETATM   19  N1  UNL     1      20.597  51.832  37.000  1.00  0.00    -0.097 N 
HETATM   20  O1  UNL     1      21.583  51.281  37.572  1.00  0.00    -0.530 OA
HETATM   21  O2  UNL     1      20.864  52.380  35.813  1.00  0.00    -0.530 OA
ENDBRANCH  13  19
BRANCH  15  22
HETATM   22  O3  UNL     1      16.517  49.896  38.661  1.00  0.00    -0.344 OA
ATOM     23  H3  UNL     1      15.762  49.744  38.106  1.00  0.00     0.219 HD
ENDBRANCH  15  22
ENDBRANCH   9  11
ENDBRANCH   8   9
ENDBRANCH   1   8
BRANCH   2  24
HETATM   24  O4  UNL     1      15.341  54.085  36.082  1.00  0.00    -0.357 OA
ATOM     25  H4  UNL     1      15.417  54.339  35.170  1.00  0.00     0.217 HD
ENDBRANCH   2  24
BRANCH   7  26
HETATM   26  C15 UNL     1      14.876  55.412  40.814  1.00  0.00     0.069 C 
BRANCH  26  27
HETATM   27  C16 UNL     1      13.625  54.823  41.343  1.00  0.00    -0.020 C 
HETATM   28  C17 UNL     1      12.862  55.363  42.243  1.00  0.00    -0.091 C 
HETATM   29  C18 UNL     1      11.637  54.662  42.678  1.00  0.00     0.042 C 
HETATM   30  C19 UNL     1      13.110  56.717  42.794  1.00  0.00     0.042 C 
ENDBRANCH  26  27
ENDBRANCH   7  26
BRANCH   3  31
HETATM   31  O5  UNL     1      14.650  56.574  35.299  1.00  0.00    -0.357 OA
ATOM     32  H5  UNL     1      14.322  57.416  35.007  1.00  0.00     0.217 HD
ENDBRANCH   3  31
BRANCH   6  33
HETATM   33  O6  UNL     1      14.269  57.896  39.820  1.00  0.00    -0.359 OA
ATOM     34  H6  UNL     1      14.598  57.795  40.704  1.00  0.00     0.217 HD
ENDBRANCH   6  33
TORSDOF 11
ENDMDL
MODEL 4
REMARK VINA RESULT: -8.736771277      2.141      4.157
REMARK  11 active torsions:
REMARK  status: ('A' for Active; 'I' for Inactive)
REMARK    1  A    between atoms: C2_2  and  C3_3 
REMARK    2  A    between atoms: C4_4  and  N1_5 
REMARK    3  A    between atoms: C5_10  and  O3_11 
REMARK    4  A    between atoms: C6_13  and  N3_14 
REMARK    5  A    between atoms: N3_14  and  C7_16 
REMARK    6  A    between atoms: C7_16  and  C8_17 
REMARK    7  A    between atoms: C9_18  and  O4_19 
REMARK    8  A    between atoms: C10_21  and  O5_22 
REMARK    9  A    between atoms: C13_26  and  O6_27 
REMARK   10  A    between atoms: C14_29  and  C15_30 
REMARK   11  A    between atoms: C15_30  and  C16_31 
ROOT
HETATM    1  C8  UNL     1      14.739  54.569  38.937  1.00  0.00     0.005 A 
HETATM    2  C9  UNL     1      14.361  54.739  40.267  1.00  0.00     0.108 A 
HETATM    3  C10 UNL     1      14.166  55.987  40.814  1.00  0.00     0.108 A 
HETATM    4  C11 UNL     1      14.328  57.118  40.058  1.00  0.00     0.008 A 
HETATM    5  C12 UNL     1      14.057  58.457  40.659  1.00  0.00     0.054 C 
HETATM    6  C13 UNL     1      14.704  56.966  38.736  1.00  0.00     0.081 A 
HETATM    7  C14 UNL     1      14.914  55.679  38.174  1.00  0.00    -0.010 A 
ENDROOT
BRANCH   1   8
HETATM    8  C7  UNL     1      15.093  53.188  38.609  1.00  0.00     0.162 C 
BRANCH   8   9
HETATM    9  N3  UNL     1      16.081  52.513  39.428  1.00  0.00    -0.381 N 
ATOM     10  H3  UNL     1      15.985  52.375  40.434  1.00  0.00     0.160 HD
BRANCH   9  11
HETATM   11  C6  UNL     1      17.236  52.050  38.645  1.00  0.00     0.093 A 
HETATM   12  C3  UNL     1      18.466  52.718  38.476  1.00  0.00     0.041 A 
HETATM   13  C4  UNL     1      19.230  51.863  37.770  1.00  0.00     0.188 A 
HETATM   14  N2  UNL     1      18.520  50.692  37.497  1.00  0.00    -0.316 N 
HETATM   15  C5  UNL     1      17.306  50.840  38.047  1.00  0.00     0.170 A 
ATOM     16  H2  UNL     1      18.860  49.882  36.979  1.00  0.00     0.169 HD
BRANCH  12  17
HETATM   17  C2  UNL     1      18.593  54.022  39.115  1.00  0.00    -0.013 C 
HETATM   18  C1  UNL     1      19.872  54.717  39.262  1.00  0.00     0.037 C 
ENDBRANCH  12  17
BRANCH  13  19
HETATM   19  N1  UNL     1      20.535  52.013  37.276  1.00  0.00    -0.097 N 
HETATM   20  O1  UNL     1      20.711  52.830  36.325  1.00  0.00    -0.530 OA
HETATM   21  O2  UNL     1      21.637  51.390  37.699  1.00  0.00    -0.530 OA
ENDBRANCH  13  19
BRANCH  15  22
HETATM   22  O3  UNL     1      16.300  49.842  37.989  1.00  0.00    -0.344 OA
ATOM     23  H3  UNL     1      16.099  49.264  38.714  1.00  0.00     0.219 HD
ENDBRANCH  15  22
ENDBRANCH   9  11
ENDBRANCH   8   9
ENDBRANCH   1   8
BRANCH   2  24
HETATM   24  O4  UNL     1      14.145  53.639  41.109  1.00  0.00    -0.357 OA
ATOM     25  H4  UNL     1      13.632  53.720  41.905  1.00  0.00     0.217 HD
ENDBRANCH   2  24
BRANCH   7  26
HETATM   26  C15 UNL     1      15.345  55.615  36.747  1.00  0.00     0.069 C 
BRANCH  26  27
HETATM   27  C16 UNL     1      16.727  56.090  36.512  1.00  0.00    -0.020 C 
HETATM   28  C17 UNL     1      17.669  55.407  35.934  1.00  0.00    -0.091 C 
HETATM   29  C18 UNL     1      19.006  56.009  35.762  1.00  0.00     0.042 C 
HETATM   30  C19 UNL     1      17.436  54.069  35.339  1.00  0.00     0.042 C 
ENDBRANCH  26  27
ENDBRANCH   7  26
BRANCH   3  31
HETATM   31  O5  UNL     1      13.798  56.106  42.150  1.00  0.00    -0.357 OA
ATOM     32  H5  UNL     1      13.094  56.695  42.394  1.00  0.00     0.217 HD
ENDBRANCH   3  31
BRANCH   6  33
HETATM   33  O6  UNL     1      14.870  58.027  37.967  1.00  0.00    -0.359 OA
ATOM     34  H6  UNL     1      14.803  57.947  37.023  1.00  0.00     0.217 HD
ENDBRANCH   6  33
TORSDOF 11
ENDMDL
MODEL 5
REMARK VINA RESULT: -8.722614318      2.387      3.098
REMARK  11 active torsions:
REMARK  status: ('A' for Active; 'I' for Inactive)
REMARK    1  A    between atoms: C2_2  and  C3_3 
REMARK    2  A    between atoms: C4_4  and  N1_5 
REMARK    3  A    between atoms: C5_10  and  O3_11 
REMARK    4  A    between atoms: C6_13  and  N3_14 
REMARK    5  A    between atoms: N3_14  and  C7_16 
REMARK    6  A    between atoms: C7_16  and  C8_17 
REMARK    7  A    between atoms: C9_18  and  O4_19 
REMARK    8  A    between atoms: C10_21  and  O5_22 
REMARK    9  A    between atoms: C13_26  and  O6_27 
REMARK   10  A    between atoms: C14_29  and  C15_30 
REMARK   11  A    between atoms: C15_30  and  C16_31 
ROOT
HETATM    1  C8  UNL     1      14.839  57.226  37.992  1.00  0.00     0.005 A 
HETATM    2  C9  UNL     1      14.370  57.990  36.925  1.00  0.00     0.108 A 
HETATM    3  C10 UNL     1      13.414  58.966  37.094  1.00  0.00     0.108 A 
HETATM    4  C11 UNL     1      12.891  59.230  38.334  1.00  0.00     0.008 A 
HETATM    5  C12 UNL     1      11.896  60.329  38.500  1.00  0.00     0.054 C 
HETATM    6  C13 UNL     1      13.345  58.478  39.402  1.00  0.00     0.081 A 
HETATM    7  C14 UNL     1      14.325  57.467  39.226  1.00  0.00    -0.010 A 
ENDROOT
BRANCH   1   8
HETATM    8  C7  UNL     1      15.693  56.114  37.574  1.00  0.00     0.162 C 
BRANCH   8   9
HETATM    9  N3  UNL     1      15.084  54.998  36.876  1.00  0.00    -0.381 N 
ATOM     10  H3  UNL     1      14.164  55.038  36.436  1.00  0.00     0.160 HD
BRANCH   9  11
HETATM   11  C6  UNL     1      15.941  53.804  36.874  1.00  0.00     0.093 A 
HETATM   12  C3  UNL     1      15.857  52.700  37.748  1.00  0.00     0.041 A 
HETATM   13  C4  UNL     1      16.776  51.827  37.292  1.00  0.00     0.188 A 
HETATM   14  N2  UNL     1      17.425  52.349  36.171  1.00  0.00    -0.316 N 
HETATM   15  C5  UNL     1      16.889  53.558  35.943  1.00  0.00     0.170 A 
ATOM     16  H2  UNL     1      18.163  51.898  35.631  1.00  0.00     0.169 HD
BRANCH  12  17
HETATM   17  C2  UNL     1      14.835  52.766  38.784  1.00  0.00    -0.013 C 
HETATM   18  C1  UNL     1      15.091  52.407  40.180  1.00  0.00     0.037 C 
ENDBRANCH  12  17
BRANCH  13  19
HETATM   19  N1  UNL     1      17.161  50.576  37.796  1.00  0.00    -0.097 N 
HETATM   20  O1  UNL     1      18.367  50.433  38.153  1.00  0.00    -0.530 OA
HETATM   21  O2  UNL     1      16.393  49.496  37.951  1.00  0.00    -0.530 OA
ENDBRANCH  13  19
BRANCH  15  22
HETATM   22  O3  UNL     1      17.288  54.393  34.869  1.00  0.00    -0.344 OA
ATOM     23  H3  UNL     1      16.885  55.233  34.686  1.00  0.00     0.219 HD
ENDBRANCH  15  22
ENDBRANCH   9  11
ENDBRANCH   8   9
ENDBRANCH   1   8
BRANCH   2  24
HETATM   24  O4  UNL     1      14.866  57.811  35.627  1.00  0.00    -0.357 OA
ATOM     25  H4  UNL     1      15.554  58.367  35.280  1.00  0.00     0.217 HD
ENDBRANCH   2  24
BRANCH   7  26
HETATM   26  C15 UNL     1      14.733  56.689  40.432  1.00  0.00     0.069 C 
BRANCH  26  27
HETATM   27  C16 UNL     1      13.789  55.613  40.806  1.00  0.00    -0.020 C 
HETATM   28  C17 UNL     1      13.183  55.508  41.950  1.00  0.00    -0.091 C 
HETATM   29  C18 UNL     1      12.260  54.380  42.187  1.00  0.00     0.042 C 
HETATM   30  C19 UNL     1      13.297  56.536  43.012  1.00  0.00     0.042 C 
ENDBRANCH  26  27
ENDBRANCH   7  26
BRANCH   3  31
HETATM   31  O5  UNL     1      12.971  59.696  35.998  1.00  0.00    -0.357 OA
ATOM     32  H5  UNL     1      12.411  60.453  36.129  1.00  0.00     0.217 HD
ENDBRANCH   3  31
BRANCH   6  33
HETATM   33  O6  UNL     1      12.873  58.698  40.616  1.00  0.00    -0.359 OA
ATOM     34  H6  UNL     1      12.767  57.976  41.224  1.00  0.00     0.217 HD
ENDBRANCH   6  33
TORSDOF 11
ENDMDL
