MODEL 1
REMARK VINA RESULT: -8.627191945      0.000      0.000
REMARK  12 active torsions:
REMARK  status: ('A' for Active; 'I' for Inactive)
REMARK    1  A    between atoms: C3_3  and  O1_4 
REMARK    2  A    between atoms: C6_8  and  O2_9 
REMARK    3  A    between atoms: C7_11  and  S1_12 
REMARK    4  A    between atoms: S1_12  and  C8_13 
REMARK    5  A    between atoms: C8_13  and  C9_14 
REMARK    6  A    between atoms: C10_15  and  C11_16 
REMARK    7  A    between atoms: C11_16  and  C12_17 
REMARK    8  A    between atoms: C12_17  and  C13_18 
REMARK    9  A    between atoms: C13_18  and  C14_19 
REMARK   10  A    between atoms: C14_19  and  C15_20 
REMARK   11  A    between atoms: C15_20  and  N2_24 
REMARK   12  A    between atoms: N2_24  and  N3_26 
ROOT
HETATM    1  C1  UNL     1      19.830  53.992  38.437  1.00  0.00     0.052 C 
HETATM    2  C2  UNL     1      18.396  54.385  38.188  1.00  0.00    -0.009 A 
HETATM    3  C3  UNL     1      18.121  55.476  37.392  1.00  0.00     0.081 A 
HETATM    4  C4  UNL     1      16.832  55.910  37.123  1.00  0.00     0.005 A 
HETATM    5  C5  UNL     1      15.762  55.230  37.668  1.00  0.00     0.072 A 
HETATM    6  C6  UNL     1      16.032  54.149  38.456  1.00  0.00     0.110 A 
HETATM    7  C7  UNL     1      17.332  53.702  38.733  1.00  0.00     0.045 A 
HETATM    8  N4  UNL     1      14.430  55.678  37.394  1.00  0.00    -0.379 N 
ATOM      9  H4  UNL     1      13.639  55.035  37.395  1.00  0.00     0.160 HD
HETATM   10  C16 UNL     1      14.258  57.109  37.112  1.00  0.00     0.023 C 
HETATM   11  C17 UNL     1      12.859  57.400  36.660  1.00  0.00     0.038 C 
HETATM   12  C18 UNL     1      14.502  57.920  38.375  1.00  0.00     0.038 C 
HETATM   13  C19 UNL     1      15.218  57.463  36.030  1.00  0.00     0.035 C 
HETATM   14  C20 UNL     1      16.638  57.091  36.260  1.00  0.00     0.046 C 
ENDROOT
BRANCH   7  15
HETATM   15  S1  UNL     1      17.610  52.294  39.754  1.00  0.00    -0.123 SA
BRANCH  15  16
HETATM   16  C8  UNL     1      17.271  50.784  38.859  1.00  0.00     0.106 C 
BRANCH  16  17
HETATM   17  C9  UNL     1      17.542  50.844  37.416  1.00  0.00    -0.020 C 
HETATM   18  C10 UNL     1      18.783  50.942  36.984  1.00  0.00    -0.030 C 
BRANCH  18  19
HETATM   19  C11 UNL     1      19.173  51.009  35.556  1.00  0.00     0.027 C 
BRANCH  19  20
HETATM   20  C12 UNL     1      20.474  51.752  35.363  1.00  0.00     0.004 C 
BRANCH  20  21
HETATM   21  C13 UNL     1      21.630  50.860  35.063  1.00  0.00     0.008 C 
BRANCH  21  22
HETATM   22  C14 UNL     1      21.945  50.702  33.608  1.00  0.00     0.077 C 
BRANCH  22  23
HETATM   23  C15 UNL     1      21.517  49.395  33.072  1.00  0.00     0.088 C 
HETATM   24  N1  UNL     1      22.311  48.723  32.319  1.00  0.00    -0.388 N 
ATOM     25  H12 UNL     1      23.232  49.104  32.100  1.00  0.00     0.157 HD
ATOM     26  H11 UNL     1      22.016  47.819  31.949  1.00  0.00     0.157 HD
BRANCH  23  27
HETATM   27  N2  UNL     1      20.239  48.865  33.375  1.00  0.00    -0.296 N 
ATOM     28  H2  UNL     1      19.573  49.430  33.901  1.00  0.00     0.187 HD
BRANCH  27  29
HETATM   29  N3  UNL     1      19.877  47.581  32.965  1.00  0.00    -0.344 N 
ATOM     30  H32 UNL     1      19.230  47.485  32.183  1.00  0.00     0.176 HD
ATOM     31  H31 UNL     1      20.248  46.755  33.435  1.00  0.00     0.176 HD
ENDBRANCH  27  29
ENDBRANCH  23  27
ENDBRANCH  22  23
ENDBRANCH  21  22
ENDBRANCH  20  21
ENDBRANCH  19  20
ENDBRANCH  18  19
ENDBRANCH  16  17
ENDBRANCH  15  16
ENDBRANCH   7  15
BRANCH   6  32
HETATM   32  O2  UNL     1      14.931  53.472  39.000  1.00  0.00    -0.357 OA
ATOM     33  H2  UNL     1      15.017  52.532  39.110  1.00  0.00     0.217 HD
ENDBRANCH   6  32
BRANCH   3  34
HETATM   34  O1  UNL     1      19.208  56.172  36.834  1.00  0.00    -0.359 OA
ATOM     35  H1  UNL     1      19.021  56.833  36.177  1.00  0.00     0.217 HD
ENDBRANCH   3  34
TORSDOF 12
ENDMDL
MODEL 2
REMARK VINA RESULT: -8.584880767      0.785      1.350
REMARK  12 active torsions:
REMARK  status: ('A' for Active; 'I' for Inactive)
REMARK    1  A    between atoms: C3_3  and  O1_4 
REMARK    2  A    between atoms: C6_8  and  O2_9 
REMARK    3  A    between atoms: C7_11  and  S1_12 
REMARK    4  A    between atoms: S1_12  and  C8_13 
REMARK    5  A    between atoms: C8_13  and  C9_14 
REMARK    6  A    between atoms: C10_15  and  C11_16 
REMARK    7  A    between atoms: C11_16  and  C12_17 
REMARK    8  A    between atoms: C12_17  and  C13_18 
REMARK    9  A    between atoms: C13_18  and  C14_19 
REMARK   10  A    between atoms: C14_19  and  C15_20 
REMARK   11  A    between atoms: C15_20  and  N2_24 
REMARK   12  A    between atoms: N2_24  and  N3_26 
ROOT
HETATM    1  C1  UNL     1      19.894  53.891  38.289  1.00  0.00     0.052 C 
HETATM    2  C2  UNL     1      18.454  54.271  38.049  1.00  0.00    -0.009 A 
HETATM    3  C3  UNL     1      18.166  55.416  37.338  1.00  0.00     0.081 A 
HETATM    4  C4  UNL     1      16.871  55.842  37.085  1.00  0.00     0.005 A 
HETATM    5  C5  UNL     1      15.809  55.098  37.559  1.00  0.00     0.072 A 
HETATM    6  C6  UNL     1      16.093  53.964  38.264  1.00  0.00     0.110 A 
HETATM    7  C7  UNL     1      17.400  53.525  38.524  1.00  0.00     0.045 A 
HETATM    8  N4  UNL     1      14.471  55.537  37.302  1.00  0.00    -0.379 N 
ATOM      9  H4  UNL     1      13.695  54.879  37.240  1.00  0.00     0.160 HD
HETATM   10  C16 UNL     1      14.271  56.982  37.131  1.00  0.00     0.023 C 
HETATM   11  C17 UNL     1      12.871  57.278  36.682  1.00  0.00     0.038 C 
HETATM   12  C18 UNL     1      14.480  57.696  38.457  1.00  0.00     0.038 C 
HETATM   13  C19 UNL     1      15.236  57.441  36.094  1.00  0.00     0.035 C 
HETATM   14  C20 UNL     1      16.661  57.083  36.315  1.00  0.00     0.046 C 
ENDROOT
BRANCH   7  15
HETATM   15  S1  UNL     1      17.696  52.046  39.434  1.00  0.00    -0.123 SA
BRANCH  15  16
HETATM   16  C8  UNL     1      17.553  50.610  38.379  1.00  0.00     0.106 C 
BRANCH  16  17
HETATM   17  C9  UNL     1      17.818  50.859  36.955  1.00  0.00    -0.020 C 
HETATM   18  C10 UNL     1      19.059  50.923  36.519  1.00  0.00    -0.030 C 
BRANCH  18  19
HETATM   19  C11 UNL     1      19.443  51.167  35.108  1.00  0.00     0.027 C 
BRANCH  19  20
HETATM   20  C12 UNL     1      20.881  51.614  34.985  1.00  0.00     0.004 C 
BRANCH  20  21
HETATM   21  C13 UNL     1      21.794  50.552  34.477  1.00  0.00     0.008 C 
BRANCH  21  22
HETATM   22  C14 UNL     1      22.154  50.669  33.029  1.00  0.00     0.077 C 
BRANCH  22  23
HETATM   23  C15 UNL     1      22.826  49.462  32.510  1.00  0.00     0.088 C 
HETATM   24  N1  UNL     1      22.139  48.406  32.261  1.00  0.00    -0.388 N 
ATOM     25  H12 UNL     1      21.132  48.417  32.426  1.00  0.00     0.157 HD
ATOM     26  H11 UNL     1      22.604  47.571  31.902  1.00  0.00     0.157 HD
BRANCH  23  27
HETATM   27  N2  UNL     1      24.224  49.447  32.281  1.00  0.00    -0.296 N 
ATOM     28  H2  UNL     1      24.722  50.328  32.156  1.00  0.00     0.187 HD
BRANCH  27  29
HETATM   29  N3  UNL     1      24.930  48.244  32.223  1.00  0.00    -0.344 N 
ATOM     30  H32 UNL     1      24.534  47.473  31.686  1.00  0.00     0.176 HD
ATOM     31  H31 UNL     1      25.823  48.135  32.704  1.00  0.00     0.176 HD
ENDBRANCH  27  29
ENDBRANCH  23  27
ENDBRANCH  22  23
ENDBRANCH  21  22
ENDBRANCH  20  21
ENDBRANCH  19  20
ENDBRANCH  18  19
ENDBRANCH  16  17
ENDBRANCH  15  16
ENDBRANCH   7  15
BRANCH   6  32
HETATM   32  O2  UNL     1      15.001  53.222  38.736  1.00  0.00    -0.357 OA
ATOM     33  H2  UNL     1      15.129  52.287  38.837  1.00  0.00     0.217 HD
ENDBRANCH   6  32
BRANCH   3  34
HETATM   34  O1  UNL     1      19.243  56.177  36.853  1.00  0.00    -0.359 OA
ATOM     35  H1  UNL     1      19.251  56.396  35.928  1.00  0.00     0.217 HD
ENDBRANCH   3  34
TORSDOF 12
ENDMDL
MODEL 3
REMARK VINA RESULT: -8.365998342      3.550      8.084
REMARK  12 active torsions:
REMARK  status: ('A' for Active; 'I' for Inactive)
REMARK    1  A    between atoms: C3_3  and  O1_4 
REMARK    2  A    between atoms: C6_8  and  O2_9 
REMARK    3  A    between atoms: C7_11  and  S1_12 
REMARK    4  A    between atoms: S1_12  and  C8_13 
REMARK    5  A    between atoms: C8_13  and  C9_14 
REMARK    6  A    between atoms: C10_15  and  C11_16 
REMARK    7  A    between atoms: C11_16  and  C12_17 
REMARK    8  A    between atoms: C12_17  and  C13_18 
REMARK    9  A    between atoms: C13_18  and  C14_19 
REMARK   10  A    between atoms: C14_19  and  C15_20 
REMARK   11  A    between atoms: C15_20  and  N2_24 
REMARK   12  A    between atoms: N2_24  and  N3_26 
ROOT
HETATM    1  C1  UNL     1      18.474  57.302  36.409  1.00  0.00     0.052 C 
HETATM    2  C2  UNL     1      17.830  55.965  36.678  1.00  0.00    -0.009 A 
HETATM    3  C3  UNL     1      18.588  54.943  37.209  1.00  0.00     0.081 A 
HETATM    4  C4  UNL     1      18.076  53.682  37.474  1.00  0.00     0.005 A 
HETATM    5  C5  UNL     1      16.749  53.420  37.200  1.00  0.00     0.072 A 
HETATM    6  C6  UNL     1      15.997  54.431  36.674  1.00  0.00     0.110 A 
HETATM    7  C7  UNL     1      16.506  55.709  36.403  1.00  0.00     0.045 A 
HETATM    8  N4  UNL     1      16.219  52.118  37.470  1.00  0.00    -0.379 N 
ATOM      9  H4  UNL     1      15.233  51.977  37.691  1.00  0.00     0.160 HD
HETATM   10  C16 UNL     1      17.163  50.995  37.414  1.00  0.00     0.023 C 
HETATM   11  C17 UNL     1      16.519  49.731  37.900  1.00  0.00     0.038 C 
HETATM   12  C18 UNL     1      17.600  50.755  35.978  1.00  0.00     0.038 C 
HETATM   13  C19 UNL     1      18.312  51.341  38.295  1.00  0.00     0.035 C 
HETATM   14  C20 UNL     1      18.966  52.651  38.041  1.00  0.00     0.046 C 
ENDROOT
BRANCH   7  15
HETATM   15  S1  UNL     1      15.478  56.972  35.731  1.00  0.00    -0.123 SA
BRANCH  15  16
HETATM   16  C8  UNL     1      13.870  56.964  36.510  1.00  0.00     0.106 C 
BRANCH  16  17
HETATM   17  C9  UNL     1      13.883  57.199  37.961  1.00  0.00    -0.020 C 
HETATM   18  C10 UNL     1      14.222  58.381  38.432  1.00  0.00    -0.030 C 
BRANCH  18  19
HETATM   19  C11 UNL     1      14.269  58.731  39.871  1.00  0.00     0.027 C 
BRANCH  19  20
HETATM   20  C12 UNL     1      13.438  57.787  40.708  1.00  0.00     0.004 C 
BRANCH  20  21
HETATM   21  C13 UNL     1      14.240  56.984  41.674  1.00  0.00     0.008 C 
BRANCH  21  22
HETATM   22  C14 UNL     1      13.445  56.045  42.527  1.00  0.00     0.077 C 
BRANCH  22  23
HETATM   23  C15 UNL     1      13.003  54.844  41.793  1.00  0.00     0.088 C 
HETATM   24  N1  UNL     1      11.845  54.341  42.029  1.00  0.00    -0.388 N 
ATOM     25  H12 UNL     1      11.244  54.781  42.726  1.00  0.00     0.157 HD
ATOM     26  H11 UNL     1      11.540  53.510  41.521  1.00  0.00     0.157 HD
BRANCH  23  27
HETATM   27  N2  UNL     1      13.838  54.232  40.826  1.00  0.00    -0.296 N 
ATOM     28  H2  UNL     1      14.430  54.814  40.232  1.00  0.00     0.187 HD
BRANCH  27  29
HETATM   29  N3  UNL     1      13.864  52.845  40.672  1.00  0.00    -0.344 N 
ATOM     30  H32 UNL     1      13.466  52.442  39.824  1.00  0.00     0.176 HD
ATOM     31  H31 UNL     1      14.270  52.244  41.390  1.00  0.00     0.176 HD
ENDBRANCH  27  29
ENDBRANCH  23  27
ENDBRANCH  22  23
ENDBRANCH  21  22
ENDBRANCH  20  21
ENDBRANCH  19  20
ENDBRANCH  18  19
ENDBRANCH  16  17
ENDBRANCH  15  16
ENDBRANCH   7  15
BRANCH   6  32
HETATM   32  O2  UNL     1      14.651  54.143  36.403  1.00  0.00    -0.357 OA
ATOM     33  H2  UNL     1      14.454  53.267  36.094  1.00  0.00     0.217 HD
ENDBRANCH   6  32
BRANCH   3  34
HETATM   34  O1  UNL     1      19.940  55.206  37.490  1.00  0.00    -0.359 OA
ATOM     35  H1  UNL     1      20.283  54.916  38.327  1.00  0.00     0.217 HD
ENDBRANCH   3  34
TORSDOF 12
ENDMDL
MODEL 4
REMARK VINA RESULT: -8.315838885      2.381      3.585
REMARK  12 active torsions:
REMARK  status: ('A' for Active; 'I' for Inactive)
REMARK    1  A    between atoms: C3_3  and  O1_4 
REMARK    2  A    between atoms: C6_8  and  O2_9 
REMARK    3  A    between atoms: C7_11  and  S1_12 
REMARK    4  A    between atoms: S1_12  and  C8_13 
REMARK    5  A    between atoms: C8_13  and  C9_14 
REMARK    6  A    between atoms: C10_15  and  C11_16 
REMARK    7  A    between atoms: C11_16  and  C12_17 
REMARK    8  A    between atoms: C12_17  and  C13_18 
REMARK    9  A    between atoms: C13_18  and  C14_19 
REMARK   10  A    between atoms: C14_19  and  C15_20 
REMARK   11  A    between atoms: C15_20  and  N2_24 
REMARK   12  A    between atoms: N2_24  and  N3_26 
ROOT
HETATM    1  C1  UNL     1      16.436  55.450  36.946  1.00  0.00     0.052 C 
HETATM    2  C2  UNL     1      15.392  56.271  37.658  1.00  0.00    -0.009 A 
HETATM    3  C3  UNL     1      14.715  57.252  36.966  1.00  0.00     0.081 A 
HETATM    4  C4  UNL     1      13.750  58.059  37.550  1.00  0.00     0.005 A 
HETATM    5  C5  UNL     1      13.441  57.886  38.884  1.00  0.00     0.072 A 
HETATM    6  C6  UNL     1      14.111  56.915  39.571  1.00  0.00     0.110 A 
HETATM    7  C7  UNL     1      15.087  56.094  38.989  1.00  0.00     0.045 A 
HETATM    8  N4  UNL     1      12.447  58.720  39.490  1.00  0.00    -0.379 N 
ATOM      9  H4  UNL     1      11.891  58.400  40.283  1.00  0.00     0.160 HD
HETATM   10  C16 UNL     1      12.267  60.059  38.914  1.00  0.00     0.023 C 
HETATM   11  C17 UNL     1      11.076  60.743  39.517  1.00  0.00     0.038 C 
HETATM   12  C18 UNL     1      13.483  60.921  39.215  1.00  0.00     0.038 C 
HETATM   13  C19 UNL     1      12.057  59.885  37.451  1.00  0.00     0.035 C 
HETATM   14  C20 UNL     1      13.079  59.085  36.728  1.00  0.00     0.046 C 
ENDROOT
BRANCH   7  15
HETATM   15  S1  UNL     1      15.909  54.854  39.931  1.00  0.00    -0.123 SA
BRANCH  15  16
HETATM   16  C8  UNL     1      15.081  53.278  39.769  1.00  0.00     0.106 C 
BRANCH  16  17
HETATM   17  C9  UNL     1      15.924  52.183  39.270  1.00  0.00    -0.020 C 
HETATM   18  C10 UNL     1      15.928  51.889  37.986  1.00  0.00    -0.030 C 
BRANCH  18  19
HETATM   19  C11 UNL     1      16.737  50.809  37.373  1.00  0.00     0.027 C 
BRANCH  19  20
HETATM   20  C12 UNL     1      18.132  50.753  37.950  1.00  0.00     0.004 C 
BRANCH  20  21
HETATM   21  C13 UNL     1      19.178  51.290  37.035  1.00  0.00     0.008 C 
BRANCH  21  22
HETATM   22  C14 UNL     1      19.007  50.920  35.595  1.00  0.00     0.077 C 
BRANCH  22  23
HETATM   23  C15 UNL     1      20.288  50.878  34.862  1.00  0.00     0.088 C 
HETATM   24  N1  UNL     1      20.867  51.974  34.527  1.00  0.00    -0.388 N 
ATOM     25  H12 UNL     1      20.431  52.863  34.773  1.00  0.00     0.157 HD
ATOM     26  H11 UNL     1      21.753  51.946  34.020  1.00  0.00     0.157 HD
BRANCH  23  27
HETATM   27  N2  UNL     1      20.893  49.644  34.519  1.00  0.00    -0.296 N 
ATOM     28  H2  UNL     1      21.562  49.218  35.160  1.00  0.00     0.187 HD
BRANCH  27  29
HETATM   29  N3  UNL     1      20.587  49.002  33.318  1.00  0.00    -0.344 N 
ATOM     30  H32 UNL     1      19.607  48.818  33.101  1.00  0.00     0.176 HD
ATOM     31  H31 UNL     1      21.323  48.722  32.670  1.00  0.00     0.176 HD
ENDBRANCH  27  29
ENDBRANCH  23  27
ENDBRANCH  22  23
ENDBRANCH  21  22
ENDBRANCH  20  21
ENDBRANCH  19  20
ENDBRANCH  18  19
ENDBRANCH  16  17
ENDBRANCH  15  16
ENDBRANCH   7  15
BRANCH   6  32
HETATM   32  O2  UNL     1      13.781  56.756  40.925  1.00  0.00    -0.357 OA
ATOM     33  H2  UNL     1      12.988  56.271  41.118  1.00  0.00     0.217 HD
ENDBRANCH   6  32
BRANCH   3  34
HETATM   34  O1  UNL     1      15.026  57.432  35.608  1.00  0.00    -0.359 OA
ATOM     35  H1  UNL     1      14.491  58.036  35.106  1.00  0.00     0.217 HD
ENDBRANCH   3  34
TORSDOF 12
ENDMDL
MODEL 5
REMARK VINA RESULT: -8.262468294      2.097      2.758
REMARK  12 active torsions:
REMARK  status: ('A' for Active; 'I' for Inactive)
REMARK    1  A    between atoms: C3_3  and  O1_4 
REMARK    2  A    between atoms: C6_8  and  O2_9 
REMARK    3  A    between atoms: C7_11  and  S1_12 
REMARK    4  A    between atoms: S1_12  and  C8_13 
REMARK    5  A    between atoms: C8_13  and  C9_14 
REMARK    6  A    between atoms: C10_15  and  C11_16 
REMARK    7  A    between atoms: C11_16  and  C12_17 
REMARK    8  A    between atoms: C12_17  and  C13_18 
REMARK    9  A    between atoms: C13_18  and  C14_19 
REMARK   10  A    between atoms: C14_19  and  C15_20 
REMARK   11  A    between atoms: C15_20  and  N2_24 
REMARK   12  A    between atoms: N2_24  and  N3_26 
ROOT
HETATM    1  C1  UNL     1      16.858  54.507  36.222  1.00  0.00     0.052 C 
HETATM    2  C2  UNL     1      15.981  54.646  37.440  1.00  0.00    -0.009 A 
HETATM    3  C3  UNL     1      15.677  55.904  37.916  1.00  0.00     0.081 A 
HETATM    4  C4  UNL     1      14.889  56.118  39.037  1.00  0.00     0.005 A 
HETATM    5  C5  UNL     1      14.377  55.034  39.720  1.00  0.00     0.072 A 
HETATM    6  C6  UNL     1      14.677  53.788  39.251  1.00  0.00     0.110 A 
HETATM    7  C7  UNL     1      15.472  53.561  38.118  1.00  0.00     0.045 A 
HETATM    8  N4  UNL     1      13.566  55.252  40.880  1.00  0.00    -0.379 N 
ATOM      9  H4  UNL     1      12.848  54.585  41.164  1.00  0.00     0.160 HD
HETATM   10  C16 UNL     1      13.817  56.483  41.640  1.00  0.00     0.023 C 
HETATM   11  C17 UNL     1      12.779  56.673  42.705  1.00  0.00     0.038 C 
HETATM   12  C18 UNL     1      15.166  56.398  42.335  1.00  0.00     0.038 C 
HETATM   13  C19 UNL     1      13.758  57.616  40.676  1.00  0.00     0.035 C 
HETATM   14  C20 UNL     1      14.620  57.502  39.471  1.00  0.00     0.046 C 
ENDROOT
BRANCH   7  15
HETATM   15  S1  UNL     1      15.814  51.926  37.561  1.00  0.00    -0.123 SA
BRANCH  15  16
HETATM   16  C8  UNL     1      17.123  51.185  38.527  1.00  0.00     0.106 C 
BRANCH  16  17
HETATM   17  C9  UNL     1      18.431  51.132  37.860  1.00  0.00    -0.020 C 
HETATM   18  C10 UNL     1      19.172  52.218  37.779  1.00  0.00    -0.030 C 
BRANCH  18  19
HETATM   19  C11 UNL     1      20.504  52.281  37.133  1.00  0.00     0.027 C 
BRANCH  19  20
HETATM   20  C12 UNL     1      20.431  51.955  35.659  1.00  0.00     0.004 C 
BRANCH  20  21
HETATM   21  C13 UNL     1      21.336  50.844  35.249  1.00  0.00     0.008 C 
BRANCH  21  22
HETATM   22  C14 UNL     1      21.688  50.821  33.794  1.00  0.00     0.077 C 
BRANCH  22  23
HETATM   23  C15 UNL     1      21.352  49.537  33.148  1.00  0.00     0.088 C 
HETATM   24  N1  UNL     1      22.207  48.966  32.379  1.00  0.00    -0.388 N 
ATOM     25  H12 UNL     1      23.113  49.410  32.226  1.00  0.00     0.157 HD
ATOM     26  H11 UNL     1      21.975  48.078  31.933  1.00  0.00     0.157 HD
BRANCH  23  27
HETATM   27  N2  UNL     1      20.094  48.920  33.360  1.00  0.00    -0.296 N 
ATOM     28  H2  UNL     1      19.341  49.452  33.797  1.00  0.00     0.187 HD
BRANCH  27  29
HETATM   29  N3  UNL     1      19.869  47.596  32.981  1.00  0.00    -0.344 N 
ATOM     30  H32 UNL     1      19.240  47.415  32.199  1.00  0.00     0.176 HD
ATOM     31  H31 UNL     1      20.321  46.824  33.473  1.00  0.00     0.176 HD
ENDBRANCH  27  29
ENDBRANCH  23  27
ENDBRANCH  22  23
ENDBRANCH  21  22
ENDBRANCH  20  21
ENDBRANCH  19  20
ENDBRANCH  18  19
ENDBRANCH  16  17
ENDBRANCH  15  16
ENDBRANCH   7  15
BRANCH   6  32
HETATM   32  O2  UNL     1      14.146  52.700  39.959  1.00  0.00    -0.357 OA
ATOM     33  H2  UNL     1      14.768  52.077  40.317  1.00  0.00     0.217 HD
ENDBRANCH   6  32
BRANCH   3  34
HETATM   34  O1  UNL     1      16.197  57.011  37.223  1.00  0.00    -0.359 OA
ATOM     35  H1  UNL     1      15.711  57.827  37.263  1.00  0.00     0.217 HD
ENDBRANCH   3  34
TORSDOF 12
ENDMDL
