MODEL 1
REMARK VINA RESULT: -8.427628150      0.000      0.000
REMARK  10 active torsions:
REMARK  status: ('A' for Active; 'I' for Inactive)
REMARK    1  A    between atoms: C3_3  and  N1_4 
REMARK    2  A    between atoms: N1_4  and  C4_6 
REMARK    3  A    between atoms: C10_14  and  C11_15 
REMARK       I    between atoms: C11_15  and  N3_17 
REMARK    4  A    between atoms: N3_17  and  C12_18 
REMARK    5  A    between atoms: C12_18  and  C13_19 
REMARK    6  A    between atoms: C13_19  and  C14_20 
REMARK    7  A    between atoms: C14_20  and  C15_21 
REMARK    8  A    between atoms: C15_21  and  C16_22 
REMARK    9  A    between atoms: C16_22  and  O2_23 
REMARK   10  A    between atoms: C16_22  and  N4_25 
ROOT
HETATM    1  N4  UNL     1      56.243  17.858  51.982  1.00  0.00    -0.262 NA
HETATM    2  O3  UNL     1      55.375  16.976  51.671  1.00  0.00    -0.217 OA
ATOM      3  H3  UNL     1      54.698  16.318  51.567  1.00  0.00     0.261 HD
ENDROOT
BRANCH   1   4
HETATM    4  C16 UNL     1      57.049  18.641  52.105  1.00  0.00     0.222 C 
BRANCH   4   5
HETATM    5  C15 UNL     1      58.000  18.591  53.401  1.00  0.00     0.103 C 
BRANCH   5   6
HETATM    6  C14 UNL     1      57.351  17.756  54.439  1.00  0.00     0.015 C 
BRANCH   6   7
HETATM    7  C13 UNL     1      57.935  16.408  54.695  1.00  0.00     0.060 C 
BRANCH   7   8
HETATM    8  C12 UNL     1      57.033  15.249  54.388  1.00  0.00     0.159 C 
BRANCH   8   9
HETATM    9  N3  UNL     1      56.845  14.589  53.295  1.00  0.00    -0.381 NA
HETATM   10  C11 UNL     1      56.643  13.874  52.087  1.00  0.00     0.359 C 
HETATM   11  O1  UNL     1      56.868  14.355  50.947  1.00  0.00    -0.248 OA
BRANCH  10  12
HETATM   12  C10 UNL     1      56.139  12.462  52.084  1.00  0.00     0.191 A 
HETATM   13  N2  UNL     1      54.839  12.104  51.658  1.00  0.00    -0.335 N 
HETATM   14  C9  UNL     1      54.825  10.744  51.735  1.00  0.00     0.063 A 
ATOM     15  H2  UNL     1      54.084  12.722  51.361  1.00  0.00     0.168 HD
HETATM   16  C8  UNL     1      53.852   9.763  51.433  1.00  0.00     0.061 A 
HETATM   17  C17 UNL     1      56.011  10.287  52.193  1.00  0.00     0.067 A 
HETATM   18  C3  UNL     1      54.074   8.411  51.596  1.00  0.00     0.037 A 
HETATM   19  C2  UNL     1      55.300   7.948  52.069  1.00  0.00    -0.027 A 
HETATM   20  C1  UNL     1      55.666   6.516  52.220  1.00  0.00     0.051 C 
HETATM   21  C18 UNL     1      56.213   8.916  52.344  1.00  0.00    -0.025 A 
HETATM   22  C19 UNL     1      57.549   8.538  52.924  1.00  0.00     0.051 C 
HETATM   23  N5  UNL     1      56.772  11.369  52.389  1.00  0.00    -0.335 N 
ATOM     24  H5  UNL     1      57.731  11.340  52.734  1.00  0.00     0.168 HD
BRANCH  18  25
HETATM   25  N1  UNL     1      53.064   7.459  51.361  1.00  0.00    -0.381 N 
ATOM     26  H1  UNL     1      52.545   7.144  52.180  1.00  0.00     0.160 HD
BRANCH  25  27
HETATM   27  C4  UNL     1      52.682   6.885  50.127  1.00  0.00     0.019 C 
HETATM   28  C5  UNL     1      51.470   7.550  49.543  1.00  0.00     0.037 C 
HETATM   29  C6  UNL     1      52.152   5.421  50.418  1.00  0.00     0.037 C 
HETATM   30  C7  UNL     1      53.775   6.738  49.117  1.00  0.00     0.037 C 
ENDBRANCH  25  27
ENDBRANCH  18  25
ENDBRANCH  10  12
ENDBRANCH   8   9
ENDBRANCH   7   8
ENDBRANCH   6   7
ENDBRANCH   5   6
ENDBRANCH   4   5
BRANCH   4  31
HETATM   31  O2  UNL     1      57.393  19.748  51.289  1.00  0.00    -0.337 OA
ATOM     32  H2  UNL     1      56.674  20.368  51.257  1.00  0.00     0.220 HD
ENDBRANCH   4  31
ENDBRANCH   1   4
TORSDOF 10
ENDMDL
MODEL 2
REMARK VINA RESULT: -8.379835873      3.705      5.551
REMARK  10 active torsions:
REMARK  status: ('A' for Active; 'I' for Inactive)
REMARK    1  A    between atoms: C3_3  and  N1_4 
REMARK    2  A    between atoms: N1_4  and  C4_6 
REMARK    3  A    between atoms: C10_14  and  C11_15 
REMARK       I    between atoms: C11_15  and  N3_17 
REMARK    4  A    between atoms: N3_17  and  C12_18 
REMARK    5  A    between atoms: C12_18  and  C13_19 
REMARK    6  A    between atoms: C13_19  and  C14_20 
REMARK    7  A    between atoms: C14_20  and  C15_21 
REMARK    8  A    between atoms: C15_21  and  C16_22 
REMARK    9  A    between atoms: C16_22  and  O2_23 
REMARK   10  A    between atoms: C16_22  and  N4_25 
ROOT
HETATM    1  N4  UNL     1      56.737   9.188  53.592  1.00  0.00    -0.262 NA
HETATM    2  O3  UNL     1      55.813   9.771  54.251  1.00  0.00    -0.217 OA
ATOM      3  H3  UNL     1      55.078  10.084  54.765  1.00  0.00     0.261 HD
ENDROOT
BRANCH   1   4
HETATM    4  C16 UNL     1      57.611   8.816  52.980  1.00  0.00     0.222 C 
BRANCH   4   5
HETATM    5  C15 UNL     1      57.999   9.578  51.618  1.00  0.00     0.103 C 
BRANCH   5   6
HETATM    6  C14 UNL     1      58.413  10.962  51.946  1.00  0.00     0.015 C 
BRANCH   6   7
HETATM    7  C13 UNL     1      57.703  12.072  51.249  1.00  0.00     0.060 C 
BRANCH   7   8
HETATM    8  C12 UNL     1      56.418  12.512  51.886  1.00  0.00     0.159 C 
BRANCH   8   9
HETATM    9  N3  UNL     1      55.253  11.956  51.915  1.00  0.00    -0.381 NA
HETATM   10  C11 UNL     1      53.969  11.355  51.952  1.00  0.00     0.359 C 
HETATM   11  O1  UNL     1      52.966  11.892  52.488  1.00  0.00    -0.248 OA
BRANCH  10  12
HETATM   12  C10 UNL     1      53.711  10.011  51.341  1.00  0.00     0.191 A 
HETATM   13  N2  UNL     1      52.554   9.712  50.586  1.00  0.00    -0.335 N 
HETATM   14  C9  UNL     1      52.757   8.436  50.155  1.00  0.00     0.063 A 
ATOM     15  H2  UNL     1      51.750  10.314  50.405  1.00  0.00     0.168 HD
HETATM   16  C8  UNL     1      52.006   7.552  49.344  1.00  0.00     0.061 A 
HETATM   17  C17 UNL     1      53.934   7.964  50.620  1.00  0.00     0.067 A 
HETATM   18  C3  UNL     1      52.427   6.275  49.038  1.00  0.00     0.037 A 
HETATM   19  C2  UNL     1      53.643   5.797  49.521  1.00  0.00    -0.027 A 
HETATM   20  C1  UNL     1      54.220   4.465  49.200  1.00  0.00     0.051 C 
HETATM   21  C18 UNL     1      54.341   6.672  50.291  1.00  0.00    -0.025 A 
HETATM   22  C19 UNL     1      55.636   6.242  50.923  1.00  0.00     0.051 C 
HETATM   23  N5  UNL     1      54.474   8.959  51.332  1.00  0.00    -0.335 N 
ATOM     24  H5  UNL     1      55.373   8.899  51.810  1.00  0.00     0.168 HD
BRANCH  18  25
HETATM   25  N1  UNL     1      51.628   5.388  48.292  1.00  0.00    -0.381 N 
ATOM     26  H1  UNL     1      52.050   5.008  47.445  1.00  0.00     0.160 HD
BRANCH  25  27
HETATM   27  C4  UNL     1      50.311   4.960  48.574  1.00  0.00     0.019 C 
HETATM   28  C5  UNL     1      50.087   4.747  50.043  1.00  0.00     0.037 C 
HETATM   29  C6  UNL     1      50.144   3.495  47.995  1.00  0.00     0.037 C 
HETATM   30  C7  UNL     1      49.219   5.776  47.959  1.00  0.00     0.037 C 
ENDBRANCH  25  27
ENDBRANCH  18  25
ENDBRANCH  10  12
ENDBRANCH   8   9
ENDBRANCH   7   8
ENDBRANCH   6   7
ENDBRANCH   5   6
ENDBRANCH   4   5
BRANCH   4  31
HETATM   31  O2  UNL     1      58.481   7.715  53.189  1.00  0.00    -0.337 OA
ATOM     32  H2  UNL     1      58.630   7.587  54.119  1.00  0.00     0.220 HD
ENDBRANCH   4  31
ENDBRANCH   1   4
TORSDOF 10
ENDMDL
MODEL 3
REMARK VINA RESULT: -8.220379751      4.235      5.467
REMARK  10 active torsions:
REMARK  status: ('A' for Active; 'I' for Inactive)
REMARK    1  A    between atoms: C3_3  and  N1_4 
REMARK    2  A    between atoms: N1_4  and  C4_6 
REMARK    3  A    between atoms: C10_14  and  C11_15 
REMARK       I    between atoms: C11_15  and  N3_17 
REMARK    4  A    between atoms: N3_17  and  C12_18 
REMARK    5  A    between atoms: C12_18  and  C13_19 
REMARK    6  A    between atoms: C13_19  and  C14_20 
REMARK    7  A    between atoms: C14_20  and  C15_21 
REMARK    8  A    between atoms: C15_21  and  C16_22 
REMARK    9  A    between atoms: C16_22  and  O2_23 
REMARK   10  A    between atoms: C16_22  and  N4_25 
ROOT
HETATM    1  N4  UNL     1      53.137   9.988  54.458  1.00  0.00    -0.262 NA
HETATM    2  O3  UNL     1      53.641   8.893  54.039  1.00  0.00    -0.217 OA
ATOM      3  H3  UNL     1      54.023   8.136  53.609  1.00  0.00     0.261 HD
ENDROOT
BRANCH   1   4
HETATM    4  C16 UNL     1      52.684  10.888  54.969  1.00  0.00     0.222 C 
BRANCH   4   5
HETATM    5  C15 UNL     1      52.979  12.356  54.381  1.00  0.00     0.103 C 
BRANCH   5   6
HETATM    6  C14 UNL     1      53.692  12.219  53.090  1.00  0.00     0.015 C 
BRANCH   6   7
HETATM    7  C13 UNL     1      55.088  12.737  53.020  1.00  0.00     0.060 C 
BRANCH   7   8
HETATM    8  C12 UNL     1      56.143  11.814  53.555  1.00  0.00     0.159 C 
BRANCH   8   9
HETATM    9  N3  UNL     1      56.586  10.686  53.110  1.00  0.00    -0.381 NA
HETATM   10  C11 UNL     1      57.083   9.450  52.626  1.00  0.00     0.359 C 
HETATM   11  O1  UNL     1      58.271   9.068  52.784  1.00  0.00    -0.248 OA
BRANCH  10  12
HETATM   12  C10 UNL     1      56.210   8.489  51.877  1.00  0.00     0.191 A 
HETATM   13  N2  UNL     1      55.017   8.874  51.222  1.00  0.00    -0.335 N 
HETATM   14  C9  UNL     1      54.590   7.735  50.610  1.00  0.00     0.063 A 
ATOM     15  H2  UNL     1      54.577   9.794  51.210  1.00  0.00     0.168 HD
HETATM   16  C8  UNL     1      53.486   7.433  49.778  1.00  0.00     0.061 A 
HETATM   17  C17 UNL     1      55.432   6.713  50.876  1.00  0.00     0.067 A 
HETATM   18  C3  UNL     1      53.256   6.174  49.264  1.00  0.00     0.037 A 
HETATM   19  C2  UNL     1      54.130   5.126  49.544  1.00  0.00    -0.027 A 
HETATM   20  C1  UNL     1      54.013   3.752  48.991  1.00  0.00     0.051 C 
HETATM   21  C18 UNL     1      55.182   5.451  50.340  1.00  0.00    -0.025 A 
HETATM   22  C19 UNL     1      56.154   4.385  50.764  1.00  0.00     0.051 C 
HETATM   23  N5  UNL     1      56.398   7.223  51.648  1.00  0.00    -0.335 N 
ATOM     24  H5  UNL     1      57.184   6.686  52.012  1.00  0.00     0.168 HD
BRANCH  18  25
HETATM   25  N1  UNL     1      52.109   5.881  48.501  1.00  0.00    -0.381 N 
ATOM     26  H1  UNL     1      52.226   5.902  47.488  1.00  0.00     0.160 HD
BRANCH  25  27
HETATM   27  C4  UNL     1      50.815   5.560  48.969  1.00  0.00     0.019 C 
HETATM   28  C5  UNL     1      50.071   4.672  48.017  1.00  0.00     0.037 C 
HETATM   29  C6  UNL     1      49.948   6.885  48.937  1.00  0.00     0.037 C 
HETATM   30  C7  UNL     1      50.743   5.051  50.374  1.00  0.00     0.037 C 
ENDBRANCH  25  27
ENDBRANCH  18  25
ENDBRANCH  10  12
ENDBRANCH   8   9
ENDBRANCH   7   8
ENDBRANCH   6   7
ENDBRANCH   5   6
ENDBRANCH   4   5
BRANCH   4  31
HETATM   31  O2  UNL     1      51.864  10.979  56.122  1.00  0.00    -0.337 OA
ATOM     32  H2  UNL     1      52.308  10.599  56.871  1.00  0.00     0.220 HD
ENDBRANCH   4  31
ENDBRANCH   1   4
TORSDOF 10
ENDMDL
MODEL 4
REMARK VINA RESULT: -8.083102231      3.903      5.345
REMARK  10 active torsions:
REMARK  status: ('A' for Active; 'I' for Inactive)
REMARK    1  A    between atoms: C3_3  and  N1_4 
REMARK    2  A    between atoms: N1_4  and  C4_6 
REMARK    3  A    between atoms: C10_14  and  C11_15 
REMARK       I    between atoms: C11_15  and  N3_17 
REMARK    4  A    between atoms: N3_17  and  C12_18 
REMARK    5  A    between atoms: C12_18  and  C13_19 
REMARK    6  A    between atoms: C13_19  and  C14_20 
REMARK    7  A    between atoms: C14_20  and  C15_21 
REMARK    8  A    between atoms: C15_21  and  C16_22 
REMARK    9  A    between atoms: C16_22  and  O2_23 
REMARK   10  A    between atoms: C16_22  and  N4_25 
ROOT
HETATM    1  N4  UNL     1      58.187   9.285  52.783  1.00  0.00    -0.262 NA
HETATM    2  O3  UNL     1      58.371   8.678  53.890  1.00  0.00    -0.217 OA
ATOM      3  H3  UNL     1      58.488   8.344  54.772  1.00  0.00     0.261 HD
ENDROOT
BRANCH   1   4
HETATM    4  C16 UNL     1      58.047   9.682  51.734  1.00  0.00     0.222 C 
BRANCH   4   5
HETATM    5  C15 UNL     1      58.737  11.077  51.325  1.00  0.00     0.103 C 
BRANCH   5   6
HETATM    6  C14 UNL     1      57.680  12.033  50.925  1.00  0.00     0.015 C 
BRANCH   6   7
HETATM    7  C13 UNL     1      57.190  12.985  51.963  1.00  0.00     0.060 C 
BRANCH   7   8
HETATM    8  C12 UNL     1      55.841  12.668  52.539  1.00  0.00     0.159 C 
BRANCH   8   9
HETATM    9  N3  UNL     1      55.337  11.553  52.951  1.00  0.00    -0.381 NA
HETATM   10  C11 UNL     1      54.785  10.333  53.415  1.00  0.00     0.359 C 
HETATM   11  O1  UNL     1      54.623  10.062  54.633  1.00  0.00    -0.248 OA
BRANCH  10  12
HETATM   12  C10 UNL     1      54.343   9.259  52.468  1.00  0.00     0.191 A 
HETATM   13  N2  UNL     1      53.192   9.368  51.654  1.00  0.00    -0.335 N 
HETATM   14  C9  UNL     1      53.207   8.233  50.902  1.00  0.00     0.063 A 
ATOM     15  H2  UNL     1      52.508  10.124  51.633  1.00  0.00     0.168 HD
HETATM   16  C8  UNL     1      52.365   7.731  49.881  1.00  0.00     0.061 A 
HETATM   17  C17 UNL     1      54.266   7.462  51.233  1.00  0.00     0.067 A 
HETATM   18  C3  UNL     1      52.587   6.525  49.250  1.00  0.00     0.037 A 
HETATM   19  C2  UNL     1      53.683   5.737  49.598  1.00  0.00    -0.027 A 
HETATM   20  C1  UNL     1      54.051   4.457  48.940  1.00  0.00     0.051 C 
HETATM   21  C18 UNL     1      54.472   6.250  50.577  1.00  0.00    -0.025 A 
HETATM   22  C19 UNL     1      55.646   5.456  51.081  1.00  0.00     0.051 C 
HETATM   23  N5  UNL     1      54.923   8.130  52.187  1.00  0.00    -0.335 N 
ATOM     24  H5  UNL     1      55.774   7.796  52.638  1.00  0.00     0.168 HD
BRANCH  18  25
HETATM   25  N1  UNL     1      51.693   6.012  48.291  1.00  0.00    -0.381 N 
ATOM     26  H1  UNL     1      51.934   6.187  47.315  1.00  0.00     0.160 HD
BRANCH  25  27
HETATM   27  C4  UNL     1      50.503   5.285  48.515  1.00  0.00     0.019 C 
HETATM   28  C5  UNL     1      50.489   3.979  47.777  1.00  0.00     0.037 C 
HETATM   29  C6  UNL     1      49.317   6.073  47.822  1.00  0.00     0.037 C 
HETATM   30  C7  UNL     1      50.108   5.117  49.948  1.00  0.00     0.037 C 
ENDBRANCH  25  27
ENDBRANCH  18  25
ENDBRANCH  10  12
ENDBRANCH   8   9
ENDBRANCH   7   8
ENDBRANCH   6   7
ENDBRANCH   5   6
ENDBRANCH   4   5
BRANCH   4  31
HETATM   31  O2  UNL     1      57.313   9.161  50.639  1.00  0.00    -0.337 OA
ATOM     32  H2  UNL     1      57.304   8.211  50.672  1.00  0.00     0.220 HD
ENDBRANCH   4  31
ENDBRANCH   1   4
TORSDOF 10
ENDMDL
MODEL 5
REMARK VINA RESULT: -8.056920838      2.975      8.345
REMARK  10 active torsions:
REMARK  status: ('A' for Active; 'I' for Inactive)
REMARK    1  A    between atoms: C3_3  and  N1_4 
REMARK    2  A    between atoms: N1_4  and  C4_6 
REMARK    3  A    between atoms: C10_14  and  C11_15 
REMARK       I    between atoms: C11_15  and  N3_17 
REMARK    4  A    between atoms: N3_17  and  C12_18 
REMARK    5  A    between atoms: C12_18  and  C13_19 
REMARK    6  A    between atoms: C13_19  and  C14_20 
REMARK    7  A    between atoms: C14_20  and  C15_21 
REMARK    8  A    between atoms: C15_21  and  C16_22 
REMARK    9  A    between atoms: C16_22  and  O2_23 
REMARK   10  A    between atoms: C16_22  and  N4_25 
ROOT
HETATM    1  N4  UNL     1      53.838   9.180  52.428  1.00  0.00    -0.262 NA
HETATM    2  O3  UNL     1      53.751   8.886  53.666  1.00  0.00    -0.217 OA
ATOM      3  H3  UNL     1      53.800   8.734  54.603  1.00  0.00     0.261 HD
ENDROOT
BRANCH   1   4
HETATM    4  C16 UNL     1      53.781   9.362  51.314  1.00  0.00     0.222 C 
BRANCH   4   5
HETATM    5  C15 UNL     1      53.575   8.112  50.324  1.00  0.00     0.103 C 
BRANCH   5   6
HETATM    6  C14 UNL     1      53.606   6.862  51.118  1.00  0.00     0.015 C 
BRANCH   6   7
HETATM    7  C13 UNL     1      54.834   6.022  51.024  1.00  0.00     0.060 C 
BRANCH   7   8
HETATM    8  C12 UNL     1      55.706   6.022  52.245  1.00  0.00     0.159 C 
BRANCH   8   9
HETATM    9  N3  UNL     1      56.470   6.937  52.740  1.00  0.00    -0.381 NA
HETATM   10  C11 UNL     1      57.317   7.934  53.288  1.00  0.00     0.359 C 
HETATM   11  O1  UNL     1      58.373   7.678  53.920  1.00  0.00    -0.248 OA
BRANCH  10  12
HETATM   12  C10 UNL     1      57.007   9.394  53.146  1.00  0.00     0.191 A 
HETATM   13  N2  UNL     1      56.502  10.185  54.204  1.00  0.00    -0.335 N 
HETATM   14  C9  UNL     1      56.446  11.442  53.683  1.00  0.00     0.063 A 
ATOM     15  H2  UNL     1      56.241   9.884  55.143  1.00  0.00     0.168 HD
HETATM   16  C8  UNL     1      56.061  12.697  54.210  1.00  0.00     0.061 A 
HETATM   17  C17 UNL     1      56.860  11.437  52.396  1.00  0.00     0.067 A 
HETATM   18  C3  UNL     1      56.090  13.862  53.471  1.00  0.00     0.037 A 
HETATM   19  C2  UNL     1      56.518  13.847  52.145  1.00  0.00    -0.027 A 
HETATM   20  C1  UNL     1      56.649  15.050  51.282  1.00  0.00     0.051 C 
HETATM   21  C18 UNL     1      56.885  12.628  51.673  1.00  0.00    -0.025 A 
HETATM   22  C19 UNL     1      57.301  12.479  50.235  1.00  0.00     0.051 C 
HETATM   23  N5  UNL     1      57.189  10.171  52.121  1.00  0.00    -0.335 N 
ATOM     24  H5  UNL     1      57.540   9.854  51.217  1.00  0.00     0.168 HD
BRANCH  18  25
HETATM   25  N1  UNL     1      55.629  15.085  53.995  1.00  0.00    -0.381 N 
ATOM     26  H1  UNL     1      54.638  15.286  53.860  1.00  0.00     0.160 HD
BRANCH  25  27
HETATM   27  C4  UNL     1      56.373  16.069  54.684  1.00  0.00     0.019 C 
HETATM   28  C5  UNL     1      55.890  16.264  56.091  1.00  0.00     0.037 C 
HETATM   29  C6  UNL     1      56.049  17.471  54.022  1.00  0.00     0.037 C 
HETATM   30  C7  UNL     1      57.860  15.916  54.624  1.00  0.00     0.037 C 
ENDBRANCH  25  27
ENDBRANCH  18  25
ENDBRANCH  10  12
ENDBRANCH   8   9
ENDBRANCH   7   8
ENDBRANCH   6   7
ENDBRANCH   5   6
ENDBRANCH   4   5
BRANCH   4  31
HETATM   31  O2  UNL     1      53.882  10.564  50.569  1.00  0.00    -0.337 OA
ATOM     32  H2  UNL     1      54.581  11.106  50.915  1.00  0.00     0.220 HD
ENDBRANCH   4  31
ENDBRANCH   1   4
TORSDOF 10
ENDMDL
