MODEL 1
REMARK VINA RESULT: -8.250727363      0.000      0.000
REMARK  14 active torsions:
REMARK  status: ('A' for Active; 'I' for Inactive)
REMARK    1  A    between atoms: C1_4  and  O1_5 
REMARK    2  A    between atoms: C1_4  and  C2_7 
REMARK    3  A    between atoms: C2_7  and  C3_8 
REMARK    4  A    between atoms: C3_8  and  C4_9 
REMARK    5  A    between atoms: C3_8  and  C6_17 
REMARK    6  A    between atoms: C4_9  and  C5_10 
REMARK    7  A    between atoms: C5_10  and  O2_11 
REMARK    8  A    between atoms: N2_13  and  O3_15 
REMARK    9  A    between atoms: C6_17  and  N3_18 
REMARK   10  A    between atoms: C7_20  and  C8_21 
REMARK   11  A    between atoms: C8_21  and  C9_22 
REMARK   12  A    between atoms: C9_22  and  O4_23 
REMARK   13  A    between atoms: N4_25  and  O5_27 
REMARK   14  A    between atoms: N5_29  and  C10_31 
ROOT
HETATM    1  C6  UNL     1      56.024  11.025  52.122  1.00  0.00     0.082 C 
HETATM    2  N5  UNL     1      55.860  12.244  52.146  1.00  0.00    -0.375 N 
ATOM      3  H5  UNL     1      56.761  12.689  51.971  1.00  0.00     0.161 HD
ENDROOT
BRANCH   1   4
HETATM    4  C3  UNL     1      55.103   9.887  52.306  1.00  0.00     0.068 C 
BRANCH   4   5
HETATM    5  C2  UNL     1      55.312   8.737  51.392  1.00  0.00     0.096 C 
BRANCH   5   6
HETATM    6  C1  UNL     1      55.440   7.432  52.095  1.00  0.00     0.109 C 
HETATM    7  N1  UNL     1      56.559   6.752  52.067  1.00  0.00    -0.384 N 
ATOM      8  H12 UNL     1      56.647   5.857  52.548  1.00  0.00     0.157 HD
ATOM      9  H11 UNL     1      57.317   7.181  51.535  1.00  0.00     0.157 HD
BRANCH   6  10
HETATM   10  O1  UNL     1      54.418   6.852  52.813  1.00  0.00    -0.350 OA
ATOM     11  H1  UNL     1      53.579   7.294  52.755  1.00  0.00     0.219 HD
ENDBRANCH   6  10
ENDBRANCH   5   6
ENDBRANCH   4   5
BRANCH   4  12
HETATM   12  C4  UNL     1      53.676  10.328  52.501  1.00  0.00     0.098 C 
BRANCH  12  13
HETATM   13  C5  UNL     1      53.187  10.328  53.872  1.00  0.00     0.136 C 
HETATM   14  N2  UNL     1      52.012  10.818  54.131  1.00  0.00    -0.251 N 
ATOM     15  H2  UNL     1      51.664  10.820  55.090  1.00  0.00     0.196 HD
BRANCH  13  16
HETATM   16  O2  UNL     1      53.860   9.844  54.983  1.00  0.00    -0.348 OA
ATOM     17  H2  UNL     1      53.489   9.696  55.845  1.00  0.00     0.219 HD
ENDBRANCH  13  16
BRANCH  14  18
HETATM   18  O3  UNL     1      51.236  11.332  53.125  1.00  0.00    -0.288 OA
ATOM     19  H3  UNL     1      50.949  12.237  53.154  1.00  0.00     0.244 HD
ENDBRANCH  14  18
ENDBRANCH  12  13
ENDBRANCH   4  12
ENDBRANCH   1   4
BRANCH   1  20
HETATM   20  N3  UNL     1      57.409  10.579  51.863  1.00  0.00    -0.359 N 
HETATM   21  C7  UNL     1      58.075  10.005  52.782  1.00  0.00     0.070 C 
ATOM     22  H3  UNL     1      57.831  10.730  50.947  1.00  0.00     0.166 HD
BRANCH  21  23
HETATM   23  C8  UNL     1      57.599   9.718  54.150  1.00  0.00     0.130 C 
BRANCH  23  24
HETATM   24  C9  UNL     1      58.395   8.620  54.785  1.00  0.00     0.140 C 
HETATM   25  N4  UNL     1      59.517   8.876  55.347  1.00  0.00    -0.251 N 
ATOM     26  H4  UNL     1      59.854   9.839  55.351  1.00  0.00     0.196 HD
BRANCH  24  27
HETATM   27  O4  UNL     1      57.950   7.308  54.785  1.00  0.00    -0.348 OA
ATOM     28  H4  UNL     1      58.162   6.710  55.492  1.00  0.00     0.219 HD
ENDBRANCH  24  27
BRANCH  25  29
HETATM   29  O5  UNL     1      60.278   7.920  55.937  1.00  0.00    -0.288 OA
ATOM     30  H5  UNL     1      61.130   7.663  55.604  1.00  0.00     0.244 HD
ENDBRANCH  25  29
ENDBRANCH  23  24
ENDBRANCH  21  23
ENDBRANCH   1  20
BRANCH   2  31
HETATM   31  C10 UNL     1      54.917  13.238  52.321  1.00  0.00     0.082 C 
HETATM   32  C11 UNL     1      54.728  13.612  53.812  1.00  0.00     0.025 C 
HETATM   33  C12 UNL     1      56.034  13.629  54.540  1.00  0.00     0.002 C 
HETATM   34  C13 UNL     1      56.474  15.039  54.883  1.00  0.00     0.000 C 
HETATM   35  C14 UNL     1      57.525  15.428  53.863  1.00  0.00     0.000 C 
HETATM   36  C15 UNL     1      56.890  16.033  52.627  1.00  0.00     0.000 C 
HETATM   37  C16 UNL     1      56.659  14.917  51.636  1.00  0.00     0.002 C 
HETATM   38  C17 UNL     1      55.220  14.537  51.581  1.00  0.00     0.025 C 
ENDBRANCH   2  31
TORSDOF 14
ENDMDL
MODEL 2
REMARK VINA RESULT: -8.141261947      1.195      2.869
REMARK  14 active torsions:
REMARK  status: ('A' for Active; 'I' for Inactive)
REMARK    1  A    between atoms: C1_4  and  O1_5 
REMARK    2  A    between atoms: C1_4  and  C2_7 
REMARK    3  A    between atoms: C2_7  and  C3_8 
REMARK    4  A    between atoms: C3_8  and  C4_9 
REMARK    5  A    between atoms: C3_8  and  C6_17 
REMARK    6  A    between atoms: C4_9  and  C5_10 
REMARK    7  A    between atoms: C5_10  and  O2_11 
REMARK    8  A    between atoms: N2_13  and  O3_15 
REMARK    9  A    between atoms: C6_17  and  N3_18 
REMARK   10  A    between atoms: C7_20  and  C8_21 
REMARK   11  A    between atoms: C8_21  and  C9_22 
REMARK   12  A    between atoms: C9_22  and  O4_23 
REMARK   13  A    between atoms: N4_25  and  O5_27 
REMARK   14  A    between atoms: N5_29  and  C10_31 
ROOT
HETATM    1  C6  UNL     1      55.743  11.020  51.762  1.00  0.00     0.082 C 
HETATM    2  N5  UNL     1      55.597  12.239  51.828  1.00  0.00    -0.375 N 
ATOM      3  H5  UNL     1      56.449  12.680  51.484  1.00  0.00     0.161 HD
ENDROOT
BRANCH   1   4
HETATM    4  C3  UNL     1      54.866   9.885  52.112  1.00  0.00     0.068 C 
BRANCH   4   5
HETATM    5  C2  UNL     1      54.699   9.624  53.562  1.00  0.00     0.096 C 
BRANCH   5   6
HETATM    6  C1  UNL     1      53.445  10.188  54.130  1.00  0.00     0.109 C 
HETATM    7  N1  UNL     1      52.500  10.660  53.355  1.00  0.00    -0.384 N 
ATOM      8  H12 UNL     1      51.640  11.047  53.743  1.00  0.00     0.157 HD
ATOM      9  H11 UNL     1      52.692  10.610  52.354  1.00  0.00     0.157 HD
BRANCH   6  10
HETATM   10  O1  UNL     1      53.186  10.256  55.481  1.00  0.00    -0.350 OA
ATOM     11  H1  UNL     1      53.863   9.898  56.042  1.00  0.00     0.219 HD
ENDBRANCH   6  10
ENDBRANCH   5   6
ENDBRANCH   4   5
BRANCH   4  12
HETATM   12  C4  UNL     1      55.114   8.678  51.245  1.00  0.00     0.098 C 
BRANCH  12  13
HETATM   13  C5  UNL     1      54.429   7.456  51.637  1.00  0.00     0.136 C 
HETATM   14  N2  UNL     1      55.127   6.400  51.934  1.00  0.00    -0.251 N 
ATOM     15  H2  UNL     1      54.651   5.540  52.210  1.00  0.00     0.196 HD
BRANCH  13  16
HETATM   16  O2  UNL     1      53.058   7.279  51.735  1.00  0.00    -0.348 OA
ATOM     17  H2  UNL     1      52.510   6.785  51.137  1.00  0.00     0.219 HD
ENDBRANCH  13  16
BRANCH  14  18
HETATM   18  O3  UNL     1      56.495   6.432  51.878  1.00  0.00    -0.288 OA
ATOM     19  H3  UNL     1      57.012   6.377  52.673  1.00  0.00     0.244 HD
ENDBRANCH  14  18
ENDBRANCH  12  13
ENDBRANCH   4  12
ENDBRANCH   1   4
BRANCH   1  20
HETATM   20  N3  UNL     1      57.046  10.567  51.232  1.00  0.00    -0.359 N 
HETATM   21  C7  UNL     1      57.966  10.202  52.031  1.00  0.00     0.070 C 
ATOM     22  H3  UNL     1      57.208  10.547  50.226  1.00  0.00     0.166 HD
BRANCH  21  23
HETATM   23  C8  UNL     1      57.876  10.177  53.505  1.00  0.00     0.130 C 
BRANCH  23  24
HETATM   24  C9  UNL     1      58.135   8.804  54.043  1.00  0.00     0.140 C 
HETATM   25  N4  UNL     1      58.519   7.864  53.262  1.00  0.00    -0.251 N 
ATOM     26  H4  UNL     1      58.643   8.072  52.272  1.00  0.00     0.196 HD
BRANCH  24  27
HETATM   27  O4  UNL     1      57.968   8.508  55.387  1.00  0.00    -0.348 OA
ATOM     28  H4  UNL     1      58.694   8.214  55.926  1.00  0.00     0.219 HD
ENDBRANCH  24  27
BRANCH  25  29
HETATM   29  O5  UNL     1      58.767   6.603  53.697  1.00  0.00    -0.288 OA
ATOM     30  H5  UNL     1      59.488   6.078  53.367  1.00  0.00     0.244 HD
ENDBRANCH  25  29
ENDBRANCH  23  24
ENDBRANCH  21  23
ENDBRANCH   1  20
BRANCH   2  31
HETATM   31  C10 UNL     1      54.714  13.236  52.193  1.00  0.00     0.082 C 
HETATM   32  C11 UNL     1      54.695  13.472  53.724  1.00  0.00     0.025 C 
HETATM   33  C12 UNL     1      56.069  13.384  54.307  1.00  0.00     0.002 C 
HETATM   34  C13 UNL     1      56.595  14.743  54.729  1.00  0.00     0.000 C 
HETATM   35  C14 UNL     1      57.548  15.199  53.643  1.00  0.00     0.000 C 
HETATM   36  C15 UNL     1      56.810  15.936  52.543  1.00  0.00     0.000 C 
HETATM   37  C16 UNL     1      56.436  14.926  51.484  1.00  0.00     0.002 C 
HETATM   38  C17 UNL     1      54.986  14.591  51.548  1.00  0.00     0.025 C 
ENDBRANCH   2  31
TORSDOF 14
ENDMDL
MODEL 3
REMARK VINA RESULT: -8.138379122      1.573      1.829
REMARK  14 active torsions:
REMARK  status: ('A' for Active; 'I' for Inactive)
REMARK    1  A    between atoms: C1_4  and  O1_5 
REMARK    2  A    between atoms: C1_4  and  C2_7 
REMARK    3  A    between atoms: C2_7  and  C3_8 
REMARK    4  A    between atoms: C3_8  and  C4_9 
REMARK    5  A    between atoms: C3_8  and  C6_17 
REMARK    6  A    between atoms: C4_9  and  C5_10 
REMARK    7  A    between atoms: C5_10  and  O2_11 
REMARK    8  A    between atoms: N2_13  and  O3_15 
REMARK    9  A    between atoms: C6_17  and  N3_18 
REMARK   10  A    between atoms: C7_20  and  C8_21 
REMARK   11  A    between atoms: C8_21  and  C9_22 
REMARK   12  A    between atoms: C9_22  and  O4_23 
REMARK   13  A    between atoms: N4_25  and  O5_27 
REMARK   14  A    between atoms: N5_29  and  C10_31 
ROOT
HETATM    1  C6  UNL     1      55.589  11.599  51.595  1.00  0.00     0.082 C 
HETATM    2  N5  UNL     1      55.614  12.814  51.784  1.00  0.00    -0.375 N 
ATOM      3  H5  UNL     1      56.566  13.141  51.620  1.00  0.00     0.161 HD
ENDROOT
BRANCH   1   4
HETATM    4  C3  UNL     1      54.512  10.594  51.679  1.00  0.00     0.068 C 
BRANCH   4   5
HETATM    5  C2  UNL     1      53.955  10.137  50.383  1.00  0.00     0.096 C 
BRANCH   5   6
HETATM    6  C1  UNL     1      52.817   9.189  50.522  1.00  0.00     0.109 C 
HETATM    7  N1  UNL     1      53.010   7.943  50.877  1.00  0.00    -0.384 N 
ATOM      8  H12 UNL     1      52.230   7.293  50.973  1.00  0.00     0.157 HD
ATOM      9  H11 UNL     1      53.982   7.684  51.046  1.00  0.00     0.157 HD
BRANCH   6  10
HETATM   10  O1  UNL     1      51.504   9.539  50.294  1.00  0.00    -0.350 OA
ATOM     11  H1  UNL     1      51.377  10.369  49.851  1.00  0.00     0.219 HD
ENDBRANCH   6  10
ENDBRANCH   5   6
ENDBRANCH   4   5
BRANCH   4  12
HETATM   12  C4  UNL     1      53.508  10.916  52.756  1.00  0.00     0.098 C 
BRANCH  12  13
HETATM   13  C5  UNL     1      53.471  10.006  53.890  1.00  0.00     0.136 C 
HETATM   14  N2  UNL     1      53.058  10.440  55.044  1.00  0.00    -0.251 N 
ATOM     15  H2  UNL     1      53.029   9.806  55.843  1.00  0.00     0.196 HD
BRANCH  13  16
HETATM   16  O2  UNL     1      53.840   8.670  53.884  1.00  0.00    -0.348 OA
ATOM     17  H2  UNL     1      54.249   8.196  54.597  1.00  0.00     0.219 HD
ENDBRANCH  13  16
BRANCH  14  18
HETATM   18  O3  UNL     1      52.663  11.743  55.195  1.00  0.00    -0.288 OA
ATOM     19  H3  UNL     1      52.502  12.289  54.435  1.00  0.00     0.244 HD
ENDBRANCH  14  18
ENDBRANCH  12  13
ENDBRANCH   4  12
ENDBRANCH   1   4
BRANCH   1  20
HETATM   20  N3  UNL     1      56.880  10.993  51.207  1.00  0.00    -0.359 N 
HETATM   21  C7  UNL     1      57.540  10.305  52.048  1.00  0.00     0.070 C 
ATOM     22  H3  UNL     1      57.242  11.126  50.263  1.00  0.00     0.166 HD
BRANCH  21  23
HETATM   23  C8  UNL     1      57.143  10.028  53.444  1.00  0.00     0.130 C 
BRANCH  23  24
HETATM   24  C9  UNL     1      57.884   8.850  53.997  1.00  0.00     0.140 C 
HETATM   25  N4  UNL     1      58.463   8.022  53.210  1.00  0.00    -0.251 N 
ATOM     26  H4  UNL     1      58.408   8.183  52.205  1.00  0.00     0.196 HD
BRANCH  24  27
HETATM   27  O4  UNL     1      57.965   8.619  55.361  1.00  0.00    -0.348 OA
ATOM     28  H4  UNL     1      58.275   9.288  55.962  1.00  0.00     0.219 HD
ENDBRANCH  24  27
BRANCH  25  29
HETATM   29  O5  UNL     1      59.147   6.939  53.657  1.00  0.00    -0.288 OA
ATOM     30  H5  UNL     1      59.604   6.927  54.491  1.00  0.00     0.244 HD
ENDBRANCH  25  29
ENDBRANCH  23  24
ENDBRANCH  21  23
ENDBRANCH   1  20
BRANCH   2  31
HETATM   31  C10 UNL     1      54.840  13.902  52.136  1.00  0.00     0.082 C 
HETATM   32  C11 UNL     1      54.714  14.060  53.672  1.00  0.00     0.025 C 
HETATM   33  C12 UNL     1      56.006  13.758  54.360  1.00  0.00     0.002 C 
HETATM   34  C13 UNL     1      56.664  15.010  54.908  1.00  0.00     0.000 C 
HETATM   35  C14 UNL     1      57.763  15.386  53.935  1.00  0.00     0.000 C 
HETATM   36  C15 UNL     1      57.231  16.271  52.825  1.00  0.00     0.000 C 
HETATM   37  C16 UNL     1      56.825  15.376  51.678  1.00  0.00     0.002 C 
HETATM   38  C17 UNL     1      55.345  15.238  51.601  1.00  0.00     0.025 C 
ENDBRANCH   2  31
TORSDOF 14
ENDMDL
MODEL 4
REMARK VINA RESULT: -7.976172944      1.991      2.256
REMARK  14 active torsions:
REMARK  status: ('A' for Active; 'I' for Inactive)
REMARK    1  A    between atoms: C1_4  and  O1_5 
REMARK    2  A    between atoms: C1_4  and  C2_7 
REMARK    3  A    between atoms: C2_7  and  C3_8 
REMARK    4  A    between atoms: C3_8  and  C4_9 
REMARK    5  A    between atoms: C3_8  and  C6_17 
REMARK    6  A    between atoms: C4_9  and  C5_10 
REMARK    7  A    between atoms: C5_10  and  O2_11 
REMARK    8  A    between atoms: N2_13  and  O3_15 
REMARK    9  A    between atoms: C6_17  and  N3_18 
REMARK   10  A    between atoms: C7_20  and  C8_21 
REMARK   11  A    between atoms: C8_21  and  C9_22 
REMARK   12  A    between atoms: C9_22  and  O4_23 
REMARK   13  A    between atoms: N4_25  and  O5_27 
REMARK   14  A    between atoms: N5_29  and  C10_31 
ROOT
HETATM    1  C6  UNL     1      56.226   9.973  52.193  1.00  0.00     0.082 C 
HETATM    2  N5  UNL     1      55.845  11.121  52.413  1.00  0.00    -0.375 N 
ATOM      3  H5  UNL     1      56.663  11.731  52.420  1.00  0.00     0.161 HD
ENDROOT
BRANCH   1   4
HETATM    4  C3  UNL     1      55.511   8.687  52.069  1.00  0.00     0.068 C 
BRANCH   4   5
HETATM    5  C2  UNL     1      56.031   7.759  51.035  1.00  0.00     0.096 C 
BRANCH   5   6
HETATM    6  C1  UNL     1      55.980   6.328  51.437  1.00  0.00     0.109 C 
HETATM    7  N1  UNL     1      55.060   5.522  50.968  1.00  0.00    -0.384 N 
ATOM      8  H12 UNL     1      55.025   4.541  51.243  1.00  0.00     0.157 HD
ATOM      9  H11 UNL     1      54.397   5.948  50.319  1.00  0.00     0.157 HD
BRANCH   6  10
HETATM   10  O1  UNL     1      56.874   5.753  52.313  1.00  0.00    -0.350 OA
ATOM     11  H1  UNL     1      56.488   5.200  52.982  1.00  0.00     0.219 HD
ENDBRANCH   6  10
ENDBRANCH   5   6
ENDBRANCH   4   5
BRANCH   4  12
HETATM   12  C4  UNL     1      54.015   8.853  52.119  1.00  0.00     0.098 C 
BRANCH  12  13
HETATM   13  C5  UNL     1      53.340   8.971  50.836  1.00  0.00     0.136 C 
HETATM   14  N2  UNL     1      52.577   8.002  50.424  1.00  0.00    -0.251 N 
ATOM     15  H2  UNL     1      52.101   8.079  49.525  1.00  0.00     0.196 HD
BRANCH  13  16
HETATM   16  O2  UNL     1      53.419  10.043  49.961  1.00  0.00    -0.348 OA
ATOM     17  H2  UNL     1      53.766  10.025  49.078  1.00  0.00     0.219 HD
ENDBRANCH  13  16
BRANCH  14  18
HETATM   18  O3  UNL     1      52.409   6.877  51.189  1.00  0.00    -0.288 OA
ATOM     19  H3  UNL     1      52.882   6.080  50.984  1.00  0.00     0.244 HD
ENDBRANCH  14  18
ENDBRANCH  12  13
ENDBRANCH   4  12
ENDBRANCH   1   4
BRANCH   1  20
HETATM   20  N3  UNL     1      57.684   9.813  52.014  1.00  0.00    -0.359 N 
HETATM   21  C7  UNL     1      58.414   9.482  53.000  1.00  0.00     0.070 C 
ATOM     22  H3  UNL     1      58.105   9.968  51.098  1.00  0.00     0.166 HD
BRANCH  21  23
HETATM   23  C8  UNL     1      57.948   9.225  54.378  1.00  0.00     0.130 C 
BRANCH  23  24
HETATM   24  C9  UNL     1      58.350   7.860  54.844  1.00  0.00     0.140 C 
HETATM   25  N4  UNL     1      58.745   6.979  54.002  1.00  0.00    -0.251 N 
ATOM     26  H4  UNL     1      58.779   7.228  53.014  1.00  0.00     0.196 HD
BRANCH  24  27
HETATM   27  O4  UNL     1      58.307   7.508  56.184  1.00  0.00    -0.348 OA
ATOM     28  H4  UNL     1      59.072   7.581  56.742  1.00  0.00     0.219 HD
ENDBRANCH  24  27
BRANCH  25  29
HETATM   29  O5  UNL     1      59.121   5.728  54.369  1.00  0.00    -0.288 OA
ATOM     30  H5  UNL     1      58.643   4.950  54.108  1.00  0.00     0.244 HD
ENDBRANCH  25  29
ENDBRANCH  23  24
ENDBRANCH  21  23
ENDBRANCH   1  20
BRANCH   2  31
HETATM   31  C10 UNL     1      54.728  11.897  52.655  1.00  0.00     0.082 C 
HETATM   32  C11 UNL     1      54.746  12.525  54.071  1.00  0.00     0.025 C 
HETATM   33  C12 UNL     1      56.118  12.981  54.449  1.00  0.00     0.002 C 
HETATM   34  C13 UNL     1      56.234  14.493  54.453  1.00  0.00     0.000 C 
HETATM   35  C14 UNL     1      56.925  14.880  53.161  1.00  0.00     0.000 C 
HETATM   36  C15 UNL     1      55.924  15.058  52.038  1.00  0.00     0.000 C 
HETATM   37  C16 UNL     1      55.801  13.737  51.317  1.00  0.00     0.002 C 
HETATM   38  C17 UNL     1      54.530  13.046  51.672  1.00  0.00     0.025 C 
ENDBRANCH   2  31
TORSDOF 14
ENDMDL
MODEL 5
REMARK VINA RESULT: -7.940121791      2.042      2.778
REMARK  14 active torsions:
REMARK  status: ('A' for Active; 'I' for Inactive)
REMARK    1  A    between atoms: C1_4  and  O1_5 
REMARK    2  A    between atoms: C1_4  and  C2_7 
REMARK    3  A    between atoms: C2_7  and  C3_8 
REMARK    4  A    between atoms: C3_8  and  C4_9 
REMARK    5  A    between atoms: C3_8  and  C6_17 
REMARK    6  A    between atoms: C4_9  and  C5_10 
REMARK    7  A    between atoms: C5_10  and  O2_11 
REMARK    8  A    between atoms: N2_13  and  O3_15 
REMARK    9  A    between atoms: C6_17  and  N3_18 
REMARK   10  A    between atoms: C7_20  and  C8_21 
REMARK   11  A    between atoms: C8_21  and  C9_22 
REMARK   12  A    between atoms: C9_22  and  O4_23 
REMARK   13  A    between atoms: N4_25  and  O5_27 
REMARK   14  A    between atoms: N5_29  and  C10_31 
ROOT
HETATM    1  C6  UNL     1      55.686  10.364  51.641  1.00  0.00     0.082 C 
HETATM    2  N5  UNL     1      55.480  11.495  52.079  1.00  0.00    -0.375 N 
ATOM      3  H5  UNL     1      56.376  11.979  52.139  1.00  0.00     0.161 HD
ENDROOT
BRANCH   1   4
HETATM    4  C3  UNL     1      54.792   9.227  51.343  1.00  0.00     0.068 C 
BRANCH   4   5
HETATM    5  C2  UNL     1      53.471   9.581  50.769  1.00  0.00     0.096 C 
BRANCH   5   6
HETATM    6  C1  UNL     1      52.890   8.517  49.907  1.00  0.00     0.109 C 
HETATM    7  N1  UNL     1      51.606   8.255  49.922  1.00  0.00    -0.384 N 
ATOM      8  H12 UNL     1      51.208   7.526  49.331  1.00  0.00     0.157 HD
ATOM      9  H11 UNL     1      51.052   8.828  50.559  1.00  0.00     0.157 HD
BRANCH   6  10
HETATM   10  O1  UNL     1      53.637   7.742  49.048  1.00  0.00    -0.350 OA
ATOM     11  H1  UNL     1      54.503   7.508  49.362  1.00  0.00     0.219 HD
ENDBRANCH   6  10
ENDBRANCH   5   6
ENDBRANCH   4   5
BRANCH   4  12
HETATM   12  C4  UNL     1      54.784   8.199  52.443  1.00  0.00     0.098 C 
BRANCH  12  13
HETATM   13  C5  UNL     1      55.290   6.880  52.092  1.00  0.00     0.136 C 
HETATM   14  N2  UNL     1      54.452   5.937  51.781  1.00  0.00    -0.251 N 
ATOM     15  H2  UNL     1      54.801   5.011  51.533  1.00  0.00     0.196 HD
BRANCH  13  16
HETATM   16  O2  UNL     1      56.621   6.497  52.050  1.00  0.00    -0.348 OA
ATOM     17  H2  UNL     1      57.050   5.887  52.639  1.00  0.00     0.219 HD
ENDBRANCH  13  16
BRANCH  14  18
HETATM   18  O3  UNL     1      53.103   6.177  51.783  1.00  0.00    -0.288 OA
ATOM     19  H3  UNL     1      52.582   5.995  52.556  1.00  0.00     0.244 HD
ENDBRANCH  14  18
ENDBRANCH  12  13
ENDBRANCH   4  12
ENDBRANCH   1   4
BRANCH   1  20
HETATM   20  N3  UNL     1      57.098  10.047  51.345  1.00  0.00    -0.359 N 
HETATM   21  C7  UNL     1      57.885   9.709  52.285  1.00  0.00     0.070 C 
ATOM     22  H3  UNL     1      57.443  10.099  50.387  1.00  0.00     0.166 HD
BRANCH  21  23
HETATM   23  C8  UNL     1      57.531   9.591  53.714  1.00  0.00     0.130 C 
BRANCH  23  24
HETATM   24  C9  UNL     1      58.252   8.449  54.361  1.00  0.00     0.140 C 
HETATM   25  N4  UNL     1      58.867   7.583  53.646  1.00  0.00    -0.251 N 
ATOM     26  H4  UNL     1      58.854   7.689  52.632  1.00  0.00     0.196 HD
BRANCH  24  27
HETATM   27  O4  UNL     1      58.275   8.293  55.738  1.00  0.00    -0.348 OA
ATOM     28  H4  UNL     1      57.590   7.821  56.197  1.00  0.00     0.219 HD
ENDBRANCH  24  27
BRANCH  25  29
HETATM   29  O5  UNL     1      59.535   6.530  54.180  1.00  0.00    -0.288 OA
ATOM     30  H5  UNL     1      59.122   5.692  54.352  1.00  0.00     0.244 HD
ENDBRANCH  25  29
ENDBRANCH  23  24
ENDBRANCH  21  23
ENDBRANCH   1  20
BRANCH   2  31
HETATM   31  C10 UNL     1      54.495  12.356  52.521  1.00  0.00     0.082 C 
HETATM   32  C11 UNL     1      54.680  12.745  54.009  1.00  0.00     0.025 C 
HETATM   33  C12 UNL     1      56.122  12.961  54.341  1.00  0.00     0.002 C 
HETATM   34  C13 UNL     1      56.441  14.427  54.561  1.00  0.00     0.000 C 
HETATM   35  C14 UNL     1      57.101  14.924  53.291  1.00  0.00     0.000 C 
HETATM   36  C15 UNL     1      56.069  15.400  52.289  1.00  0.00     0.000 C 
HETATM   37  C16 UNL     1      55.727  14.235  51.392  1.00  0.00     0.002 C 
HETATM   38  C17 UNL     1      54.397  13.661  51.739  1.00  0.00     0.025 C 
ENDBRANCH   2  31
TORSDOF 14
ENDMDL
