MODEL 1
REMARK VINA RESULT: -8.073414136      0.000      0.000
REMARK  12 active torsions:
REMARK  status: ('A' for Active; 'I' for Inactive)
REMARK    1  A    between atoms: C2_2  and  C4_4 
REMARK    2  A    between atoms: C5_5  and  C6_6 
REMARK    3  A    between atoms: C8_9  and  O2_10 
REMARK    4  A    between atoms: C10_15  and  N2_16 
REMARK    5  A    between atoms: N2_16  and  N3_18 
REMARK    6  A    between atoms: C11_21  and  C12_22 
REMARK    7  A    between atoms: C13_23  and  C14_24 
REMARK    8  A    between atoms: C14_24  and  C15_25 
REMARK    9  A    between atoms: C15_25  and  C16_26 
REMARK   10  A    between atoms: C16_26  and  C17_27 
REMARK   11  A    between atoms: C19_29  and  O3_30 
REMARK   12  A    between atoms: C21_33  and  O4_34 
ROOT
HETATM    1  C4  UNL     1      53.814   7.032  50.319  1.00  0.00     0.020 A 
HETATM    2  C5  UNL     1      54.826   6.205  50.621  1.00  0.00     0.058 A 
HETATM    3  C8  UNL     1      55.780   6.652  51.570  1.00  0.00     0.108 A 
HETATM    4  C9  UNL     1      55.669   7.884  52.151  1.00  0.00     0.084 A 
HETATM    5  N1  UNL     1      56.602   8.284  53.059  1.00  0.00    -0.338 N 
ATOM      6  H1  UNL     1      57.369   7.650  53.285  1.00  0.00     0.167 HD
HETATM    7  C10 UNL     1      56.553   9.459  53.657  1.00  0.00     0.133 A 
HETATM    8  C11 UNL     1      55.517  10.375  53.384  1.00  0.00     0.043 A 
HETATM    9  C19 UNL     1      54.571   9.997  52.472  1.00  0.00     0.095 A 
HETATM   10  C20 UNL     1      54.660   8.723  51.854  1.00  0.00     0.062 A 
HETATM   11  C21 UNL     1      53.715   8.327  50.941  1.00  0.00     0.092 A 
ENDROOT
BRANCH   8  12
HETATM   12  C12 UNL     1      55.647  11.650  54.060  1.00  0.00     0.014 C 
HETATM   13  C13 UNL     1      55.742  12.872  53.764  1.00  0.00    -0.026 C 
BRANCH  13  14
HETATM   14  C14 UNL     1      55.761  13.659  52.537  1.00  0.00     0.027 C 
BRANCH  14  15
HETATM   15  C15 UNL     1      57.135  13.793  51.959  1.00  0.00     0.004 C 
BRANCH  15  16
HETATM   16  C16 UNL     1      57.457  12.637  51.059  1.00  0.00    -0.000 C 
BRANCH  16  17
HETATM   17  C17 UNL     1      58.568  11.760  51.516  1.00  0.00    -0.005 C 
HETATM   18  C18 UNL     1      58.467  10.384  50.867  1.00  0.00     0.005 C 
ENDBRANCH  16  17
ENDBRANCH  15  16
ENDBRANCH  14  15
ENDBRANCH  13  14
ENDBRANCH   8  12
BRANCH   7  19
HETATM   19  N2  UNL     1      57.458   9.788  54.514  1.00  0.00    -0.291 N 
ATOM     20  H2  UNL     1      57.347  10.635  55.072  1.00  0.00     0.188 HD
BRANCH  19  21
HETATM   21  N3  UNL     1      58.579   8.995  54.680  1.00  0.00    -0.344 N 
ATOM     22  H32 UNL     1      58.506   7.994  54.502  1.00  0.00     0.176 HD
ATOM     23  H31 UNL     1      59.462   9.412  54.976  1.00  0.00     0.176 HD
ENDBRANCH  19  21
ENDBRANCH   7  19
BRANCH   9  24
HETATM   24  O3  UNL     1      53.554  10.751  52.100  1.00  0.00    -0.359 OA
ATOM     25  H3  UNL     1      53.247  10.832  51.205  1.00  0.00     0.217 HD
ENDBRANCH   9  24
BRANCH  11  26
HETATM   26  O4  UNL     1      52.657   9.042  50.541  1.00  0.00    -0.359 OA
ATOM     27  H4  UNL     1      52.589   9.135  49.598  1.00  0.00     0.217 HD
ENDBRANCH  11  26
BRANCH   3  28
HETATM   28  O2  UNL     1      56.796   5.801  51.866  1.00  0.00    -0.357 OA
ATOM     29  H2  UNL     1      57.153   5.293  51.147  1.00  0.00     0.217 HD
ENDBRANCH   3  28
BRANCH   1  30
HETATM   30  C2  UNL     1      52.683   6.751  49.409  1.00  0.00    -0.057 C 
HETATM   31  C1  UNL     1      52.795   7.059  48.136  1.00  0.00     0.019 C 
HETATM   32  C3  UNL     1      51.416   6.242  49.945  1.00  0.00     0.048 C 
ENDBRANCH   1  30
BRANCH   2  33
HETATM   33  C6  UNL     1      55.027   4.905  50.036  1.00  0.00     0.159 C 
HETATM   34  C7  UNL     1      54.402   3.642  50.359  1.00  0.00     0.097 C 
HETATM   35  O1  UNL     1      55.889   4.853  49.076  1.00  0.00    -0.293 OA
ENDBRANCH   2  33
TORSDOF 12
ENDMDL
MODEL 2
REMARK VINA RESULT: -7.863975645      1.181      1.856
REMARK  12 active torsions:
REMARK  status: ('A' for Active; 'I' for Inactive)
REMARK    1  A    between atoms: C2_2  and  C4_4 
REMARK    2  A    between atoms: C5_5  and  C6_6 
REMARK    3  A    between atoms: C8_9  and  O2_10 
REMARK    4  A    between atoms: C10_15  and  N2_16 
REMARK    5  A    between atoms: N2_16  and  N3_18 
REMARK    6  A    between atoms: C11_21  and  C12_22 
REMARK    7  A    between atoms: C13_23  and  C14_24 
REMARK    8  A    between atoms: C14_24  and  C15_25 
REMARK    9  A    between atoms: C15_25  and  C16_26 
REMARK   10  A    between atoms: C16_26  and  C17_27 
REMARK   11  A    between atoms: C19_29  and  O3_30 
REMARK   12  A    between atoms: C21_33  and  O4_34 
ROOT
HETATM    1  C4  UNL     1      53.675   6.927  50.299  1.00  0.00     0.020 A 
HETATM    2  C5  UNL     1      54.748   6.167  50.564  1.00  0.00     0.058 A 
HETATM    3  C8  UNL     1      55.704   6.673  51.481  1.00  0.00     0.108 A 
HETATM    4  C9  UNL     1      55.535   7.896  52.069  1.00  0.00     0.084 A 
HETATM    5  N1  UNL     1      56.471   8.354  52.944  1.00  0.00    -0.338 N 
ATOM      6  H1  UNL     1      57.284   7.771  53.142  1.00  0.00     0.167 HD
HETATM    7  C10 UNL     1      56.368   9.524  53.547  1.00  0.00     0.133 A 
HETATM    8  C11 UNL     1      55.266  10.371  53.312  1.00  0.00     0.043 A 
HETATM    9  C19 UNL     1      54.315   9.934  52.434  1.00  0.00     0.095 A 
HETATM   10  C20 UNL     1      54.464   8.669  51.809  1.00  0.00     0.062 A 
HETATM   11  C21 UNL     1      53.515   8.213  50.929  1.00  0.00     0.092 A 
ENDROOT
BRANCH   8  12
HETATM   12  C12 UNL     1      55.338  11.652  53.987  1.00  0.00     0.014 C 
HETATM   13  C13 UNL     1      55.323  12.878  53.693  1.00  0.00    -0.026 C 
BRANCH  13  14
HETATM   14  C14 UNL     1      55.212  13.666  52.471  1.00  0.00     0.027 C 
BRANCH  14  15
HETATM   15  C15 UNL     1      55.972  14.952  52.542  1.00  0.00     0.004 C 
BRANCH  15  16
HETATM   16  C16 UNL     1      57.174  14.820  53.430  1.00  0.00    -0.000 C 
BRANCH  16  17
HETATM   17  C17 UNL     1      57.425  15.968  54.343  1.00  0.00    -0.005 C 
HETATM   18  C18 UNL     1      56.861  15.681  55.731  1.00  0.00     0.005 C 
ENDBRANCH  16  17
ENDBRANCH  15  16
ENDBRANCH  14  15
ENDBRANCH  13  14
ENDBRANCH   8  12
BRANCH   7  19
HETATM   19  N2  UNL     1      57.279   9.909  54.373  1.00  0.00    -0.291 N 
ATOM     20  H2  UNL     1      57.189  10.808  54.848  1.00  0.00     0.188 HD
BRANCH  19  21
HETATM   21  N3  UNL     1      58.379   9.108  54.618  1.00  0.00    -0.344 N 
ATOM     22  H32 UNL     1      58.614   8.375  53.949  1.00  0.00     0.176 HD
ATOM     23  H31 UNL     1      58.943   9.253  55.455  1.00  0.00     0.176 HD
ENDBRANCH  19  21
ENDBRANCH   7  19
BRANCH   9  24
HETATM   24  O3  UNL     1      53.240  10.622  52.099  1.00  0.00    -0.359 OA
ATOM     25  H3  UNL     1      52.627  10.994  52.722  1.00  0.00     0.217 HD
ENDBRANCH   9  24
BRANCH  11  26
HETATM   26  O4  UNL     1      52.400   8.859  50.567  1.00  0.00    -0.359 OA
ATOM     27  H4  UNL     1      52.199   8.793  49.641  1.00  0.00     0.217 HD
ENDBRANCH  11  26
BRANCH   3  28
HETATM   28  O2  UNL     1      56.781   5.890  51.739  1.00  0.00    -0.357 OA
ATOM     29  H2  UNL     1      56.912   5.623  52.641  1.00  0.00     0.217 HD
ENDBRANCH   3  28
BRANCH   1  30
HETATM   30  C2  UNL     1      52.533   6.575  49.429  1.00  0.00    -0.057 C 
HETATM   31  C1  UNL     1      52.558   6.936  48.165  1.00  0.00     0.019 C 
HETATM   32  C3  UNL     1      51.344   5.933  49.999  1.00  0.00     0.048 C 
ENDBRANCH   1  30
BRANCH   2  33
HETATM   33  C6  UNL     1      55.010   4.883  49.969  1.00  0.00     0.159 C 
HETATM   34  C7  UNL     1      54.489   3.580  50.317  1.00  0.00     0.097 C 
HETATM   35  O1  UNL     1      55.832   4.888  48.972  1.00  0.00    -0.293 OA
ENDBRANCH   2  33
TORSDOF 12
ENDMDL
MODEL 3
REMARK VINA RESULT: -7.671952186      2.083      3.161
REMARK  12 active torsions:
REMARK  status: ('A' for Active; 'I' for Inactive)
REMARK    1  A    between atoms: C2_2  and  C4_4 
REMARK    2  A    between atoms: C5_5  and  C6_6 
REMARK    3  A    between atoms: C8_9  and  O2_10 
REMARK    4  A    between atoms: C10_15  and  N2_16 
REMARK    5  A    between atoms: N2_16  and  N3_18 
REMARK    6  A    between atoms: C11_21  and  C12_22 
REMARK    7  A    between atoms: C13_23  and  C14_24 
REMARK    8  A    between atoms: C14_24  and  C15_25 
REMARK    9  A    between atoms: C15_25  and  C16_26 
REMARK   10  A    between atoms: C16_26  and  C17_27 
REMARK   11  A    between atoms: C19_29  and  O3_30 
REMARK   12  A    between atoms: C21_33  and  O4_34 
ROOT
HETATM    1  C4  UNL     1      55.575   4.768  50.940  1.00  0.00     0.020 A 
HETATM    2  C5  UNL     1      56.362   4.076  51.778  1.00  0.00     0.058 A 
HETATM    3  C8  UNL     1      57.143   4.811  52.706  1.00  0.00     0.108 A 
HETATM    4  C9  UNL     1      57.094   6.176  52.739  1.00  0.00     0.084 A 
HETATM    5  N1  UNL     1      57.857   6.853  53.641  1.00  0.00    -0.338 N 
ATOM      6  H1  UNL     1      58.452   6.321  54.276  1.00  0.00     0.167 HD
HETATM    7  C10 UNL     1      57.855   8.170  53.726  1.00  0.00     0.133 A 
HETATM    8  C11 UNL     1      57.053   8.956  52.876  1.00  0.00     0.043 A 
HETATM    9  C19 UNL     1      56.281   8.299  51.958  1.00  0.00     0.095 A 
HETATM   10  C20 UNL     1      56.311   6.882  51.902  1.00  0.00     0.062 A 
HETATM   11  C21 UNL     1      55.538   6.207  50.990  1.00  0.00     0.092 A 
ENDROOT
BRANCH   8  12
HETATM   12  C12 UNL     1      57.222  10.387  53.040  1.00  0.00     0.014 C 
HETATM   13  C13 UNL     1      56.517  11.399  53.298  1.00  0.00    -0.026 C 
BRANCH  13  14
HETATM   14  C14 UNL     1      55.110  11.656  53.584  1.00  0.00     0.027 C 
BRANCH  14  15
HETATM   15  C15 UNL     1      54.823  13.107  53.806  1.00  0.00     0.004 C 
BRANCH  15  16
HETATM   16  C16 UNL     1      56.057  13.938  53.614  1.00  0.00    -0.000 C 
BRANCH  16  17
HETATM   17  C17 UNL     1      56.411  14.830  54.751  1.00  0.00    -0.005 C 
HETATM   18  C18 UNL     1      57.539  15.778  54.357  1.00  0.00     0.005 C 
ENDBRANCH  16  17
ENDBRANCH  15  16
ENDBRANCH  14  15
ENDBRANCH  13  14
ENDBRANCH   8  12
BRANCH   7  19
HETATM   19  N2  UNL     1      58.591   8.763  54.603  1.00  0.00    -0.291 N 
ATOM     20  H2  UNL     1      58.522   9.773  54.727  1.00  0.00     0.188 HD
BRANCH  19  21
HETATM   21  N3  UNL     1      59.475   8.033  55.377  1.00  0.00    -0.344 N 
ATOM     22  H32 UNL     1      59.593   8.282  56.359  1.00  0.00     0.176 HD
ATOM     23  H31 UNL     1      59.998   7.259  54.966  1.00  0.00     0.176 HD
ENDBRANCH  19  21
ENDBRANCH   7  19
BRANCH   9  24
HETATM   24  O3  UNL     1      55.494   8.897  51.084  1.00  0.00    -0.359 OA
ATOM     25  H3  UNL     1      54.962   9.659  51.277  1.00  0.00     0.217 HD
ENDBRANCH   9  24
BRANCH  11  26
HETATM   26  O4  UNL     1      54.712   6.760  50.095  1.00  0.00    -0.359 OA
ATOM     27  H4  UNL     1      53.881   7.041  50.459  1.00  0.00     0.217 HD
ENDBRANCH  11  26
BRANCH   3  28
HETATM   28  O2  UNL     1      57.931   4.095  53.547  1.00  0.00    -0.357 OA
ATOM     29  H2  UNL     1      58.421   4.584  54.197  1.00  0.00     0.217 HD
ENDBRANCH   3  28
BRANCH   1  30
HETATM   30  C2  UNL     1      54.640   4.210  49.940  1.00  0.00    -0.057 C 
HETATM   31  C1  UNL     1      53.431   3.860  50.320  1.00  0.00     0.019 C 
HETATM   32  C3  UNL     1      55.098   3.948  48.571  1.00  0.00     0.048 C 
ENDBRANCH   1  30
BRANCH   2  33
HETATM   33  C6  UNL     1      56.487   2.642  51.790  1.00  0.00     0.159 C 
HETATM   34  C7  UNL     1      57.116   1.763  50.830  1.00  0.00     0.097 C 
HETATM   35  O1  UNL     1      55.966   2.045  52.810  1.00  0.00    -0.293 OA
ENDBRANCH   2  33
TORSDOF 12
ENDMDL
MODEL 4
REMARK VINA RESULT: -7.667744239      1.588      2.442
REMARK  12 active torsions:
REMARK  status: ('A' for Active; 'I' for Inactive)
REMARK    1  A    between atoms: C2_2  and  C4_4 
REMARK    2  A    between atoms: C5_5  and  C6_6 
REMARK    3  A    between atoms: C8_9  and  O2_10 
REMARK    4  A    between atoms: C10_15  and  N2_16 
REMARK    5  A    between atoms: N2_16  and  N3_18 
REMARK    6  A    between atoms: C11_21  and  C12_22 
REMARK    7  A    between atoms: C13_23  and  C14_24 
REMARK    8  A    between atoms: C14_24  and  C15_25 
REMARK    9  A    between atoms: C15_25  and  C16_26 
REMARK   10  A    between atoms: C16_26  and  C17_27 
REMARK   11  A    between atoms: C19_29  and  O3_30 
REMARK   12  A    between atoms: C21_33  and  O4_34 
ROOT
HETATM    1  C4  UNL     1      53.870   5.550  50.804  1.00  0.00     0.020 A 
HETATM    2  C5  UNL     1      54.985   4.803  50.809  1.00  0.00     0.058 A 
HETATM    3  C8  UNL     1      56.136   5.344  51.437  1.00  0.00     0.108 A 
HETATM    4  C9  UNL     1      56.106   6.584  52.012  1.00  0.00     0.084 A 
HETATM    5  N1  UNL     1      57.228   7.075  52.606  1.00  0.00    -0.338 N 
ATOM      6  H1  UNL     1      58.072   6.503  52.608  1.00  0.00     0.167 HD
HETATM    7  C10 UNL     1      57.265   8.262  53.181  1.00  0.00     0.133 A 
HETATM    8  C11 UNL     1      56.129   9.096  53.210  1.00  0.00     0.043 A 
HETATM    9  C19 UNL     1      54.991   8.626  52.616  1.00  0.00     0.095 A 
HETATM   10  C20 UNL     1      54.994   7.342  52.011  1.00  0.00     0.062 A 
HETATM   11  C21 UNL     1      53.858   6.854  51.416  1.00  0.00     0.092 A 
ENDROOT
BRANCH   8  12
HETATM   12  C12 UNL     1      56.353  10.398  53.807  1.00  0.00     0.014 C 
HETATM   13  C13 UNL     1      56.215  11.614  53.502  1.00  0.00    -0.026 C 
BRANCH  13  14
HETATM   14  C14 UNL     1      55.730  12.361  52.348  1.00  0.00     0.027 C 
BRANCH  14  15
HETATM   15  C15 UNL     1      55.568  13.821  52.633  1.00  0.00     0.004 C 
BRANCH  15  16
HETATM   16  C16 UNL     1      55.939  14.139  54.050  1.00  0.00    -0.000 C 
BRANCH  16  17
HETATM   17  C17 UNL     1      56.985  15.184  54.219  1.00  0.00    -0.005 C 
HETATM   18  C18 UNL     1      56.947  15.757  55.632  1.00  0.00     0.005 C 
ENDBRANCH  16  17
ENDBRANCH  15  16
ENDBRANCH  14  15
ENDBRANCH  13  14
ENDBRANCH   8  12
BRANCH   7  19
HETATM   19  N2  UNL     1      58.352   8.679  53.736  1.00  0.00    -0.291 N 
ATOM     20  H2  UNL     1      58.820   9.511  53.377  1.00  0.00     0.188 HD
BRANCH  19  21
HETATM   21  N3  UNL     1      58.885   8.000  54.817  1.00  0.00    -0.344 N 
ATOM     22  H32 UNL     1      58.325   7.278  55.271  1.00  0.00     0.176 HD
ATOM     23  H31 UNL     1      59.823   8.223  55.150  1.00  0.00     0.176 HD
ENDBRANCH  19  21
ENDBRANCH   7  19
BRANCH   9  24
HETATM   24  O3  UNL     1      53.857   9.297  52.546  1.00  0.00    -0.359 OA
ATOM     25  H3  UNL     1      53.444   9.726  53.285  1.00  0.00     0.217 HD
ENDBRANCH   9  24
BRANCH  11  26
HETATM   26  O4  UNL     1      52.679   7.482  51.331  1.00  0.00    -0.359 OA
ATOM     27  H4  UNL     1      52.433   7.947  52.122  1.00  0.00     0.217 HD
ENDBRANCH  11  26
BRANCH   3  28
HETATM   28  O2  UNL     1      57.254   4.575  51.434  1.00  0.00    -0.357 OA
ATOM     29  H2  UNL     1      57.579   4.288  52.280  1.00  0.00     0.217 HD
ENDBRANCH   3  28
BRANCH   1  30
HETATM   30  C2  UNL     1      52.549   5.164  50.264  1.00  0.00    -0.057 C 
HETATM   31  C1  UNL     1      51.724   4.477  51.022  1.00  0.00     0.019 C 
HETATM   32  C3  UNL     1      52.216   5.447  48.863  1.00  0.00     0.048 C 
ENDBRANCH   1  30
BRANCH   2  33
HETATM   33  C6  UNL     1      55.105   3.503  50.205  1.00  0.00     0.159 C 
HETATM   34  C7  UNL     1      55.296   3.143  48.818  1.00  0.00     0.097 C 
HETATM   35  O1  UNL     1      55.035   2.502  51.019  1.00  0.00    -0.293 OA
ENDBRANCH   2  33
TORSDOF 12
ENDMDL
MODEL 5
REMARK VINA RESULT: -7.625573754      1.748      2.785
REMARK  12 active torsions:
REMARK  status: ('A' for Active; 'I' for Inactive)
REMARK    1  A    between atoms: C2_2  and  C4_4 
REMARK    2  A    between atoms: C5_5  and  C6_6 
REMARK    3  A    between atoms: C8_9  and  O2_10 
REMARK    4  A    between atoms: C10_15  and  N2_16 
REMARK    5  A    between atoms: N2_16  and  N3_18 
REMARK    6  A    between atoms: C11_21  and  C12_22 
REMARK    7  A    between atoms: C13_23  and  C14_24 
REMARK    8  A    between atoms: C14_24  and  C15_25 
REMARK    9  A    between atoms: C15_25  and  C16_26 
REMARK   10  A    between atoms: C16_26  and  C17_27 
REMARK   11  A    between atoms: C19_29  and  O3_30 
REMARK   12  A    between atoms: C21_33  and  O4_34 
ROOT
HETATM    1  C4  UNL     1      53.839   5.240  50.779  1.00  0.00     0.020 A 
HETATM    2  C5  UNL     1      54.970   4.516  50.761  1.00  0.00     0.058 A 
HETATM    3  C8  UNL     1      56.124   5.085  51.356  1.00  0.00     0.108 A 
HETATM    4  C9  UNL     1      56.083   6.328  51.924  1.00  0.00     0.084 A 
HETATM    5  N1  UNL     1      57.209   6.846  52.487  1.00  0.00    -0.338 N 
ATOM      6  H1  UNL     1      58.064   6.291  52.472  1.00  0.00     0.167 HD
HETATM    7  C10 UNL     1      57.236   8.038  53.053  1.00  0.00     0.133 A 
HETATM    8  C11 UNL     1      56.084   8.848  53.104  1.00  0.00     0.043 A 
HETATM    9  C19 UNL     1      54.942   8.351  52.541  1.00  0.00     0.095 A 
HETATM   10  C20 UNL     1      54.956   7.063  51.946  1.00  0.00     0.062 A 
HETATM   11  C21 UNL     1      53.816   6.548  51.381  1.00  0.00     0.092 A 
ENDROOT
BRANCH   8  12
HETATM   12  C12 UNL     1      56.296  10.159  53.687  1.00  0.00     0.014 C 
HETATM   13  C13 UNL     1      56.079  11.367  53.400  1.00  0.00    -0.026 C 
BRANCH  13  14
HETATM   14  C14 UNL     1      55.469  12.093  52.291  1.00  0.00     0.027 C 
BRANCH  14  15
HETATM   15  C15 UNL     1      54.059  12.503  52.577  1.00  0.00     0.004 C 
BRANCH  15  16
HETATM   16  C16 UNL     1      53.891  12.890  54.016  1.00  0.00    -0.000 C 
BRANCH  16  17
HETATM   17  C17 UNL     1      52.616  12.458  54.649  1.00  0.00    -0.005 C 
HETATM   18  C18 UNL     1      52.728  11.025  55.157  1.00  0.00     0.005 C 
ENDBRANCH  16  17
ENDBRANCH  15  16
ENDBRANCH  14  15
ENDBRANCH  13  14
ENDBRANCH   8  12
BRANCH   7  19
HETATM   19  N2  UNL     1      58.327   8.480  53.578  1.00  0.00    -0.291 N 
ATOM     20  H2  UNL     1      58.743   9.345  53.234  1.00  0.00     0.188 HD
BRANCH  19  21
HETATM   21  N3  UNL     1      58.934   7.785  54.608  1.00  0.00    -0.344 N 
ATOM     22  H32 UNL     1      58.787   8.096  55.568  1.00  0.00     0.176 HD
ATOM     23  H31 UNL     1      59.520   6.975  54.404  1.00  0.00     0.176 HD
ENDBRANCH  19  21
ENDBRANCH   7  19
BRANCH   9  24
HETATM   24  O3  UNL     1      53.793   8.998  52.495  1.00  0.00    -0.359 OA
ATOM     25  H3  UNL     1      53.042   8.719  51.986  1.00  0.00     0.217 HD
ENDBRANCH   9  24
BRANCH  11  26
HETATM   26  O4  UNL     1      52.623   7.151  51.322  1.00  0.00    -0.359 OA
ATOM     27  H4  UNL     1      52.616   7.940  50.793  1.00  0.00     0.217 HD
ENDBRANCH  11  26
BRANCH   3  28
HETATM   28  O2  UNL     1      57.257   4.339  51.331  1.00  0.00    -0.357 OA
ATOM     29  H2  UNL     1      57.507   3.911  52.142  1.00  0.00     0.217 HD
ENDBRANCH   3  28
BRANCH   1  30
HETATM   30  C2  UNL     1      52.514   4.823  50.273  1.00  0.00    -0.057 C 
HETATM   31  C1  UNL     1      51.689   4.196  51.082  1.00  0.00     0.019 C 
HETATM   32  C3  UNL     1      52.175   5.008  48.858  1.00  0.00     0.048 C 
ENDBRANCH   1  30
BRANCH   2  33
HETATM   33  C6  UNL     1      55.101   3.214  50.163  1.00  0.00     0.159 C 
HETATM   34  C7  UNL     1      54.691   1.922  50.664  1.00  0.00     0.097 C 
HETATM   35  O1  UNL     1      55.666   3.189  49.001  1.00  0.00    -0.293 OA
ENDBRANCH   2  33
TORSDOF 12
ENDMDL
