MODEL 1
REMARK VINA RESULT: -8.237316837      0.000      0.000
REMARK  10 active torsions:
REMARK  status: ('A' for Active; 'I' for Inactive)
REMARK    1  A    between atoms: C2_2  and  C3_3 
REMARK    2  A    between atoms: C2_2  and  C4_8 
REMARK       I    between atoms: C3_3  and  N1_4 
REMARK    3  A    between atoms: C4_8  and  C5_9 
REMARK    4  A    between atoms: C4_8  and  C16_24 
REMARK    5  A    between atoms: C6_10  and  C7_11 
REMARK    6  A    between atoms: C7_11  and  N2_12 
REMARK    7  A    between atoms: N2_12  and  C9_14 
REMARK    8  A    between atoms: C10_15  and  C11_16 
REMARK    9  A    between atoms: C16_24  and  N5_25 
REMARK   10  A    between atoms: C16_24  and  N6_29 
ROOT
HETATM    1  C4  UNL     1      18.576 -13.723  21.807  1.00  0.00     0.161 C 
ENDROOT
BRANCH   1   2
HETATM    2  C2  UNL     1      18.942 -12.883  20.584  1.00  0.00     0.019 C 
HETATM    3  C1  UNL     1      20.050 -12.914  20.065  1.00  0.00     0.026 C 
BRANCH   2   4
HETATM    4  C3  UNL     1      17.961 -11.941  19.993  1.00  0.00     0.245 C 
HETATM    5  N1  UNL     1      17.217 -10.947  20.594  1.00  0.00    -0.366 N 
ATOM      6  H12 UNL     1      17.361 -10.846  21.599  1.00  0.00     0.159 HD
ATOM      7  H11 UNL     1      16.542 -10.299  20.189  1.00  0.00     0.159 HD
HETATM    8  O1  UNL     1      17.780 -12.069  18.726  1.00  0.00    -0.268 OA
ENDBRANCH   2   4
ENDBRANCH   1   2
BRANCH   1   9
HETATM    9  C5  UNL     1      17.238 -14.240  21.521  1.00  0.00    -0.092 C 
HETATM   10  C6  UNL     1      16.102 -14.651  21.306  1.00  0.00    -0.091 C 
BRANCH  10  11
HETATM   11  C7  UNL     1      14.733 -15.159  21.091  1.00  0.00     0.188 C 
BRANCH  11  12
HETATM   12  N2  UNL     1      13.839 -14.158  20.578  1.00  0.00    -0.286 NA
HETATM   13  C8  UNL     1      12.527 -14.653  20.300  1.00  0.00     0.116 C 
BRANCH  12  14
HETATM   14  C9  UNL     1      13.811 -12.980  21.402  1.00  0.00     0.062 C 
HETATM   15  C10 UNL     1      12.750 -12.226  21.369  1.00  0.00     0.043 C 
BRANCH  15  16
HETATM   16  C11 UNL     1      12.467 -11.010  22.083  1.00  0.00     0.058 A 
HETATM   17  C12 UNL     1      13.049  -9.782  21.916  1.00  0.00     0.033 A 
HETATM   18  C13 UNL     1      14.029  -9.310  20.903  1.00  0.00     0.070 C 
HETATM   19  N3  UNL     1      12.520  -8.972  22.862  1.00  0.00    -0.354 N 
HETATM   20  C14 UNL     1      11.633  -9.645  23.606  1.00  0.00     0.183 A 
ATOM     21  H3  UNL     1      12.761  -7.990  22.990  1.00  0.00     0.166 HD
HETATM   22  N4  UNL     1      11.591 -10.891  23.138  1.00  0.00    -0.346 N 
HETATM   23  C15 UNL     1      10.755 -11.967  23.642  1.00  0.00     0.157 C 
ENDBRANCH  15  16
ENDBRANCH  12  14
ENDBRANCH  11  12
ENDBRANCH  10  11
ENDBRANCH   1   9
BRANCH   1  24
HETATM   24  C16 UNL     1      19.562 -14.728  22.198  1.00  0.00     0.404 C 
BRANCH  24  25
HETATM   25  N5  UNL     1      19.590 -16.009  21.623  1.00  0.00    -0.048 N 
ATOM     26  H53 UNL     1      18.679 -16.440  21.781  1.00  0.00     0.276 HD
ATOM     27  H52 UNL     1      19.600 -15.894  20.610  1.00  0.00     0.276 HD
ATOM     28  H51 UNL     1      20.305 -16.695  21.864  1.00  0.00     0.276 HD
ENDBRANCH  24  25
BRANCH  24  29
HETATM   29  N6  UNL     1      19.999 -14.742  23.577  1.00  0.00    -0.041 N 
HETATM   30  C17 UNL     1      19.184 -15.684  24.383  1.00  0.00     0.275 C 
HETATM   31  C18 UNL     1      21.366 -14.977  23.836  1.00  0.00     0.239 C 
HETATM   32  C19 UNL     1      22.289 -13.823  23.646  1.00  0.00     0.028 C 
HETATM   33  C20 UNL     1      22.221 -12.760  24.690  1.00  0.00     0.002 C 
HETATM   34  C21 UNL     1      21.399 -13.141  25.887  1.00  0.00     0.002 C 
HETATM   35  C22 UNL     1      19.955 -13.352  25.605  1.00  0.00     0.028 C 
HETATM   36  C23 UNL     1      19.635 -13.438  24.130  1.00  0.00     0.239 C 
ENDBRANCH  24  29
ENDBRANCH   1  24
TORSDOF 10
ENDMDL
MODEL 2
REMARK VINA RESULT: -8.083702270      0.495      1.461
REMARK  10 active torsions:
REMARK  status: ('A' for Active; 'I' for Inactive)
REMARK    1  A    between atoms: C2_2  and  C3_3 
REMARK    2  A    between atoms: C2_2  and  C4_8 
REMARK       I    between atoms: C3_3  and  N1_4 
REMARK    3  A    between atoms: C4_8  and  C5_9 
REMARK    4  A    between atoms: C4_8  and  C16_24 
REMARK    5  A    between atoms: C6_10  and  C7_11 
REMARK    6  A    between atoms: C7_11  and  N2_12 
REMARK    7  A    between atoms: N2_12  and  C9_14 
REMARK    8  A    between atoms: C10_15  and  C11_16 
REMARK    9  A    between atoms: C16_24  and  N5_25 
REMARK   10  A    between atoms: C16_24  and  N6_29 
ROOT
HETATM    1  C4  UNL     1      18.539 -13.771  21.805  1.00  0.00     0.161 C 
ENDROOT
BRANCH   1   2
HETATM    2  C2  UNL     1      18.938 -12.930  20.592  1.00  0.00     0.019 C 
HETATM    3  C1  UNL     1      20.050 -12.986  20.083  1.00  0.00     0.026 C 
BRANCH   2   4
HETATM    4  C3  UNL     1      17.987 -11.958  20.001  1.00  0.00     0.245 C 
HETATM    5  N1  UNL     1      17.273 -10.943  20.602  1.00  0.00    -0.366 N 
ATOM      6  H12 UNL     1      17.419 -10.847  21.607  1.00  0.00     0.159 HD
ATOM      7  H11 UNL     1      16.619 -10.274  20.195  1.00  0.00     0.159 HD
HETATM    8  O1  UNL     1      17.804 -12.079  18.733  1.00  0.00    -0.268 OA
ENDBRANCH   2   4
ENDBRANCH   1   2
BRANCH   1   9
HETATM    9  C5  UNL     1      17.207 -14.282  21.485  1.00  0.00    -0.092 C 
HETATM   10  C6  UNL     1      16.075 -14.676  21.219  1.00  0.00    -0.091 C 
BRANCH  10  11
HETATM   11  C7  UNL     1      14.701 -15.134  20.939  1.00  0.00     0.188 C 
BRANCH  11  12
HETATM   12  N2  UNL     1      13.840 -14.077  20.484  1.00  0.00    -0.286 NA
HETATM   13  C8  UNL     1      12.544 -14.528  20.085  1.00  0.00     0.116 C 
BRANCH  12  14
HETATM   14  C9  UNL     1      13.771 -12.990  21.423  1.00  0.00     0.062 C 
HETATM   15  C10 UNL     1      12.769 -12.164  21.342  1.00  0.00     0.043 C 
BRANCH  15  16
HETATM   16  C11 UNL     1      12.464 -11.010  22.145  1.00  0.00     0.058 A 
HETATM   17  C12 UNL     1      11.557 -10.911  23.165  1.00  0.00     0.033 A 
HETATM   18  C13 UNL     1      10.723 -11.954  23.817  1.00  0.00     0.070 C 
HETATM   19  N3  UNL     1      11.564  -9.618  23.564  1.00  0.00    -0.354 N 
HETATM   20  C14 UNL     1      12.439  -8.912  22.836  1.00  0.00     0.183 A 
ATOM     21  H3  UNL     1      10.986  -9.235  24.312  1.00  0.00     0.166 HD
HETATM   22  N4  UNL     1      12.997  -9.753  21.967  1.00  0.00    -0.346 N 
HETATM   23  C15 UNL     1      14.013  -9.418  20.984  1.00  0.00     0.157 C 
ENDBRANCH  15  16
ENDBRANCH  12  14
ENDBRANCH  11  12
ENDBRANCH  10  11
ENDBRANCH   1   9
BRANCH   1  24
HETATM   24  C16 UNL     1      19.511 -14.780  22.218  1.00  0.00     0.404 C 
BRANCH  24  25
HETATM   25  N5  UNL     1      19.522 -16.073  21.672  1.00  0.00    -0.048 N 
ATOM     26  H53 UNL     1      19.861 -16.712  22.392  1.00  0.00     0.276 HD
ATOM     27  H52 UNL     1      18.553 -16.372  21.560  1.00  0.00     0.276 HD
ATOM     28  H51 UNL     1      20.016 -16.292  20.806  1.00  0.00     0.276 HD
ENDBRANCH  24  25
BRANCH  24  29
HETATM   29  N6  UNL     1      19.949 -14.769  23.597  1.00  0.00    -0.041 N 
HETATM   30  C17 UNL     1      19.118 -15.678  24.424  1.00  0.00     0.275 C 
HETATM   31  C18 UNL     1      21.311 -15.021  23.862  1.00  0.00     0.239 C 
HETATM   32  C19 UNL     1      22.254 -13.887  23.645  1.00  0.00     0.028 C 
HETATM   33  C20 UNL     1      22.204 -12.800  24.663  1.00  0.00     0.002 C 
HETATM   34  C21 UNL     1      21.377 -13.139  25.869  1.00  0.00     0.002 C 
HETATM   35  C22 UNL     1      19.929 -13.332  25.592  1.00  0.00     0.028 C 
HETATM   36  C23 UNL     1      19.607 -13.446  24.119  1.00  0.00     0.239 C 
ENDBRANCH  24  29
ENDBRANCH   1  24
TORSDOF 10
ENDMDL
MODEL 3
REMARK VINA RESULT: -7.975553394      1.359      1.630
REMARK  10 active torsions:
REMARK  status: ('A' for Active; 'I' for Inactive)
REMARK    1  A    between atoms: C2_2  and  C3_3 
REMARK    2  A    between atoms: C2_2  and  C4_8 
REMARK       I    between atoms: C3_3  and  N1_4 
REMARK    3  A    between atoms: C4_8  and  C5_9 
REMARK    4  A    between atoms: C4_8  and  C16_24 
REMARK    5  A    between atoms: C6_10  and  C7_11 
REMARK    6  A    between atoms: C7_11  and  N2_12 
REMARK    7  A    between atoms: N2_12  and  C9_14 
REMARK    8  A    between atoms: C10_15  and  C11_16 
REMARK    9  A    between atoms: C16_24  and  N5_25 
REMARK   10  A    between atoms: C16_24  and  N6_29 
ROOT
HETATM    1  C4  UNL     1      18.964 -14.066  21.646  1.00  0.00     0.161 C 
ENDROOT
BRANCH   1   2
HETATM    2  C2  UNL     1      19.236 -13.065  20.523  1.00  0.00     0.019 C 
HETATM    3  C1  UNL     1      20.326 -12.961  19.977  1.00  0.00     0.026 C 
BRANCH   2   4
HETATM    4  C3  UNL     1      18.179 -12.128  20.073  1.00  0.00     0.245 C 
HETATM    5  N1  UNL     1      17.350 -11.310  20.812  1.00  0.00    -0.366 N 
ATOM      6  H12 UNL     1      17.483 -11.358  21.823  1.00  0.00     0.159 HD
ATOM      7  H11 UNL     1      16.622 -10.665  20.504  1.00  0.00     0.159 HD
HETATM    8  O1  UNL     1      18.012 -12.068  18.799  1.00  0.00    -0.268 OA
ENDBRANCH   2   4
ENDBRANCH   1   2
BRANCH   1   9
HETATM    9  C5  UNL     1      17.839 -14.869  21.169  1.00  0.00    -0.092 C 
HETATM   10  C6  UNL     1      16.877 -15.537  20.802  1.00  0.00    -0.091 C 
BRANCH  10  11
HETATM   11  C7  UNL     1      15.729 -16.369  20.394  1.00  0.00     0.188 C 
BRANCH  11  12
HETATM   12  N2  UNL     1      14.469 -15.690  20.528  1.00  0.00    -0.286 NA
HETATM   13  C8  UNL     1      13.663 -16.189  21.598  1.00  0.00     0.116 C 
BRANCH  12  14
HETATM   14  C9  UNL     1      14.625 -14.262  20.587  1.00  0.00     0.062 C 
HETATM   15  C10 UNL     1      13.594 -13.514  20.318  1.00  0.00     0.043 C 
BRANCH  15  16
HETATM   16  C11 UNL     1      13.480 -12.080  20.303  1.00  0.00     0.058 A 
HETATM   17  C12 UNL     1      14.026 -11.203  19.406  1.00  0.00     0.033 A 
HETATM   18  C13 UNL     1      14.776 -11.453  18.148  1.00  0.00     0.070 C 
HETATM   19  N3  UNL     1      13.715  -9.960  19.844  1.00  0.00    -0.354 N 
HETATM   20  C14 UNL     1      12.998 -10.031  20.972  1.00  0.00     0.183 A 
ATOM     21  H3  UNL     1      13.988  -9.094  19.380  1.00  0.00     0.166 HD
HETATM   22  N4  UNL     1      12.846 -11.322  21.261  1.00  0.00    -0.346 N 
HETATM   23  C15 UNL     1      12.123 -11.865  22.398  1.00  0.00     0.157 C 
ENDBRANCH  15  16
ENDBRANCH  12  14
ENDBRANCH  11  12
ENDBRANCH  10  11
ENDBRANCH   1   9
BRANCH   1  24
HETATM   24  C16 UNL     1      20.123 -14.828  22.104  1.00  0.00     0.404 C 
BRANCH  24  25
HETATM   25  N5  UNL     1      20.528 -16.018  21.480  1.00  0.00    -0.048 N 
ATOM     26  H53 UNL     1      19.688 -16.501  21.159  1.00  0.00     0.276 HD
ATOM     27  H52 UNL     1      20.981 -15.769  20.600  1.00  0.00     0.276 HD
ATOM     28  H51 UNL     1      21.120 -16.703  21.951  1.00  0.00     0.276 HD
ENDBRANCH  24  25
BRANCH  24  29
HETATM   29  N6  UNL     1      20.407 -14.835  23.523  1.00  0.00    -0.041 N 
HETATM   30  C17 UNL     1      19.677 -15.932  24.205  1.00  0.00     0.275 C 
HETATM   31  C18 UNL     1      21.758 -14.859  23.929  1.00  0.00     0.239 C 
HETATM   32  C19 UNL     1      22.494 -13.564  23.877  1.00  0.00     0.028 C 
HETATM   33  C20 UNL     1      22.139 -12.576  24.936  1.00  0.00     0.002 C 
HETATM   34  C21 UNL     1      21.269 -13.139  26.021  1.00  0.00     0.002 C 
HETATM   35  C22 UNL     1      19.918 -13.566  25.572  1.00  0.00     0.028 C 
HETATM   36  C23 UNL     1      19.776 -13.633  24.068  1.00  0.00     0.239 C 
ENDBRANCH  24  29
ENDBRANCH   1  24
TORSDOF 10
ENDMDL
MODEL 4
REMARK VINA RESULT: -7.537211661      2.106      3.462
REMARK  10 active torsions:
REMARK  status: ('A' for Active; 'I' for Inactive)
REMARK    1  A    between atoms: C2_2  and  C3_3 
REMARK    2  A    between atoms: C2_2  and  C4_8 
REMARK       I    between atoms: C3_3  and  N1_4 
REMARK    3  A    between atoms: C4_8  and  C5_9 
REMARK    4  A    between atoms: C4_8  and  C16_24 
REMARK    5  A    between atoms: C6_10  and  C7_11 
REMARK    6  A    between atoms: C7_11  and  N2_12 
REMARK    7  A    between atoms: N2_12  and  C9_14 
REMARK    8  A    between atoms: C10_15  and  C11_16 
REMARK    9  A    between atoms: C16_24  and  N5_25 
REMARK   10  A    between atoms: C16_24  and  N6_29 
ROOT
HETATM    1  C4  UNL     1      17.794 -15.302  21.545  1.00  0.00     0.161 C 
ENDROOT
BRANCH   1   2
HETATM    2  C2  UNL     1      16.521 -16.082  21.215  1.00  0.00     0.019 C 
HETATM    3  C1  UNL     1      15.895 -15.920  20.176  1.00  0.00     0.026 C 
BRANCH   2   4
HETATM    4  C3  UNL     1      15.958 -17.054  22.183  1.00  0.00     0.245 C 
HETATM    5  N1  UNL     1      14.904 -16.917  23.061  1.00  0.00    -0.366 N 
ATOM      6  H12 UNL     1      14.443 -16.007  23.045  1.00  0.00     0.159 HD
ATOM      7  H11 UNL     1      14.516 -17.585  23.727  1.00  0.00     0.159 HD
HETATM    8  O1  UNL     1      16.540 -18.201  22.202  1.00  0.00    -0.268 OA
ENDBRANCH   2   4
ENDBRANCH   1   2
BRANCH   1   9
HETATM    9  C5  UNL     1      17.636 -14.019  20.861  1.00  0.00    -0.092 C 
HETATM   10  C6  UNL     1      17.536 -12.949  20.269  1.00  0.00    -0.091 C 
BRANCH  10  11
HETATM   11  C7  UNL     1      17.454 -11.650  19.573  1.00  0.00     0.188 C 
BRANCH  11  12
HETATM   12  N2  UNL     1      16.103 -11.186  19.412  1.00  0.00    -0.286 NA
HETATM   13  C8  UNL     1      15.442 -11.737  18.271  1.00  0.00     0.116 C 
BRANCH  12  14
HETATM   14  C9  UNL     1      15.329 -11.338  20.614  1.00  0.00     0.062 C 
HETATM   15  C10 UNL     1      14.051 -11.561  20.504  1.00  0.00     0.043 C 
BRANCH  15  16
HETATM   16  C11 UNL     1      13.061 -11.749  21.531  1.00  0.00     0.058 A 
HETATM   17  C12 UNL     1      12.470 -12.918  21.925  1.00  0.00     0.033 A 
HETATM   18  C13 UNL     1      12.742 -14.321  21.516  1.00  0.00     0.070 C 
HETATM   19  N3  UNL     1      11.550 -12.590  22.862  1.00  0.00    -0.354 N 
HETATM   20  C14 UNL     1      11.549 -11.267  23.067  1.00  0.00     0.183 A 
ATOM     21  H3  UNL     1      10.945 -13.255  23.343  1.00  0.00     0.166 HD
HETATM   22  N4  UNL     1      12.470 -10.742  22.260  1.00  0.00    -0.346 N 
HETATM   23  C15 UNL     1      12.816  -9.335  22.157  1.00  0.00     0.157 C 
ENDBRANCH  15  16
ENDBRANCH  12  14
ENDBRANCH  11  12
ENDBRANCH  10  11
ENDBRANCH   1   9
BRANCH   1  24
HETATM   24  C16 UNL     1      18.127 -15.215  22.965  1.00  0.00     0.404 C 
BRANCH  24  25
HETATM   25  N5  UNL     1      17.546 -14.256  23.810  1.00  0.00    -0.048 N 
ATOM     26  H53 UNL     1      16.774 -13.822  23.303  1.00  0.00     0.276 HD
ATOM     27  H52 UNL     1      17.058 -14.754  24.555  1.00  0.00     0.276 HD
ATOM     28  H51 UNL     1      18.093 -13.511  24.241  1.00  0.00     0.276 HD
ENDBRANCH  24  25
BRANCH  24  29
HETATM   29  N6  UNL     1      19.481 -15.538  23.360  1.00  0.00    -0.041 N 
HETATM   30  C17 UNL     1      19.626 -16.991  23.617  1.00  0.00     0.275 C 
HETATM   31  C18 UNL     1      20.535 -15.109  22.527  1.00  0.00     0.239 C 
HETATM   32  C19 UNL     1      20.936 -13.678  22.639  1.00  0.00     0.028 C 
HETATM   33  C20 UNL     1      21.693 -13.313  23.870  1.00  0.00     0.002 C 
HETATM   34  C21 UNL     1      22.132 -14.496  24.683  1.00  0.00     0.002 C 
HETATM   35  C22 UNL     1      21.021 -15.295  25.263  1.00  0.00     0.028 C 
HETATM   36  C23 UNL     1      19.665 -14.950  24.687  1.00  0.00     0.239 C 
ENDBRANCH  24  29
ENDBRANCH   1  24
TORSDOF 10
ENDMDL
MODEL 5
REMARK VINA RESULT: -7.463875316      2.114      4.371
REMARK  10 active torsions:
REMARK  status: ('A' for Active; 'I' for Inactive)
REMARK    1  A    between atoms: C2_2  and  C3_3 
REMARK    2  A    between atoms: C2_2  and  C4_8 
REMARK       I    between atoms: C3_3  and  N1_4 
REMARK    3  A    between atoms: C4_8  and  C5_9 
REMARK    4  A    between atoms: C4_8  and  C16_24 
REMARK    5  A    between atoms: C6_10  and  C7_11 
REMARK    6  A    between atoms: C7_11  and  N2_12 
REMARK    7  A    between atoms: N2_12  and  C9_14 
REMARK    8  A    between atoms: C10_15  and  C11_16 
REMARK    9  A    between atoms: C16_24  and  N5_25 
REMARK   10  A    between atoms: C16_24  and  N6_29 
ROOT
HETATM    1  C4  UNL     1      19.460 -14.332  23.280  1.00  0.00     0.161 C 
ENDROOT
BRANCH   1   2
HETATM    2  C2  UNL     1      20.490 -13.693  24.211  1.00  0.00     0.019 C 
HETATM    3  C1  UNL     1      20.199 -12.832  25.030  1.00  0.00     0.026 C 
BRANCH   2   4
HETATM    4  C3  UNL     1      21.922 -14.068  24.124  1.00  0.00     0.245 C 
HETATM    5  N1  UNL     1      22.688 -14.835  24.976  1.00  0.00    -0.366 N 
ATOM      6  H12 UNL     1      22.196 -15.198  25.793  1.00  0.00     0.159 HD
ATOM      7  H11 UNL     1      23.674 -15.092  24.917  1.00  0.00     0.159 HD
HETATM    8  O1  UNL     1      22.542 -13.609  23.095  1.00  0.00    -0.268 OA
ENDBRANCH   2   4
ENDBRANCH   1   2
BRANCH   1   9
HETATM    9  C5  UNL     1      19.123 -13.284  22.317  1.00  0.00    -0.092 C 
HETATM   10  C6  UNL     1      18.873 -12.411  21.492  1.00  0.00    -0.091 C 
BRANCH  10  11
HETATM   11  C7  UNL     1      18.608 -11.339  20.513  1.00  0.00     0.188 C 
BRANCH  11  12
HETATM   12  N2  UNL     1      17.279 -11.393  19.969  1.00  0.00    -0.286 NA
HETATM   13  C8  UNL     1      17.199 -12.091  18.724  1.00  0.00     0.116 C 
BRANCH  12  14
HETATM   14  C9  UNL     1      16.320 -11.876  20.924  1.00  0.00     0.062 C 
HETATM   15  C10 UNL     1      15.056 -11.812  20.620  1.00  0.00     0.043 C 
BRANCH  15  16
HETATM   16  C11 UNL     1      13.907 -12.219  21.384  1.00  0.00     0.058 A 
HETATM   17  C12 UNL     1      13.464 -13.492  21.622  1.00  0.00     0.033 A 
HETATM   18  C13 UNL     1      14.074 -14.804  21.282  1.00  0.00     0.070 C 
HETATM   19  N3  UNL     1      12.309 -13.375  22.317  1.00  0.00    -0.354 N 
HETATM   20  C14 UNL     1      12.019 -12.085  22.523  1.00  0.00     0.183 A 
ATOM     21  H3  UNL     1      11.740 -14.159  22.639  1.00  0.00     0.166 HD
HETATM   22  N4  UNL     1      12.990 -11.369  21.959  1.00  0.00    -0.346 N 
HETATM   23  C15 UNL     1      13.088  -9.919  21.947  1.00  0.00     0.157 C 
ENDBRANCH  15  16
ENDBRANCH  12  14
ENDBRANCH  11  12
ENDBRANCH  10  11
ENDBRANCH   1   9
BRANCH   1  24
HETATM   24  C16 UNL     1      19.850 -15.613  22.695  1.00  0.00     0.404 C 
BRANCH  24  25
HETATM   25  N5  UNL     1      20.483 -15.701  21.445  1.00  0.00    -0.048 N 
ATOM     26  H53 UNL     1      21.306 -15.099  21.472  1.00  0.00     0.276 HD
ATOM     27  H52 UNL     1      20.899 -16.629  21.372  1.00  0.00     0.276 HD
ATOM     28  H51 UNL     1      19.989 -15.513  20.573  1.00  0.00     0.276 HD
ENDBRANCH  24  25
BRANCH  24  29
HETATM   29  N6  UNL     1      19.005 -16.758  22.958  1.00  0.00    -0.041 N 
HETATM   30  C17 UNL     1      18.456 -17.313  21.697  1.00  0.00     0.275 C 
HETATM   31  C18 UNL     1      19.538 -17.811  23.731  1.00  0.00     0.239 C 
HETATM   32  C19 UNL     1      19.571 -17.606  25.206  1.00  0.00     0.028 C 
HETATM   33  C20 UNL     1      18.255 -17.694  25.901  1.00  0.00     0.002 C 
HETATM   34  C21 UNL     1      17.145 -18.208  25.030  1.00  0.00     0.002 C 
HETATM   35  C22 UNL     1      16.799 -17.328  23.884  1.00  0.00     0.028 C 
HETATM   36  C23 UNL     1      17.816 -16.238  23.632  1.00  0.00     0.239 C 
ENDBRANCH  24  29
ENDBRANCH   1  24
TORSDOF 10
ENDMDL
