MODEL 1
REMARK VINA RESULT: -7.872786576      0.000      0.000
REMARK  9 active torsions:
REMARK  status: ('A' for Active; 'I' for Inactive)
REMARK    1  A    between atoms: C2_2  and  N1_3 
REMARK    2  A    between atoms: N1_3  and  C3_4 
REMARK    3  A    between atoms: C3_4  and  C4_5 
REMARK    4  A    between atoms: C4_5  and  N2_6 
REMARK    5  A    between atoms: N3_9  and  C7_10 
REMARK    6  A    between atoms: C7_10  and  C8_11 
REMARK       I    between atoms: C8_11  and  N4_13 
REMARK    7  A    between atoms: N4_13  and  C9_15 
REMARK    8  A    between atoms: C9_15  and  C10_16 
REMARK    9  A    between atoms: C10_16  and  O2_17 
ROOT
HETATM    1  N2  UNL     1      15.394 -13.219  20.860  1.00  0.00    -0.038 N 
HETATM    2  C5  UNL     1      15.604 -13.246  19.457  1.00  0.00     0.268 C 
HETATM    3  C6  UNL     1      14.488 -12.299  18.973  1.00  0.00     0.273 C 
HETATM    4  N3  UNL     1      13.926 -11.757  20.158  1.00  0.00    -0.014 N 
HETATM    5  C11 UNL     1      13.084 -12.731  20.816  1.00  0.00     0.273 C 
HETATM    6  C12 UNL     1      14.120 -13.784  21.243  1.00  0.00     0.268 C 
HETATM    7  C13 UNL     1      15.098 -11.786  21.059  1.00  0.00     0.479 C 
ENDROOT
BRANCH   1   8
HETATM    8  C4  UNL     1      16.494 -13.630  21.678  1.00  0.00     0.268 C 
BRANCH   8   9
HETATM    9  C3  UNL     1      17.665 -14.041  20.868  1.00  0.00     0.271 C 
BRANCH   9  10
HETATM   10  N1  UNL     1      18.954 -13.505  21.280  1.00  0.00    -0.045 N 
HETATM   11  C14 UNL     1      18.813 -12.835  22.523  1.00  0.00     0.207 C 
HETATM   12  C15 UNL     1      19.580 -13.229  23.713  1.00  0.00    -0.039 C 
HETATM   13  C16 UNL     1      20.999 -13.614  23.598  1.00  0.00     0.038 C 
HETATM   14  C21 UNL     1      18.800 -14.149  24.671  1.00  0.00     0.158 C 
HETATM   15  C17 UNL     1      21.321 -14.994  23.160  1.00  0.00     0.020 C 
HETATM   16  C18 UNL     1      20.251 -15.461  22.163  1.00  0.00     0.104 C 
HETATM   17  C19 UNL     1      20.038 -14.415  21.178  1.00  0.00     0.257 C 
HETATM   18  C20 UNL     1      19.152 -15.982  22.948  1.00  0.00     0.223 C 
HETATM   19  O3  UNL     1      18.569 -17.055  22.579  1.00  0.00    -0.273 OA
HETATM   20  N5  UNL     1      18.584 -15.447  24.144  1.00  0.00    -0.357 N 
ATOM     21  H5  UNL     1      17.962 -16.060  24.671  1.00  0.00     0.162 HD
BRANCH  10  22
HETATM   22  C2  UNL     1      19.181 -12.481  20.234  1.00  0.00     0.238 C 
HETATM   23  C1  UNL     1      20.569 -12.321  19.780  1.00  0.00     0.035 C 
ENDBRANCH  10  22
ENDBRANCH   9  10
ENDBRANCH   8   9
ENDBRANCH   1   8
BRANCH   4  24
HETATM   24  C7  UNL     1      13.446 -10.442  20.137  1.00  0.00     0.278 C 
BRANCH  24  25
HETATM   25  C8  UNL     1      13.098  -9.879  21.476  1.00  0.00     0.265 C 
HETATM   26  O1  UNL     1      13.821  -9.011  21.993  1.00  0.00    -0.267 OA
HETATM   27  N4  UNL     1      11.946 -10.349  22.133  1.00  0.00    -0.354 N 
ATOM     28  H4  UNL     1      11.426 -11.069  21.631  1.00  0.00     0.162 HD
BRANCH  27  29
HETATM   29  C9  UNL     1      11.394  -9.975  23.387  1.00  0.00     0.148 C 
BRANCH  29  30
HETATM   30  C10 UNL     1      11.083 -11.124  24.292  1.00  0.00     0.183 C 
BRANCH  30  31
HETATM   31  O2  UNL     1      10.071 -11.942  23.861  1.00  0.00    -0.399 OA
ATOM     32  H2  UNL     1      10.049 -12.801  24.267  1.00  0.00     0.209 HD
ENDBRANCH  30  31
ENDBRANCH  29  30
ENDBRANCH  27  29
ENDBRANCH  24  25
ENDBRANCH   4  24
TORSDOF 9
ENDMDL
MODEL 2
REMARK VINA RESULT: -7.842099966      1.271      1.574
REMARK  9 active torsions:
REMARK  status: ('A' for Active; 'I' for Inactive)
REMARK    1  A    between atoms: C2_2  and  N1_3 
REMARK    2  A    between atoms: N1_3  and  C3_4 
REMARK    3  A    between atoms: C3_4  and  C4_5 
REMARK    4  A    between atoms: C4_5  and  N2_6 
REMARK    5  A    between atoms: N3_9  and  C7_10 
REMARK    6  A    between atoms: C7_10  and  C8_11 
REMARK       I    between atoms: C8_11  and  N4_13 
REMARK    7  A    between atoms: N4_13  and  C9_15 
REMARK    8  A    between atoms: C9_15  and  C10_16 
REMARK    9  A    between atoms: C10_16  and  O2_17 
ROOT
HETATM    1  N2  UNL     1      15.148 -12.992  20.468  1.00  0.00    -0.038 N 
HETATM    2  C5  UNL     1      14.794 -12.563  19.163  1.00  0.00     0.268 C 
HETATM    3  C6  UNL     1      13.886 -11.359  19.484  1.00  0.00     0.273 C 
HETATM    4  N3  UNL     1      13.989 -11.185  20.890  1.00  0.00    -0.014 N 
HETATM    5  C11 UNL     1      13.226 -12.198  21.587  1.00  0.00     0.273 C 
HETATM    6  C12 UNL     1      14.012 -13.469  21.225  1.00  0.00     0.268 C 
HETATM    7  C13 UNL     1      15.358 -11.690  21.132  1.00  0.00     0.479 C 
ENDROOT
BRANCH   1   8
HETATM    8  C4  UNL     1      16.317 -13.813  20.575  1.00  0.00     0.268 C 
BRANCH   8   9
HETATM    9  C3  UNL     1      17.142 -13.451  21.751  1.00  0.00     0.271 C 
BRANCH   9  10
HETATM   10  N1  UNL     1      18.579 -13.645  21.615  1.00  0.00    -0.045 N 
HETATM   11  C14 UNL     1      19.249 -12.968  22.668  1.00  0.00     0.207 C 
HETATM   12  C15 UNL     1      20.125 -13.673  23.614  1.00  0.00    -0.039 C 
HETATM   13  C16 UNL     1      21.036 -14.736  23.146  1.00  0.00     0.038 C 
HETATM   14  C21 UNL     1      19.432 -14.039  24.940  1.00  0.00     0.158 C 
HETATM   15  C17 UNL     1      20.480 -16.094  22.933  1.00  0.00     0.020 C 
HETATM   16  C18 UNL     1      19.031 -15.968  22.443  1.00  0.00     0.104 C 
HETATM   17  C19 UNL     1      18.980 -14.984  21.375  1.00  0.00     0.257 C 
HETATM   18  C20 UNL     1      18.205 -15.831  23.623  1.00  0.00     0.223 C 
HETATM   19  O3  UNL     1      17.097 -16.461  23.693  1.00  0.00    -0.273 OA
HETATM   20  N5  UNL     1      18.453 -15.054  24.795  1.00  0.00    -0.357 N 
ATOM     21  H5  UNL     1      17.867 -15.247  25.608  1.00  0.00     0.162 HD
BRANCH  10  22
HETATM   22  C2  UNL     1      18.845 -12.907  20.358  1.00  0.00     0.238 C 
HETATM   23  C1  UNL     1      20.247 -12.870  19.920  1.00  0.00     0.035 C 
ENDBRANCH  10  22
ENDBRANCH   9  10
ENDBRANCH   8   9
ENDBRANCH   1   8
BRANCH   4  24
HETATM   24  C7  UNL     1      13.920  -9.891  21.417  1.00  0.00     0.278 C 
BRANCH  24  25
HETATM   25  C8  UNL     1      12.597  -9.522  22.003  1.00  0.00     0.265 C 
HETATM   26  O1  UNL     1      11.675  -9.137  21.266  1.00  0.00    -0.267 OA
HETATM   27  N4  UNL     1      12.420  -9.619  23.396  1.00  0.00    -0.354 N 
ATOM     28  H4  UNL     1      13.241  -9.934  23.914  1.00  0.00     0.162 HD
BRANCH  27  29
HETATM   29  C9  UNL     1      11.276  -9.345  24.191  1.00  0.00     0.148 C 
BRANCH  29  30
HETATM   30  C10 UNL     1      11.189  -7.936  24.685  1.00  0.00     0.183 C 
BRANCH  30  31
HETATM   31  O2  UNL     1      12.397  -7.329  24.918  1.00  0.00    -0.399 OA
ATOM     32  H2  UNL     1      12.618  -7.213  25.834  1.00  0.00     0.209 HD
ENDBRANCH  30  31
ENDBRANCH  29  30
ENDBRANCH  27  29
ENDBRANCH  24  25
ENDBRANCH   4  24
TORSDOF 9
ENDMDL
MODEL 3
REMARK VINA RESULT: -7.830302111      0.964      1.088
REMARK  9 active torsions:
REMARK  status: ('A' for Active; 'I' for Inactive)
REMARK    1  A    between atoms: C2_2  and  N1_3 
REMARK    2  A    between atoms: N1_3  and  C3_4 
REMARK    3  A    between atoms: C3_4  and  C4_5 
REMARK    4  A    between atoms: C4_5  and  N2_6 
REMARK    5  A    between atoms: N3_9  and  C7_10 
REMARK    6  A    between atoms: C7_10  and  C8_11 
REMARK       I    between atoms: C8_11  and  N4_13 
REMARK    7  A    between atoms: N4_13  and  C9_15 
REMARK    8  A    between atoms: C9_15  and  C10_16 
REMARK    9  A    between atoms: C10_16  and  O2_17 
ROOT
HETATM    1  N2  UNL     1      15.721 -12.230  19.804  1.00  0.00    -0.038 N 
HETATM    2  C5  UNL     1      14.856 -11.963  18.712  1.00  0.00     0.268 C 
HETATM    3  C6  UNL     1      13.782 -11.091  19.391  1.00  0.00     0.273 C 
HETATM    4  N3  UNL     1      14.272 -10.859  20.704  1.00  0.00    -0.014 N 
HETATM    5  C11 UNL     1      14.113 -12.040  21.523  1.00  0.00     0.273 C 
HETATM    6  C12 UNL     1      15.086 -13.015  20.839  1.00  0.00     0.268 C 
HETATM    7  C13 UNL     1      15.731 -10.910  20.467  1.00  0.00     0.479 C 
ENDROOT
BRANCH   1   8
HETATM    8  C4  UNL     1      17.052 -12.646  19.478  1.00  0.00     0.268 C 
BRANCH   8   9
HETATM    9  C3  UNL     1      17.598 -13.590  20.480  1.00  0.00     0.271 C 
BRANCH   9  10
HETATM   10  N1  UNL     1      18.882 -13.235  21.069  1.00  0.00    -0.045 N 
HETATM   11  C14 UNL     1      18.677 -12.724  22.377  1.00  0.00     0.207 C 
HETATM   12  C15 UNL     1      19.292 -13.341  23.561  1.00  0.00    -0.039 C 
HETATM   13  C16 UNL     1      20.681 -13.838  23.512  1.00  0.00     0.038 C 
HETATM   14  C21 UNL     1      18.353 -14.303  24.312  1.00  0.00     0.158 C 
HETATM   15  C17 UNL     1      20.930 -15.171  22.914  1.00  0.00     0.020 C 
HETATM   16  C18 UNL     1      19.926 -15.402  21.776  1.00  0.00     0.104 C 
HETATM   17  C19 UNL     1      19.893 -14.220  20.932  1.00  0.00     0.257 C 
HETATM   18  C20 UNL     1      18.720 -15.917  22.385  1.00  0.00     0.223 C 
HETATM   19  O3  UNL     1      18.090 -16.874  21.823  1.00  0.00    -0.273 OA
HETATM   20  N5  UNL     1      18.085 -15.495  23.592  1.00  0.00    -0.357 N 
ATOM     21  H5  UNL     1      17.368 -16.112  23.975  1.00  0.00     0.162 HD
BRANCH  10  22
HETATM   22  C2  UNL     1      19.288 -12.107  20.199  1.00  0.00     0.238 C 
HETATM   23  C1  UNL     1      20.654 -12.171  19.660  1.00  0.00     0.035 C 
ENDBRANCH  10  22
ENDBRANCH   9  10
ENDBRANCH   8   9
ENDBRANCH   1   8
BRANCH   4  24
HETATM   24  C7  UNL     1      13.990  -9.637  21.324  1.00  0.00     0.278 C 
BRANCH  24  25
HETATM   25  C8  UNL     1      12.625  -9.537  21.922  1.00  0.00     0.265 C 
HETATM   26  O1  UNL     1      11.660  -9.200  21.216  1.00  0.00    -0.267 OA
HETATM   27  N4  UNL     1      12.458  -9.830  23.288  1.00  0.00    -0.354 N 
ATOM     28  H4  UNL     1      13.313 -10.087  23.782  1.00  0.00     0.162 HD
BRANCH  27  29
HETATM   29  C9  UNL     1      11.283  -9.824  24.085  1.00  0.00     0.148 C 
BRANCH  29  30
HETATM   30  C10 UNL     1      10.885 -11.167  24.610  1.00  0.00     0.183 C 
BRANCH  30  31
HETATM   31  O2  UNL     1      10.127 -11.923  23.754  1.00  0.00    -0.399 OA
ATOM     32  H2  UNL     1      10.124 -12.855  23.936  1.00  0.00     0.209 HD
ENDBRANCH  30  31
ENDBRANCH  29  30
ENDBRANCH  27  29
ENDBRANCH  24  25
ENDBRANCH   4  24
TORSDOF 9
ENDMDL
MODEL 4
REMARK VINA RESULT: -7.806573576      1.378      1.898
REMARK  9 active torsions:
REMARK  status: ('A' for Active; 'I' for Inactive)
REMARK    1  A    between atoms: C2_2  and  N1_3 
REMARK    2  A    between atoms: N1_3  and  C3_4 
REMARK    3  A    between atoms: C3_4  and  C4_5 
REMARK    4  A    between atoms: C4_5  and  N2_6 
REMARK    5  A    between atoms: N3_9  and  C7_10 
REMARK    6  A    between atoms: C7_10  and  C8_11 
REMARK       I    between atoms: C8_11  and  N4_13 
REMARK    7  A    between atoms: N4_13  and  C9_15 
REMARK    8  A    between atoms: C9_15  and  C10_16 
REMARK    9  A    between atoms: C10_16  and  O2_17 
ROOT
HETATM    1  N2  UNL     1      16.533 -12.997  20.793  1.00  0.00    -0.038 N 
HETATM    2  C5  UNL     1      16.835 -11.614  20.705  1.00  0.00     0.268 C 
HETATM    3  C6  UNL     1      15.495 -11.051  20.191  1.00  0.00     0.273 C 
HETATM    4  N3  UNL     1      14.599 -12.152  20.219  1.00  0.00    -0.014 N 
HETATM    5  C11 UNL     1      14.866 -13.056  19.122  1.00  0.00     0.273 C 
HETATM    6  C12 UNL     1      16.256 -13.590  19.504  1.00  0.00     0.268 C 
HETATM    7  C13 UNL     1      15.162 -12.939  21.337  1.00  0.00     0.479 C 
ENDROOT
BRANCH   1   8
HETATM    8  C4  UNL     1      17.383 -13.783  21.636  1.00  0.00     0.268 C 
BRANCH   8   9
HETATM    9  C3  UNL     1      18.610 -13.050  22.025  1.00  0.00     0.271 C 
BRANCH   9  10
HETATM   10  N1  UNL     1      19.844 -13.822  22.043  1.00  0.00    -0.045 N 
HETATM   11  C14 UNL     1      20.889 -13.031  22.590  1.00  0.00     0.207 C 
HETATM   12  C15 UNL     1      21.638 -13.447  23.783  1.00  0.00    -0.039 C 
HETATM   13  C16 UNL     1      22.032 -14.857  23.970  1.00  0.00     0.038 C 
HETATM   14  C21 UNL     1      21.125 -12.806  25.087  1.00  0.00     0.158 C 
HETATM   15  C17 UNL     1      21.022 -15.805  24.499  1.00  0.00     0.020 C 
HETATM   16  C18 UNL     1      19.635 -15.391  23.986  1.00  0.00     0.104 C 
HETATM   17  C19 UNL     1      19.718 -15.137  22.559  1.00  0.00     0.257 C 
HETATM   18  C20 UNL     1      19.141 -14.381  24.897  1.00  0.00     0.223 C 
HETATM   19  O3  UNL     1      17.920 -14.409  25.267  1.00  0.00    -0.273 OA
HETATM   20  N5  UNL     1      19.853 -13.290  25.482  1.00  0.00    -0.357 N 
ATOM     21  H5  UNL     1      19.400 -12.811  26.261  1.00  0.00     0.162 HD
BRANCH  10  22
HETATM   22  C2  UNL     1      20.102 -13.974  20.592  1.00  0.00     0.238 C 
HETATM   23  C1  UNL     1      20.394 -12.736  19.857  1.00  0.00     0.035 C 
ENDBRANCH  10  22
ENDBRANCH   9  10
ENDBRANCH   8   9
ENDBRANCH   1   8
BRANCH   4  24
HETATM   24  C7  UNL     1      13.250 -11.917  20.509  1.00  0.00     0.278 C 
BRANCH  24  25
HETATM   25  C8  UNL     1      12.953 -10.561  21.058  1.00  0.00     0.265 C 
HETATM   26  O1  UNL     1      13.126  -9.552  20.353  1.00  0.00    -0.267 OA
HETATM   27  N4  UNL     1      12.477 -10.451  22.377  1.00  0.00    -0.354 N 
ATOM     28  H4  UNL     1      12.380 -11.335  22.876  1.00  0.00     0.162 HD
BRANCH  27  29
HETATM   29  C9  UNL     1      12.113  -9.298  23.122  1.00  0.00     0.148 C 
BRANCH  29  30
HETATM   30  C10 UNL     1      11.178  -9.566  24.258  1.00  0.00     0.183 C 
BRANCH  30  31
HETATM   31  O2  UNL     1      10.464 -10.733  24.157  1.00  0.00    -0.399 OA
ATOM     32  H2  UNL     1      10.600 -11.348  24.868  1.00  0.00     0.209 HD
ENDBRANCH  30  31
ENDBRANCH  29  30
ENDBRANCH  27  29
ENDBRANCH  24  25
ENDBRANCH   4  24
TORSDOF 9
ENDMDL
MODEL 5
REMARK VINA RESULT: -7.789402163      1.296      1.442
REMARK  9 active torsions:
REMARK  status: ('A' for Active; 'I' for Inactive)
REMARK    1  A    between atoms: C2_2  and  N1_3 
REMARK    2  A    between atoms: N1_3  and  C3_4 
REMARK    3  A    between atoms: C3_4  and  C4_5 
REMARK    4  A    between atoms: C4_5  and  N2_6 
REMARK    5  A    between atoms: N3_9  and  C7_10 
REMARK    6  A    between atoms: C7_10  and  C8_11 
REMARK       I    between atoms: C8_11  and  N4_13 
REMARK    7  A    between atoms: N4_13  and  C9_15 
REMARK    8  A    between atoms: C9_15  and  C10_16 
REMARK    9  A    between atoms: C10_16  and  O2_17 
ROOT
HETATM    1  N2  UNL     1      16.115 -12.290  20.783  1.00  0.00    -0.038 N 
HETATM    2  C5  UNL     1      15.894 -12.565  19.410  1.00  0.00     0.268 C 
HETATM    3  C6  UNL     1      14.405 -12.193  19.268  1.00  0.00     0.273 C 
HETATM    4  N3  UNL     1      14.050 -11.616  20.517  1.00  0.00    -0.014 N 
HETATM    5  C11 UNL     1      13.901 -12.640  21.528  1.00  0.00     0.273 C 
HETATM    6  C12 UNL     1      15.346 -13.150  21.655  1.00  0.00     0.268 C 
HETATM    7  C13 UNL     1      15.346 -11.037  20.933  1.00  0.00     0.479 C 
ENDROOT
BRANCH   1   8
HETATM    8  C4  UNL     1      17.476 -12.102  21.187  1.00  0.00     0.268 C 
BRANCH   8   9
HETATM    9  C3  UNL     1      18.373 -13.125  20.601  1.00  0.00     0.271 C 
BRANCH   9  10
HETATM   10  N1  UNL     1      19.551 -13.474  21.382  1.00  0.00    -0.045 N 
HETATM   11  C14 UNL     1      19.380 -13.029  22.720  1.00  0.00     0.207 C 
HETATM   12  C15 UNL     1      19.425 -13.954  23.861  1.00  0.00    -0.039 C 
HETATM   13  C16 UNL     1      20.412 -15.049  23.902  1.00  0.00     0.038 C 
HETATM   14  C21 UNL     1      18.033 -14.404  24.344  1.00  0.00     0.158 C 
HETATM   15  C17 UNL     1      20.119 -16.290  23.144  1.00  0.00     0.020 C 
HETATM   16  C18 UNL     1      19.338 -15.923  21.874  1.00  0.00     0.104 C 
HETATM   17  C19 UNL     1      20.001 -14.809  21.219  1.00  0.00     0.257 C 
HETATM   18  C20 UNL     1      17.944 -15.843  22.253  1.00  0.00     0.223 C 
HETATM   19  O3  UNL     1      17.053 -16.336  21.483  1.00  0.00    -0.273 OA
HETATM   20  N5  UNL     1      17.376 -15.263  23.427  1.00  0.00    -0.357 N 
ATOM     21  H5  UNL     1      16.401 -15.488  23.626  1.00  0.00     0.162 HD
BRANCH  10  22
HETATM   22  C2  UNL     1      20.577 -12.615  20.746  1.00  0.00     0.238 C 
HETATM   23  C1  UNL     1      20.439 -12.417  19.297  1.00  0.00     0.035 C 
ENDBRANCH  10  22
ENDBRANCH   9  10
ENDBRANCH   8   9
ENDBRANCH   1   8
BRANCH   4  24
HETATM   24  C7  UNL     1      13.104 -10.586  20.540  1.00  0.00     0.278 C 
BRANCH  24  25
HETATM   25  C8  UNL     1      12.873  -9.975  21.883  1.00  0.00     0.265 C 
HETATM   26  O1  UNL     1      13.606  -9.055  22.282  1.00  0.00    -0.267 OA
HETATM   27  N4  UNL     1      11.818 -10.459  22.678  1.00  0.00    -0.354 N 
ATOM     28  H4  UNL     1      11.282 -11.223  22.265  1.00  0.00     0.162 HD
BRANCH  27  29
HETATM   29  C9  UNL     1      11.385 -10.049  23.967  1.00  0.00     0.148 C 
BRANCH  29  30
HETATM   30  C10 UNL     1      11.331  -8.567  24.158  1.00  0.00     0.183 C 
BRANCH  30  31
HETATM   31  O2  UNL     1      12.440  -8.018  24.747  1.00  0.00    -0.399 OA
ATOM     32  H2  UNL     1      13.111  -8.641  24.998  1.00  0.00     0.209 HD
ENDBRANCH  30  31
ENDBRANCH  29  30
ENDBRANCH  27  29
ENDBRANCH  24  25
ENDBRANCH   4  24
TORSDOF 9
ENDMDL
