MODEL 1
REMARK VINA RESULT: -7.328382707      0.000      0.000
REMARK  9 active torsions:
REMARK  status: ('A' for Active; 'I' for Inactive)
REMARK    1  A    between atoms: C2_2  and  C3_3 
REMARK    2  A    between atoms: C3_3  and  C4_4 
REMARK    3  A    between atoms: N1_6  and  C6_7 
REMARK    4  A    between atoms: C6_7  and  C7_8 
REMARK    5  A    between atoms: C8_9  and  C9_10 
REMARK    6  A    between atoms: C14_22  and  C15_23 
REMARK    7  A    between atoms: C17_25  and  O1_26 
REMARK    8  A    between atoms: C19_29  and  C20_30 
REMARK    9  A    between atoms: C22_32  and  O2_33 
ROOT
HETATM    1  C9  UNL     1     -26.447   1.632  14.714  1.00  0.00    -0.031 A 
HETATM    2  C10 UNL     1     -26.347   2.156  15.975  1.00  0.00     0.029 A 
HETATM    3  C11 UNL     1     -25.103   2.265  16.572  1.00  0.00     0.102 A 
HETATM    4  N2  UNL     1     -23.971   1.876  15.970  1.00  0.00    -0.284 N 
HETATM    5  C12 UNL     1     -24.061   1.355  14.720  1.00  0.00     0.153 A 
HETATM    6  C13 UNL     1     -25.276   1.226  14.083  1.00  0.00     0.064 A 
HETATM    7  N3  UNL     1     -22.873   0.933  14.067  1.00  0.00    -0.185 N 
HETATM    8  N4  UNL     1     -22.895   0.454  12.925  1.00  0.00    -0.322 N 
ATOM      9  H41 UNL     1     -22.041   0.151  12.456  1.00  0.00     0.179 HD
ATOM     10  H42 UNL     1     -23.799   0.365  12.461  1.00  0.00     0.179 HD
HETATM   11  N5  UNL     1     -21.608   1.059  14.717  1.00  0.00    -0.278 N 
ATOM     12  H5  UNL     1     -20.748   0.760  14.258  1.00  0.00     0.189 HD
HETATM   13  C14 UNL     1     -21.586   1.612  16.025  1.00  0.00     0.078 A 
HETATM   14  C17 UNL     1     -22.711   1.998  16.611  1.00  0.00     0.172 A 
ENDROOT
BRANCH   1  15
HETATM   15  C8  UNL     1     -27.694   1.469  13.997  1.00  0.00     0.009 C 
HETATM   16  C7  UNL     1     -28.407   0.358  14.024  1.00  0.00    -0.006 C 
BRANCH  16  17
HETATM   17  C6  UNL     1     -29.683   0.205  13.285  1.00  0.00     0.155 C 
BRANCH  17  18
HETATM   18  N1  UNL     1     -30.768   0.052  14.224  1.00  0.00    -0.362 N 
HETATM   19  C5  UNL     1     -30.521  -0.318  15.495  1.00  0.00     0.101 A 
HETATM   20  C4  UNL     1     -31.514  -0.478  16.428  1.00  0.00    -0.005 A 
HETATM   21  C22 UNL     1     -32.827  -0.241  16.022  1.00  0.00     0.085 A 
HETATM   22  C19 UNL     1     -33.056   0.143  14.694  1.00  0.00     0.012 A 
HETATM   23  C18 UNL     1     -32.037   0.294  13.784  1.00  0.00     0.105 A 
BRANCH  20  24
HETATM   24  C3  UNL     1     -31.258  -0.886  17.848  1.00  0.00     0.069 C 
BRANCH  24  25
HETATM   25  C2  UNL     1     -29.822  -1.005  18.144  1.00  0.00    -0.032 C 
HETATM   26  C1  UNL     1     -29.358  -1.960  18.931  1.00  0.00     0.007 C 
ENDBRANCH  24  25
ENDBRANCH  20  24
BRANCH  21  27
HETATM   27  O2  UNL     1     -33.820  -0.402  16.957  1.00  0.00    -0.359 OA
ATOM     28  H2  UNL     1     -34.709  -0.511  16.640  1.00  0.00     0.217 HD
ENDBRANCH  21  27
BRANCH  22  29
HETATM   29  C20 UNL     1     -34.432   0.386  14.285  1.00  0.00     0.005 C 
HETATM   30  C21 UNL     1     -35.007  -0.194  13.278  1.00  0.00     0.012 C 
ENDBRANCH  22  29
ENDBRANCH  17  18
ENDBRANCH  16  17
ENDBRANCH   1  15
BRANCH  14  31
HETATM   31  O1  UNL     1     -22.627   2.532  17.890  1.00  0.00    -0.344 OA
ATOM     32  H1  UNL     1     -21.931   3.141  18.109  1.00  0.00     0.219 HD
ENDBRANCH  14  31
BRANCH  13  33
HETATM   33  C15 UNL     1     -20.298   1.767  16.750  1.00  0.00     0.059 C 
HETATM   34  C16 UNL     1     -19.677   0.428  17.090  1.00  0.00     0.011 C 
ENDBRANCH  13  33
TORSDOF 9
ENDMDL
MODEL 2
REMARK VINA RESULT: -7.292154201      4.479      9.465
REMARK  9 active torsions:
REMARK  status: ('A' for Active; 'I' for Inactive)
REMARK    1  A    between atoms: C2_2  and  C3_3 
REMARK    2  A    between atoms: C3_3  and  C4_4 
REMARK    3  A    between atoms: N1_6  and  C6_7 
REMARK    4  A    between atoms: C6_7  and  C7_8 
REMARK    5  A    between atoms: C8_9  and  C9_10 
REMARK    6  A    between atoms: C14_22  and  C15_23 
REMARK    7  A    between atoms: C17_25  and  O1_26 
REMARK    8  A    between atoms: C19_29  and  C20_30 
REMARK    9  A    between atoms: C22_32  and  O2_33 
ROOT
HETATM    1  C9  UNL     1     -29.681  -1.288  19.638  1.00  0.00    -0.031 A 
HETATM    2  C10 UNL     1     -28.942  -2.431  19.494  1.00  0.00     0.029 A 
HETATM    3  C11 UNL     1     -29.342  -3.588  20.142  1.00  0.00     0.102 A 
HETATM    4  N2  UNL     1     -30.435  -3.647  20.916  1.00  0.00    -0.284 N 
HETATM    5  C12 UNL     1     -31.173  -2.517  21.064  1.00  0.00     0.153 A 
HETATM    6  C13 UNL     1     -30.816  -1.342  20.440  1.00  0.00     0.064 A 
HETATM    7  N3  UNL     1     -32.331  -2.559  21.883  1.00  0.00    -0.185 N 
HETATM    8  N4  UNL     1     -33.043  -1.560  22.050  1.00  0.00    -0.322 N 
ATOM      9  H41 UNL     1     -33.875  -1.590  22.640  1.00  0.00     0.179 HD
ATOM     10  H42 UNL     1     -32.772  -0.695  21.583  1.00  0.00     0.179 HD
HETATM   11  N5  UNL     1     -32.709  -3.770  22.537  1.00  0.00    -0.278 N 
ATOM     12  H5  UNL     1     -33.540  -3.812  23.128  1.00  0.00     0.189 HD
HETATM   13  C14 UNL     1     -31.892  -4.915  22.340  1.00  0.00     0.078 A 
HETATM   14  C17 UNL     1     -30.816  -4.847  21.568  1.00  0.00     0.172 A 
ENDROOT
BRANCH   1  15
HETATM   15  C8  UNL     1     -29.354  -0.024  19.011  1.00  0.00     0.009 C 
HETATM   16  C7  UNL     1     -28.116   0.392  18.820  1.00  0.00    -0.006 C 
BRANCH  16  17
HETATM   17  C6  UNL     1     -27.796   1.689  18.177  1.00  0.00     0.155 C 
BRANCH  17  18
HETATM   18  N1  UNL     1     -27.233   1.451  16.869  1.00  0.00    -0.362 N 
HETATM   19  C5  UNL     1     -25.932   1.705  16.632  1.00  0.00     0.101 A 
HETATM   20  C4  UNL     1     -25.346   1.496  15.409  1.00  0.00    -0.005 A 
HETATM   21  C22 UNL     1     -26.150   1.001  14.383  1.00  0.00     0.085 A 
HETATM   22  C19 UNL     1     -27.501   0.746  14.657  1.00  0.00     0.012 A 
HETATM   23  C18 UNL     1     -28.056   0.965  15.895  1.00  0.00     0.105 A 
BRANCH  20  24
HETATM   24  C3  UNL     1     -23.900   1.769  15.127  1.00  0.00     0.069 C 
BRANCH  24  25
HETATM   25  C2  UNL     1     -23.113   1.939  16.358  1.00  0.00    -0.032 C 
HETATM   26  C1  UNL     1     -21.861   2.362  16.324  1.00  0.00     0.007 C 
ENDBRANCH  24  25
ENDBRANCH  20  24
BRANCH  21  27
HETATM   27  O2  UNL     1     -25.563   0.793  13.159  1.00  0.00    -0.359 OA
ATOM     28  H2  UNL     1     -25.287  -0.091  12.948  1.00  0.00     0.217 HD
ENDBRANCH  21  27
BRANCH  22  29
HETATM   29  C20 UNL     1     -28.327   0.229  13.576  1.00  0.00     0.005 C 
HETATM   30  C21 UNL     1     -29.587  -0.056  13.693  1.00  0.00     0.012 C 
ENDBRANCH  22  29
ENDBRANCH  17  18
ENDBRANCH  16  17
ENDBRANCH   1  15
BRANCH  14  31
HETATM   31  O1  UNL     1     -30.056  -5.999  21.413  1.00  0.00    -0.344 OA
ATOM     32  H1  UNL     1     -30.107  -6.697  22.056  1.00  0.00     0.219 HD
ENDBRANCH  14  31
BRANCH  13  33
HETATM   33  C15 UNL     1     -32.238  -6.203  22.996  1.00  0.00     0.059 C 
HETATM   34  C16 UNL     1     -32.661  -6.008  24.437  1.00  0.00     0.011 C 
ENDBRANCH  13  33
TORSDOF 9
ENDMDL
MODEL 3
REMARK VINA RESULT: -7.186429281      4.493      9.620
REMARK  9 active torsions:
REMARK  status: ('A' for Active; 'I' for Inactive)
REMARK    1  A    between atoms: C2_2  and  C3_3 
REMARK    2  A    between atoms: C3_3  and  C4_4 
REMARK    3  A    between atoms: N1_6  and  C6_7 
REMARK    4  A    between atoms: C6_7  and  C7_8 
REMARK    5  A    between atoms: C8_9  and  C9_10 
REMARK    6  A    between atoms: C14_22  and  C15_23 
REMARK    7  A    between atoms: C17_25  and  O1_26 
REMARK    8  A    between atoms: C19_29  and  C20_30 
REMARK    9  A    between atoms: C22_32  and  O2_33 
ROOT
HETATM    1  C9  UNL     1     -29.697  -1.291  19.623  1.00  0.00    -0.031 A 
HETATM    2  C10 UNL     1     -28.950  -2.427  19.467  1.00  0.00     0.029 A 
HETATM    3  C11 UNL     1     -29.331  -3.589  20.116  1.00  0.00     0.102 A 
HETATM    4  N2  UNL     1     -30.413  -3.661  20.902  1.00  0.00    -0.284 N 
HETATM    5  C12 UNL     1     -31.160  -2.539  21.062  1.00  0.00     0.153 A 
HETATM    6  C13 UNL     1     -30.822  -1.358  20.438  1.00  0.00     0.064 A 
HETATM    7  N3  UNL     1     -32.308  -2.594  21.895  1.00  0.00    -0.185 N 
HETATM    8  N4  UNL     1     -33.028  -1.602  22.074  1.00  0.00    -0.322 N 
ATOM      9  H41 UNL     1     -33.853  -1.642  22.674  1.00  0.00     0.179 HD
ATOM     10  H42 UNL     1     -32.771  -0.733  21.607  1.00  0.00     0.179 HD
HETATM   11  N5  UNL     1     -32.668  -3.811  22.550  1.00  0.00    -0.278 N 
ATOM     12  H5  UNL     1     -33.490  -3.862  23.150  1.00  0.00     0.189 HD
HETATM   13  C14 UNL     1     -31.842  -4.947  22.339  1.00  0.00     0.078 A 
HETATM   14  C17 UNL     1     -30.775  -4.867  21.555  1.00  0.00     0.172 A 
ENDROOT
BRANCH   1  15
HETATM   15  C8  UNL     1     -29.390  -0.022  18.996  1.00  0.00     0.009 C 
HETATM   16  C7  UNL     1     -28.160   0.427  18.832  1.00  0.00    -0.006 C 
BRANCH  16  17
HETATM   17  C6  UNL     1     -27.859   1.729  18.188  1.00  0.00     0.155 C 
BRANCH  17  18
HETATM   18  N1  UNL     1     -27.298   1.499  16.879  1.00  0.00    -0.362 N 
HETATM   19  C5  UNL     1     -28.083   1.096  15.862  1.00  0.00     0.101 A 
HETATM   20  C4  UNL     1     -27.603   0.864  14.599  1.00  0.00    -0.005 A 
HETATM   21  C22 UNL     1     -26.239   1.060  14.380  1.00  0.00     0.085 A 
HETATM   22  C19 UNL     1     -25.445   1.479  15.455  1.00  0.00     0.012 A 
HETATM   23  C18 UNL     1     -25.959   1.703  16.709  1.00  0.00     0.105 A 
BRANCH  20  24
HETATM   24  C3  UNL     1     -28.462   0.418  13.455  1.00  0.00     0.069 C 
BRANCH  24  25
HETATM   25  C2  UNL     1     -29.802   0.000  13.893  1.00  0.00    -0.032 C 
HETATM   26  C1  UNL     1     -30.810  -0.089  13.041  1.00  0.00     0.007 C 
ENDBRANCH  24  25
ENDBRANCH  20  24
BRANCH  21  27
HETATM   27  O2  UNL     1     -25.758   0.826  13.115  1.00  0.00    -0.359 OA
ATOM     28  H2  UNL     1     -24.941   1.244  12.871  1.00  0.00     0.217 HD
ENDBRANCH  21  27
BRANCH  22  29
HETATM   29  C20 UNL     1     -24.023   1.679  15.211  1.00  0.00     0.005 C 
HETATM   30  C21 UNL     1     -23.142   1.866  16.144  1.00  0.00     0.012 C 
ENDBRANCH  22  29
ENDBRANCH  17  18
ENDBRANCH  16  17
ENDBRANCH   1  15
BRANCH  14  31
HETATM   31  O1  UNL     1     -30.007  -6.011  21.387  1.00  0.00    -0.344 OA
ATOM     32  H1  UNL     1     -30.423  -6.842  21.191  1.00  0.00     0.219 HD
ENDBRANCH  14  31
BRANCH  13  33
HETATM   33  C15 UNL     1     -32.167  -6.240  22.995  1.00  0.00     0.059 C 
HETATM   34  C16 UNL     1     -32.687  -6.044  24.404  1.00  0.00     0.011 C 
ENDBRANCH  13  33
TORSDOF 9
ENDMDL
MODEL 4
REMARK VINA RESULT: -6.976040983      0.428      2.978
REMARK  9 active torsions:
REMARK  status: ('A' for Active; 'I' for Inactive)
REMARK    1  A    between atoms: C2_2  and  C3_3 
REMARK    2  A    between atoms: C3_3  and  C4_4 
REMARK    3  A    between atoms: N1_6  and  C6_7 
REMARK    4  A    between atoms: C6_7  and  C7_8 
REMARK    5  A    between atoms: C8_9  and  C9_10 
REMARK    6  A    between atoms: C14_22  and  C15_23 
REMARK    7  A    between atoms: C17_25  and  O1_26 
REMARK    8  A    between atoms: C19_29  and  C20_30 
REMARK    9  A    between atoms: C22_32  and  O2_33 
ROOT
HETATM    1  C9  UNL     1     -26.458   1.596  14.708  1.00  0.00    -0.031 A 
HETATM    2  C10 UNL     1     -26.363   2.148  15.957  1.00  0.00     0.029 A 
HETATM    3  C11 UNL     1     -25.121   2.269  16.557  1.00  0.00     0.102 A 
HETATM    4  N2  UNL     1     -23.987   1.867  15.968  1.00  0.00    -0.284 N 
HETATM    5  C12 UNL     1     -24.072   1.318  14.729  1.00  0.00     0.153 A 
HETATM    6  C13 UNL     1     -25.285   1.176  14.091  1.00  0.00     0.064 A 
HETATM    7  N3  UNL     1     -22.882   0.882  14.090  1.00  0.00    -0.185 N 
HETATM    8  N4  UNL     1     -22.900   0.378  12.960  1.00  0.00    -0.322 N 
ATOM      9  H41 UNL     1     -22.045   0.064  12.501  1.00  0.00     0.179 HD
ATOM     10  H42 UNL     1     -23.802   0.279  12.494  1.00  0.00     0.179 HD
HETATM   11  N5  UNL     1     -21.619   1.021  14.743  1.00  0.00    -0.278 N 
ATOM     12  H5  UNL     1     -20.758   0.712  14.293  1.00  0.00     0.189 HD
HETATM   13  C14 UNL     1     -21.603   1.602  16.038  1.00  0.00     0.078 A 
HETATM   14  C17 UNL     1     -22.730   2.002  16.611  1.00  0.00     0.172 A 
ENDROOT
BRANCH   1  15
HETATM   15  C8  UNL     1     -27.702   1.418  13.990  1.00  0.00     0.009 C 
HETATM   16  C7  UNL     1     -28.409   0.304  14.027  1.00  0.00    -0.006 C 
BRANCH  16  17
HETATM   17  C6  UNL     1     -29.682   0.135  13.286  1.00  0.00     0.155 C 
BRANCH  17  18
HETATM   18  N1  UNL     1     -30.775   0.044  14.224  1.00  0.00    -0.362 N 
HETATM   19  C5  UNL     1     -32.040   0.270  13.820  1.00  0.00     0.101 A 
HETATM   20  C4  UNL     1     -33.115   0.196  14.669  1.00  0.00    -0.005 A 
HETATM   21  C22 UNL     1     -32.865  -0.128  16.002  1.00  0.00     0.085 A 
HETATM   22  C19 UNL     1     -31.540  -0.358  16.396  1.00  0.00     0.012 A 
HETATM   23  C18 UNL     1     -30.485  -0.276  15.519  1.00  0.00     0.105 A 
BRANCH  20  24
HETATM   24  C3  UNL     1     -34.529   0.441  14.237  1.00  0.00     0.069 C 
BRANCH  24  25
HETATM   25  C2  UNL     1     -34.874  -0.296  13.012  1.00  0.00    -0.032 C 
HETATM   26  C1  UNL     1     -36.100  -0.274  12.515  1.00  0.00     0.007 C 
ENDBRANCH  24  25
ENDBRANCH  20  24
BRANCH  21  27
HETATM   27  O2  UNL     1     -33.942  -0.201  16.851  1.00  0.00    -0.359 OA
ATOM     28  H2  UNL     1     -33.806  -0.604  17.700  1.00  0.00     0.217 HD
ENDBRANCH  21  27
BRANCH  22  29
HETATM   29  C20 UNL     1     -31.295  -0.696  17.791  1.00  0.00     0.005 C 
HETATM   30  C21 UNL     1     -30.931  -1.869  18.204  1.00  0.00     0.012 C 
ENDBRANCH  22  29
ENDBRANCH  17  18
ENDBRANCH  16  17
ENDBRANCH   1  15
BRANCH  14  31
HETATM   31  O1  UNL     1     -22.650   2.563  17.879  1.00  0.00    -0.344 OA
ATOM     32  H1  UNL     1     -22.025   2.228  18.512  1.00  0.00     0.219 HD
ENDBRANCH  14  31
BRANCH  13  33
HETATM   33  C15 UNL     1     -20.317   1.772  16.765  1.00  0.00     0.059 C 
HETATM   34  C16 UNL     1     -19.734   0.444  17.200  1.00  0.00     0.011 C 
ENDBRANCH  13  33
TORSDOF 9
ENDMDL
MODEL 5
REMARK VINA RESULT: -6.958445400      1.575      1.996
REMARK  9 active torsions:
REMARK  status: ('A' for Active; 'I' for Inactive)
REMARK    1  A    between atoms: C2_2  and  C3_3 
REMARK    2  A    between atoms: C3_3  and  C4_4 
REMARK    3  A    between atoms: N1_6  and  C6_7 
REMARK    4  A    between atoms: C6_7  and  C7_8 
REMARK    5  A    between atoms: C8_9  and  C9_10 
REMARK    6  A    between atoms: C14_22  and  C15_23 
REMARK    7  A    between atoms: C17_25  and  O1_26 
REMARK    8  A    between atoms: C19_29  and  C20_30 
REMARK    9  A    between atoms: C22_32  and  O2_33 
ROOT
HETATM    1  C9  UNL     1     -25.903   1.656  14.016  1.00  0.00    -0.031 A 
HETATM    2  C10 UNL     1     -26.035   1.932  15.350  1.00  0.00     0.029 A 
HETATM    3  C11 UNL     1     -24.903   2.029  16.142  1.00  0.00     0.102 A 
HETATM    4  N2  UNL     1     -23.663   1.864  15.662  1.00  0.00    -0.284 N 
HETATM    5  C12 UNL     1     -23.523   1.589  14.339  1.00  0.00     0.153 A 
HETATM    6  C13 UNL     1     -24.619   1.483  13.510  1.00  0.00     0.064 A 
HETATM    7  N3  UNL     1     -22.218   1.406  13.813  1.00  0.00    -0.185 N 
HETATM    8  N4  UNL     1     -22.031   1.158  12.614  1.00  0.00    -0.322 N 
ATOM      9  H41 UNL     1     -21.093   1.026  12.236  1.00  0.00     0.179 HD
ATOM     10  H42 UNL     1     -22.848   1.083  12.008  1.00  0.00     0.179 HD
HETATM   11  N5  UNL     1     -21.075   1.510  14.663  1.00  0.00    -0.278 N 
ATOM     12  H5  UNL     1     -20.133   1.382  14.295  1.00  0.00     0.189 HD
HETATM   13  C14 UNL     1     -21.293   1.799  16.036  1.00  0.00     0.078 A 
HETATM   14  C17 UNL     1     -22.524   1.966  16.501  1.00  0.00     0.172 A 
ENDROOT
BRANCH   1  15
HETATM   15  C8  UNL     1     -27.015   1.529  13.098  1.00  0.00     0.009 C 
HETATM   16  C7  UNL     1     -27.840   2.520  12.817  1.00  0.00    -0.006 C 
BRANCH  16  17
HETATM   17  C6  UNL     1     -28.976   2.376  11.874  1.00  0.00     0.155 C 
BRANCH  17  18
HETATM   18  N1  UNL     1     -29.943   1.456  12.423  1.00  0.00    -0.362 N 
HETATM   19  C5  UNL     1     -29.913   1.136  13.730  1.00  0.00     0.101 A 
HETATM   20  C4  UNL     1     -30.808   0.269  14.303  1.00  0.00    -0.005 A 
HETATM   21  C22 UNL     1     -31.782  -0.294  13.479  1.00  0.00     0.085 A 
HETATM   22  C19 UNL     1     -31.790   0.056  12.122  1.00  0.00     0.012 A 
HETATM   23  C18 UNL     1     -30.879   0.929  11.579  1.00  0.00     0.105 A 
BRANCH  20  24
HETATM   24  C3  UNL     1     -30.792  -0.096  15.757  1.00  0.00     0.069 C 
BRANCH  24  25
HETATM   25  C2  UNL     1     -29.690   0.553  16.484  1.00  0.00    -0.032 C 
HETATM   26  C1  UNL     1     -29.040  -0.071  17.451  1.00  0.00     0.007 C 
ENDBRANCH  24  25
ENDBRANCH  20  24
BRANCH  21  27
HETATM   27  O2  UNL     1     -32.677  -1.163  14.053  1.00  0.00    -0.359 OA
ATOM     28  H2  UNL     1     -33.446  -0.791  14.469  1.00  0.00     0.217 HD
ENDBRANCH  21  27
BRANCH  22  29
HETATM   29  C20 UNL     1     -32.813  -0.540  11.273  1.00  0.00     0.005 C 
HETATM   30  C21 UNL     1     -32.792  -0.512   9.977  1.00  0.00     0.012 C 
ENDBRANCH  22  29
ENDBRANCH  17  18
ENDBRANCH  16  17
ENDBRANCH   1  15
BRANCH  14  31
HETATM   31  O1  UNL     1     -22.674   2.247  17.852  1.00  0.00    -0.344 OA
ATOM     32  H1  UNL     1     -21.918   2.478  18.380  1.00  0.00     0.219 HD
ENDBRANCH  14  31
BRANCH  13  33
HETATM   33  C15 UNL     1     -20.141   1.920  16.967  1.00  0.00     0.059 C 
HETATM   34  C16 UNL     1     -19.585   0.566  17.356  1.00  0.00     0.011 C 
ENDBRANCH  13  33
TORSDOF 9
ENDMDL
