MODEL 1
REMARK VINA RESULT: -7.750986511      0.000      0.000
REMARK  10 active torsions:
REMARK  status: ('A' for Active; 'I' for Inactive)
REMARK    1  A    between atoms: C2_2  and  C3_3 
REMARK    2  A    between atoms: C3_3  and  C4_4 
REMARK    3  A    between atoms: C4_4  and  C5_5 
REMARK    4  A    between atoms: C5_5  and  C6_6 
REMARK    5  A    between atoms: C6_6  and  C7_7 
REMARK    6  A    between atoms: C10_10  and  C11_11 
REMARK    7  A    between atoms: C11_11  and  C12_12 
REMARK    8  A    between atoms: C13_15  and  C14_16 
REMARK    9  A    between atoms: C14_16  and  C15_17 
REMARK   10  A    between atoms: C23_29  and  O2_30 
ROOT
HETATM    1  C11 UNL     1     -27.309   1.241  13.649  1.00  0.00     0.065 C 
ENDROOT
BRANCH   1   2
HETATM    2  C10 UNL     1     -27.886   0.888  14.959  1.00  0.00     0.038 A 
HETATM    3  C9  UNL     1     -27.224   1.101  16.151  1.00  0.00     0.030 A 
HETATM    4  C8  UNL     1     -27.814   0.750  17.365  1.00  0.00     0.013 A 
HETATM    5  C7  UNL     1     -29.078   0.180  17.418  1.00  0.00    -0.007 A 
HETATM    6  C23 UNL     1     -29.701  -0.013  16.198  1.00  0.00     0.148 A 
HETATM    7  N3  UNL     1     -29.110   0.335  15.027  1.00  0.00    -0.332 N 
HETATM    8  C22 UNL     1     -29.815   0.104  13.784  1.00  0.00     0.158 C 
BRANCH   5   9
HETATM    9  C6  UNL     1     -29.737  -0.199  18.676  1.00  0.00     0.043 C 
BRANCH   9  10
HETATM   10  C5  UNL     1     -28.914  -1.217  19.464  1.00  0.00     0.005 C 
BRANCH  10  11
HETATM   11  C4  UNL     1     -29.331  -2.626  19.082  1.00  0.00     0.000 C 
BRANCH  11  12
HETATM   12  C3  UNL     1     -29.296  -3.553  20.268  1.00  0.00    -0.000 C 
BRANCH  12  13
HETATM   13  C2  UNL     1     -30.673  -3.761  20.865  1.00  0.00    -0.005 C 
HETATM   14  C1  UNL     1     -30.601  -5.051  21.685  1.00  0.00     0.005 C 
ENDBRANCH  12  13
ENDBRANCH  11  12
ENDBRANCH  10  11
ENDBRANCH   9  10
ENDBRANCH   5   9
BRANCH   6  15
HETATM   15  O2  UNL     1     -30.983  -0.588  16.202  1.00  0.00    -0.346 OA
ATOM     16  H2  UNL     1     -31.457  -0.615  15.379  1.00  0.00     0.219 HD
ENDBRANCH   6  15
ENDBRANCH   1   2
BRANCH   1  17
HETATM   17  C12 UNL     1     -26.051   1.556  13.493  1.00  0.00     0.104 A 
HETATM   18  N1  UNL     1     -24.920   0.873  13.745  1.00  0.00    -0.338 N 
HETATM   19  C13 UNL     1     -23.827   1.593  13.437  1.00  0.00     0.109 A 
ATOM     20  H1  UNL     1     -24.894  -0.074  14.123  1.00  0.00     0.167 HD
HETATM   21  N2  UNL     1     -24.258   2.772  12.973  1.00  0.00    -0.308 N 
HETATM   22  C21 UNL     1     -25.598   2.764  13.001  1.00  0.00     0.273 A 
ATOM     23  H2  UNL     1     -23.669   3.541  12.654  1.00  0.00     0.170 HD
HETATM   24  O1  UNL     1     -26.349   3.733  12.627  1.00  0.00    -0.266 OA
BRANCH  19  25
HETATM   25  C14 UNL     1     -22.550   1.197  13.572  1.00  0.00     0.060 C 
BRANCH  25  26
HETATM   26  C15 UNL     1     -21.913   1.278  14.858  1.00  0.00    -0.033 A 
HETATM   27  C16 UNL     1     -22.427   2.061  15.875  1.00  0.00     0.011 A 
HETATM   28  C17 UNL     1     -21.807   2.134  17.116  1.00  0.00     0.001 A 
HETATM   29  C18 UNL     1     -20.657   1.433  17.384  1.00  0.00     0.000 A 
HETATM   30  C19 UNL     1     -20.132   0.652  16.386  1.00  0.00     0.001 A 
HETATM   31  C20 UNL     1     -20.741   0.575  15.156  1.00  0.00     0.011 A 
ENDBRANCH  25  26
ENDBRANCH  19  25
ENDBRANCH   1  17
TORSDOF 10
ENDMDL
MODEL 2
REMARK VINA RESULT: -7.696907247      1.277      1.933
REMARK  10 active torsions:
REMARK  status: ('A' for Active; 'I' for Inactive)
REMARK    1  A    between atoms: C2_2  and  C3_3 
REMARK    2  A    between atoms: C3_3  and  C4_4 
REMARK    3  A    between atoms: C4_4  and  C5_5 
REMARK    4  A    between atoms: C5_5  and  C6_6 
REMARK    5  A    between atoms: C6_6  and  C7_7 
REMARK    6  A    between atoms: C10_10  and  C11_11 
REMARK    7  A    between atoms: C11_11  and  C12_12 
REMARK    8  A    between atoms: C13_15  and  C14_16 
REMARK    9  A    between atoms: C14_16  and  C15_17 
REMARK   10  A    between atoms: C23_29  and  O2_30 
ROOT
HETATM    1  C11 UNL     1     -27.723   1.991  15.648  1.00  0.00     0.065 C 
ENDROOT
BRANCH   1   2
HETATM    2  C10 UNL     1     -28.110   1.093  16.751  1.00  0.00     0.038 A 
HETATM    3  C9  UNL     1     -27.319   0.889  17.863  1.00  0.00     0.030 A 
HETATM    4  C8  UNL     1     -27.731   0.028  18.881  1.00  0.00     0.013 A 
HETATM    5  C7  UNL     1     -28.941  -0.647  18.813  1.00  0.00    -0.007 A 
HETATM    6  C23 UNL     1     -29.697  -0.409  17.679  1.00  0.00     0.148 A 
HETATM    7  N3  UNL     1     -29.279   0.431  16.699  1.00  0.00    -0.332 N 
HETATM    8  C22 UNL     1     -30.117   0.634  15.537  1.00  0.00     0.158 C 
BRANCH   5   9
HETATM    9  C6  UNL     1     -29.414  -1.556  19.866  1.00  0.00     0.043 C 
BRANCH   9  10
HETATM   10  C5  UNL     1     -29.293  -3.020  19.448  1.00  0.00     0.005 C 
BRANCH  10  11
HETATM   11  C4  UNL     1     -29.332  -3.914  20.676  1.00  0.00     0.000 C 
BRANCH  11  12
HETATM   12  C3  UNL     1     -30.744  -4.151  21.141  1.00  0.00    -0.000 C 
BRANCH  12  13
HETATM   13  C2  UNL     1     -30.873  -5.441  21.925  1.00  0.00    -0.005 C 
HETATM   14  C1  UNL     1     -32.159  -5.325  22.746  1.00  0.00     0.005 C 
ENDBRANCH  12  13
ENDBRANCH  11  12
ENDBRANCH  10  11
ENDBRANCH   9  10
ENDBRANCH   5   9
BRANCH   6  15
HETATM   15  O2  UNL     1     -30.931  -1.072  17.566  1.00  0.00    -0.346 OA
ATOM     16  H2  UNL     1     -31.459  -1.160  18.352  1.00  0.00     0.219 HD
ENDBRANCH   6  15
ENDBRANCH   1   2
BRANCH   1  17
HETATM   17  C12 UNL     1     -26.653   1.799  14.923  1.00  0.00     0.104 A 
HETATM   18  N1  UNL     1     -25.423   2.340  14.983  1.00  0.00    -0.338 N 
HETATM   19  C13 UNL     1     -24.619   1.853  14.022  1.00  0.00     0.109 A 
ATOM     20  H1  UNL     1     -25.134   3.033  15.674  1.00  0.00     0.167 HD
HETATM   21  N2  UNL     1     -25.344   0.974  13.320  1.00  0.00    -0.308 N 
HETATM   22  C21 UNL     1     -26.573   0.931  13.852  1.00  0.00     0.273 A 
ATOM     23  H2  UNL     1     -25.018   0.432  12.519  1.00  0.00     0.170 HD
HETATM   24  O1  UNL     1     -27.534   0.196  13.431  1.00  0.00    -0.266 OA
BRANCH  19  25
HETATM   25  C14 UNL     1     -23.334   2.189  13.813  1.00  0.00     0.060 C 
BRANCH  25  26
HETATM   26  C15 UNL     1     -22.324   1.739  14.730  1.00  0.00    -0.033 A 
HETATM   27  C16 UNL     1     -21.737   0.492  14.610  1.00  0.00     0.011 A 
HETATM   28  C17 UNL     1     -20.760   0.065  15.500  1.00  0.00     0.001 A 
HETATM   29  C18 UNL     1     -20.336   0.861  16.535  1.00  0.00     0.000 A 
HETATM   30  C19 UNL     1     -20.906   2.100  16.669  1.00  0.00     0.001 A 
HETATM   31  C20 UNL     1     -21.874   2.531  15.793  1.00  0.00     0.011 A 
ENDBRANCH  25  26
ENDBRANCH  19  25
ENDBRANCH   1  17
TORSDOF 10
ENDMDL
MODEL 3
REMARK VINA RESULT: -7.621471752      1.076      1.878
REMARK  10 active torsions:
REMARK  status: ('A' for Active; 'I' for Inactive)
REMARK    1  A    between atoms: C2_2  and  C3_3 
REMARK    2  A    between atoms: C3_3  and  C4_4 
REMARK    3  A    between atoms: C4_4  and  C5_5 
REMARK    4  A    between atoms: C5_5  and  C6_6 
REMARK    5  A    between atoms: C6_6  and  C7_7 
REMARK    6  A    between atoms: C10_10  and  C11_11 
REMARK    7  A    between atoms: C11_11  and  C12_12 
REMARK    8  A    between atoms: C13_15  and  C14_16 
REMARK    9  A    between atoms: C14_16  and  C15_17 
REMARK   10  A    between atoms: C23_29  and  O2_30 
ROOT
HETATM    1  C11 UNL     1     -27.369   1.302  13.421  1.00  0.00     0.065 C 
ENDROOT
BRANCH   1   2
HETATM    2  C10 UNL     1     -28.042   0.888  14.666  1.00  0.00     0.038 A 
HETATM    3  C9  UNL     1     -27.448   0.988  15.907  1.00  0.00     0.030 A 
HETATM    4  C8  UNL     1     -28.129   0.583  17.055  1.00  0.00     0.013 A 
HETATM    5  C7  UNL     1     -29.416   0.072  16.992  1.00  0.00    -0.007 A 
HETATM    6  C23 UNL     1     -29.969  -0.007  15.726  1.00  0.00     0.148 A 
HETATM    7  N3  UNL     1     -29.290   0.391  14.620  1.00  0.00    -0.332 N 
HETATM    8  C22 UNL     1     -29.925   0.279  13.324  1.00  0.00     0.158 C 
BRANCH   5   9
HETATM    9  C6  UNL     1     -30.169  -0.359  18.178  1.00  0.00     0.043 C 
BRANCH   9  10
HETATM   10  C5  UNL     1     -29.831  -1.795  18.575  1.00  0.00     0.005 C 
BRANCH  10  11
HETATM   11  C4  UNL     1     -28.956  -1.796  19.817  1.00  0.00     0.000 C 
BRANCH  11  12
HETATM   12  C3  UNL     1     -29.423  -0.777  20.822  1.00  0.00    -0.000 C 
BRANCH  12  13
HETATM   13  C2  UNL     1     -28.275  -0.213  21.633  1.00  0.00    -0.005 C 
HETATM   14  C1  UNL     1     -27.466   0.674  20.684  1.00  0.00     0.005 C 
ENDBRANCH  12  13
ENDBRANCH  11  12
ENDBRANCH  10  11
ENDBRANCH   9  10
ENDBRANCH   5   9
BRANCH   6  15
HETATM   15  O2  UNL     1     -31.272  -0.519  15.613  1.00  0.00    -0.346 OA
ATOM     16  H2  UNL     1     -31.794  -0.238  14.870  1.00  0.00     0.219 HD
ENDBRANCH   6  15
ENDBRANCH   1   2
BRANCH   1  17
HETATM   17  C12 UNL     1     -26.091   1.568  13.363  1.00  0.00     0.104 A 
HETATM   18  N1  UNL     1     -25.008   0.812  13.616  1.00  0.00    -0.338 N 
HETATM   19  C13 UNL     1     -23.869   1.502  13.435  1.00  0.00     0.109 A 
ATOM     20  H1  UNL     1     -25.045  -0.164  13.909  1.00  0.00     0.167 HD
HETATM   21  N2  UNL     1     -24.219   2.736  13.054  1.00  0.00    -0.308 N 
HETATM   22  C21 UNL     1     -25.558   2.790  13.006  1.00  0.00     0.273 A 
ATOM     23  H2  UNL     1     -23.580   3.501  12.838  1.00  0.00     0.170 HD
HETATM   24  O1  UNL     1     -26.243   3.823  12.679  1.00  0.00    -0.266 OA
BRANCH  19  25
HETATM   25  C14 UNL     1     -22.620   1.035  13.605  1.00  0.00     0.060 C 
BRANCH  25  26
HETATM   26  C15 UNL     1     -21.966   1.198  14.875  1.00  0.00    -0.033 A 
HETATM   27  C16 UNL     1     -20.762   0.580  15.158  1.00  0.00     0.011 A 
HETATM   28  C17 UNL     1     -20.136   0.743  16.386  1.00  0.00     0.001 A 
HETATM   29  C18 UNL     1     -20.686   1.525  17.372  1.00  0.00     0.000 A 
HETATM   30  C19 UNL     1     -21.880   2.146  17.110  1.00  0.00     0.001 A 
HETATM   31  C20 UNL     1     -22.506   1.989  15.896  1.00  0.00     0.011 A 
ENDBRANCH  25  26
ENDBRANCH  19  25
ENDBRANCH   1  17
TORSDOF 10
ENDMDL
MODEL 4
REMARK VINA RESULT: -7.611635409      0.748      1.114
REMARK  10 active torsions:
REMARK  status: ('A' for Active; 'I' for Inactive)
REMARK    1  A    between atoms: C2_2  and  C3_3 
REMARK    2  A    between atoms: C3_3  and  C4_4 
REMARK    3  A    between atoms: C4_4  and  C5_5 
REMARK    4  A    between atoms: C5_5  and  C6_6 
REMARK    5  A    between atoms: C6_6  and  C7_7 
REMARK    6  A    between atoms: C10_10  and  C11_11 
REMARK    7  A    between atoms: C11_11  and  C12_12 
REMARK    8  A    between atoms: C13_15  and  C14_16 
REMARK    9  A    between atoms: C14_16  and  C15_17 
REMARK   10  A    between atoms: C23_29  and  O2_30 
ROOT
HETATM    1  C11 UNL     1     -27.232   0.966  13.642  1.00  0.00     0.065 C 
ENDROOT
BRANCH   1   2
HETATM    2  C10 UNL     1     -27.860   0.853  14.971  1.00  0.00     0.038 A 
HETATM    3  C9  UNL     1     -27.196   1.156  16.141  1.00  0.00     0.030 A 
HETATM    4  C8  UNL     1     -27.836   1.034  17.374  1.00  0.00     0.013 A 
HETATM    5  C7  UNL     1     -29.153   0.609  17.468  1.00  0.00    -0.007 A 
HETATM    6  C23 UNL     1     -29.776   0.317  16.268  1.00  0.00     0.148 A 
HETATM    7  N3  UNL     1     -29.136   0.442  15.078  1.00  0.00    -0.332 N 
HETATM    8  C22 UNL     1     -29.845   0.119  13.857  1.00  0.00     0.158 C 
BRANCH   5   9
HETATM    9  C6  UNL     1     -29.865   0.473  18.746  1.00  0.00     0.043 C 
BRANCH   9  10
HETATM   10  C5  UNL     1     -28.963   0.794  19.936  1.00  0.00     0.005 C 
BRANCH  10  11
HETATM   11  C4  UNL     1     -28.664  -0.475  20.717  1.00  0.00     0.000 C 
BRANCH  11  12
HETATM   12  C3  UNL     1     -29.786  -1.472  20.598  1.00  0.00    -0.000 C 
BRANCH  12  13
HETATM   13  C2  UNL     1     -29.271  -2.881  20.387  1.00  0.00    -0.005 C 
HETATM   14  C1  UNL     1     -29.260  -3.118  18.875  1.00  0.00     0.005 C 
ENDBRANCH  12  13
ENDBRANCH  11  12
ENDBRANCH  10  11
ENDBRANCH   9  10
ENDBRANCH   5   9
BRANCH   6  15
HETATM   15  O2  UNL     1     -31.111  -0.118  16.312  1.00  0.00    -0.346 OA
ATOM     16  H2  UNL     1     -31.783   0.534  16.478  1.00  0.00     0.219 HD
ENDBRANCH   6  15
ENDBRANCH   1   2
BRANCH   1  17
HETATM   17  C12 UNL     1     -26.025   1.434  13.468  1.00  0.00     0.104 A 
HETATM   18  N1  UNL     1     -24.814   0.890  13.685  1.00  0.00    -0.338 N 
HETATM   19  C13 UNL     1     -23.824   1.743  13.372  1.00  0.00     0.109 A 
ATOM     20  H1  UNL     1     -24.665  -0.053  14.044  1.00  0.00     0.167 HD
HETATM   21  N2  UNL     1     -24.404   2.868  12.939  1.00  0.00    -0.308 N 
HETATM   22  C21 UNL     1     -25.732   2.697  12.992  1.00  0.00     0.273 A 
ATOM     23  H2  UNL     1     -23.920   3.709  12.625  1.00  0.00     0.170 HD
HETATM   24  O1  UNL     1     -26.603   3.573  12.652  1.00  0.00    -0.266 OA
BRANCH  19  25
HETATM   25  C14 UNL     1     -22.505   1.503  13.475  1.00  0.00     0.060 C 
BRANCH  25  26
HETATM   26  C15 UNL     1     -21.886   1.480  14.772  1.00  0.00    -0.033 A 
HETATM   27  C16 UNL     1     -22.414   2.181  15.842  1.00  0.00     0.011 A 
HETATM   28  C17 UNL     1     -21.811   2.153  17.093  1.00  0.00     0.001 A 
HETATM   29  C18 UNL     1     -20.667   1.428  17.320  1.00  0.00     0.000 A 
HETATM   30  C19 UNL     1     -20.130   0.727  16.272  1.00  0.00     0.001 A 
HETATM   31  C20 UNL     1     -20.721   0.750  15.030  1.00  0.00     0.011 A 
ENDBRANCH  25  26
ENDBRANCH  19  25
ENDBRANCH   1  17
TORSDOF 10
ENDMDL
MODEL 5
REMARK VINA RESULT: -7.499467630      1.863      2.478
REMARK  10 active torsions:
REMARK  status: ('A' for Active; 'I' for Inactive)
REMARK    1  A    between atoms: C2_2  and  C3_3 
REMARK    2  A    between atoms: C3_3  and  C4_4 
REMARK    3  A    between atoms: C4_4  and  C5_5 
REMARK    4  A    between atoms: C5_5  and  C6_6 
REMARK    5  A    between atoms: C6_6  and  C7_7 
REMARK    6  A    between atoms: C10_10  and  C11_11 
REMARK    7  A    between atoms: C11_11  and  C12_12 
REMARK    8  A    between atoms: C13_15  and  C14_16 
REMARK    9  A    between atoms: C14_16  and  C15_17 
REMARK   10  A    between atoms: C23_29  and  O2_30 
ROOT
HETATM    1  C11 UNL     1     -27.605   2.032  15.754  1.00  0.00     0.065 C 
ENDROOT
BRANCH   1   2
HETATM    2  C10 UNL     1     -27.904   1.197  16.932  1.00  0.00     0.038 A 
HETATM    3  C9  UNL     1     -28.622   0.022  16.853  1.00  0.00     0.030 A 
HETATM    4  C8  UNL     1     -28.877  -0.733  17.998  1.00  0.00     0.013 A 
HETATM    5  C7  UNL     1     -28.422  -0.334  19.246  1.00  0.00    -0.007 A 
HETATM    6  C23 UNL     1     -27.707   0.851  19.273  1.00  0.00     0.148 A 
HETATM    7  N3  UNL     1     -27.470   1.572  18.148  1.00  0.00    -0.332 N 
HETATM    8  C22 UNL     1     -26.717   2.804  18.245  1.00  0.00     0.158 C 
BRANCH   5   9
HETATM    9  C6  UNL     1     -28.664  -1.103  20.474  1.00  0.00     0.043 C 
BRANCH   9  10
HETATM   10  C5  UNL     1     -29.814  -2.095  20.306  1.00  0.00     0.005 C 
BRANCH  10  11
HETATM   11  C4  UNL     1     -29.263  -3.484  20.032  1.00  0.00     0.000 C 
BRANCH  11  12
HETATM   12  C3  UNL     1     -29.586  -4.436  21.153  1.00  0.00    -0.000 C 
BRANCH  12  13
HETATM   13  C2  UNL     1     -31.059  -4.415  21.506  1.00  0.00    -0.005 C 
HETATM   14  C1  UNL     1     -31.331  -5.684  22.317  1.00  0.00     0.005 C 
ENDBRANCH  12  13
ENDBRANCH  11  12
ENDBRANCH  10  11
ENDBRANCH   9  10
ENDBRANCH   5   9
BRANCH   6  15
HETATM   15  O2  UNL     1     -27.226   1.296  20.515  1.00  0.00    -0.346 OA
ATOM     16  H2  UNL     1     -27.052   2.224  20.615  1.00  0.00     0.219 HD
ENDBRANCH   6  15
ENDBRANCH   1   2
BRANCH   1  17
HETATM   17  C12 UNL     1     -26.573   1.821  14.981  1.00  0.00     0.104 A 
HETATM   18  N1  UNL     1     -25.315   2.295  15.018  1.00  0.00    -0.338 N 
HETATM   19  C13 UNL     1     -24.573   1.813  14.006  1.00  0.00     0.109 A 
ATOM     20  H1  UNL     1     -24.967   2.942  15.726  1.00  0.00     0.167 HD
HETATM   21  N2  UNL     1     -25.367   1.004  13.295  1.00  0.00    -0.308 N 
HETATM   22  C21 UNL     1     -26.577   0.999  13.871  1.00  0.00     0.273 A 
ATOM     23  H2  UNL     1     -25.098   0.483  12.460  1.00  0.00     0.170 HD
HETATM   24  O1  UNL     1     -27.589   0.332  13.456  1.00  0.00    -0.266 OA
BRANCH  19  25
HETATM   25  C14 UNL     1     -23.281   2.094  13.763  1.00  0.00     0.060 C 
BRANCH  25  26
HETATM   26  C15 UNL     1     -22.276   1.694  14.710  1.00  0.00    -0.033 A 
HETATM   27  C16 UNL     1     -21.865   2.533  15.730  1.00  0.00     0.011 A 
HETATM   28  C17 UNL     1     -20.895   2.140  16.642  1.00  0.00     0.001 A 
HETATM   29  C18 UNL     1     -20.302   0.904  16.569  1.00  0.00     0.000 A 
HETATM   30  C19 UNL     1     -20.697   0.059  15.563  1.00  0.00     0.001 A 
HETATM   31  C20 UNL     1     -21.657   0.441  14.657  1.00  0.00     0.011 A 
ENDBRANCH  25  26
ENDBRANCH  19  25
ENDBRANCH   1  17
TORSDOF 10
ENDMDL
