MODEL 1
REMARK VINA RESULT: -6.842736813      0.000      0.000
REMARK  9 active torsions:
REMARK  status: ('A' for Active; 'I' for Inactive)
REMARK    1  A    between atoms: C2_2  and  C3_4 
REMARK    2  A    between atoms: C7_8  and  C8_9 
REMARK    3  A    between atoms: C8_9  and  N1_10 
REMARK    4  A    between atoms: N1_10  and  C9_12 
REMARK    5  A    between atoms: C12_17  and  N3_18 
REMARK    6  A    between atoms: N5_23  and  C13_24 
REMARK    7  A    between atoms: C13_24  and  C14_25 
REMARK    8  A    between atoms: C14_25  and  C15_26 
REMARK    9  A    between atoms: C15_26  and  N6_27 
ROOT
HETATM    1  C3  UNL     1     -28.225   3.832  14.675  1.00  0.00     0.032 A 
HETATM    2  C4  UNL     1     -27.306   3.220  13.811  1.00  0.00     0.026 A 
HETATM    3  C5  UNL     1     -26.286   2.484  14.331  1.00  0.00    -0.037 A 
HETATM    4  C6  UNL     1     -25.313   1.827  13.396  1.00  0.00     0.050 C 
HETATM    5  C7  UNL     1     -26.144   2.328  15.715  1.00  0.00     0.035 A 
HETATM    6  N5  UNL     1     -27.009   2.892  16.529  1.00  0.00    -0.351 N 
HETATM    7  C21 UNL     1     -28.040   3.637  16.012  1.00  0.00     0.021 A 
HETATM    8  C22 UNL     1     -29.052   4.202  16.954  1.00  0.00     0.069 C 
ENDROOT
BRANCH   5   9
HETATM    9  C8  UNL     1     -25.020   1.436  16.132  1.00  0.00     0.179 C 
BRANCH   9  10
HETATM   10  N1  UNL     1     -23.823   2.174  16.390  1.00  0.00    -0.370 N 
ATOM     11  H1  UNL     1     -23.936   3.132  16.722  1.00  0.00     0.161 HD
BRANCH  10  12
HETATM   12  C9  UNL     1     -22.629   1.751  16.245  1.00  0.00     0.118 A 
HETATM   13  C10 UNL     1     -22.109   1.070  15.169  1.00  0.00     0.066 A 
HETATM   14  C11 UNL     1     -20.770   0.727  15.108  1.00  0.00     0.110 A 
HETATM   15  N2  UNL     1     -19.935   1.043  16.079  1.00  0.00    -0.202 N 
HETATM   16  C12 UNL     1     -20.424   1.722  17.158  1.00  0.00     0.677 A 
ATOM     17  H2  UNL     1     -18.949   0.787  16.025  1.00  0.00     0.183 HD
HETATM   18  N4  UNL     1     -21.716   2.054  17.226  1.00  0.00    -0.177 N 
ATOM     19  H4  UNL     1     -22.042   2.559  18.050  1.00  0.00     0.185 HD
BRANCH  16  20
HETATM   20  N3  UNL     1     -19.567   2.021  18.084  1.00  0.00    -0.234 N 
ATOM     21  H32 UNL     1     -18.887   2.776  17.990  1.00  0.00     0.174 HD
ATOM     22  H31 UNL     1     -19.599   1.451  18.930  1.00  0.00     0.174 HD
ENDBRANCH  16  20
ENDBRANCH  10  12
ENDBRANCH   9  10
ENDBRANCH   5   9
BRANCH   6  23
HETATM   23  C13 UNL     1     -26.980   2.702  17.967  1.00  0.00     0.130 C 
BRANCH  23  24
HETATM   24  C14 UNL     1     -27.332   1.240  18.292  1.00  0.00     0.040 C 
BRANCH  24  25
HETATM   25  C15 UNL     1     -28.670   1.164  18.939  1.00  0.00     0.129 C 
BRANCH  25  26
HETATM   26  N6  UNL     1     -29.334  -0.103  18.815  1.00  0.00    -0.366 N 
HETATM   27  C16 UNL     1     -28.693  -1.166  19.398  1.00  0.00     0.090 A 
HETATM   28  C17 UNL     1     -29.220  -2.433  19.342  1.00  0.00     0.017 A 
HETATM   29  C18 UNL     1     -30.412  -2.685  18.698  1.00  0.00     0.003 A 
HETATM   30  C19 UNL     1     -31.052  -1.617  18.115  1.00  0.00     0.017 A 
HETATM   31  C20 UNL     1     -30.484  -0.364  18.199  1.00  0.00     0.090 A 
ENDBRANCH  25  26
ENDBRANCH  24  25
ENDBRANCH  23  24
ENDBRANCH   6  23
BRANCH   1  32
HETATM   32  C2  UNL     1     -29.172   4.727  14.040  1.00  0.00     0.157 C 
HETATM   33  C1  UNL     1     -29.015   6.174  13.795  1.00  0.00     0.097 C 
HETATM   34  O1  UNL     1     -30.263   4.163  13.649  1.00  0.00    -0.293 OA
ENDBRANCH   1  32
TORSDOF 9
ENDMDL
MODEL 2
REMARK VINA RESULT: -6.820666273      2.302      2.899
REMARK  9 active torsions:
REMARK  status: ('A' for Active; 'I' for Inactive)
REMARK    1  A    between atoms: C2_2  and  C3_4 
REMARK    2  A    between atoms: C7_8  and  C8_9 
REMARK    3  A    between atoms: C8_9  and  N1_10 
REMARK    4  A    between atoms: N1_10  and  C9_12 
REMARK    5  A    between atoms: C12_17  and  N3_18 
REMARK    6  A    between atoms: N5_23  and  C13_24 
REMARK    7  A    between atoms: C13_24  and  C14_25 
REMARK    8  A    between atoms: C14_25  and  C15_26 
REMARK    9  A    between atoms: C15_26  and  N6_27 
ROOT
HETATM    1  C3  UNL     1     -29.496   1.667  12.204  1.00  0.00     0.032 A 
HETATM    2  C4  UNL     1     -28.597   2.645  11.755  1.00  0.00     0.026 A 
HETATM    3  C5  UNL     1     -27.450   2.869  12.452  1.00  0.00    -0.037 A 
HETATM    4  C6  UNL     1     -26.491   3.913  11.958  1.00  0.00     0.050 C 
HETATM    5  C7  UNL     1     -27.156   2.137  13.609  1.00  0.00     0.035 A 
HETATM    6  N5  UNL     1     -27.992   1.213  14.027  1.00  0.00    -0.351 N 
HETATM    7  C21 UNL     1     -29.150   0.980  13.330  1.00  0.00     0.021 A 
HETATM    8  C22 UNL     1     -30.044  -0.127  13.784  1.00  0.00     0.069 C 
ENDROOT
BRANCH   5   9
HETATM    9  C8  UNL     1     -25.830   2.447  14.225  1.00  0.00     0.179 C 
BRANCH   9  10
HETATM   10  N1  UNL     1     -24.872   1.418  13.970  1.00  0.00    -0.370 N 
ATOM     11  H1  UNL     1     -25.142   0.692  13.307  1.00  0.00     0.161 HD
BRANCH  10  12
HETATM   12  C9  UNL     1     -23.712   1.319  14.491  1.00  0.00     0.118 A 
HETATM   13  C10 UNL     1     -22.591   0.752  13.933  1.00  0.00     0.066 A 
HETATM   14  C11 UNL     1     -21.370   0.772  14.582  1.00  0.00     0.110 A 
HETATM   15  N2  UNL     1     -21.230   1.340  15.764  1.00  0.00    -0.202 N 
HETATM   16  C12 UNL     1     -22.326   1.913  16.341  1.00  0.00     0.677 A 
ATOM     17  H2  UNL     1     -20.324   1.351  16.236  1.00  0.00     0.183 HD
HETATM   18  N4  UNL     1     -23.510   1.895  15.722  1.00  0.00    -0.177 N 
ATOM     19  H4  UNL     1     -24.305   2.332  16.188  1.00  0.00     0.185 HD
BRANCH  16  20
HETATM   20  N3  UNL     1     -22.142   2.469  17.499  1.00  0.00    -0.234 N 
ATOM     21  H32 UNL     1     -21.285   2.355  18.040  1.00  0.00     0.174 HD
ATOM     22  H31 UNL     1     -22.913   3.034  17.856  1.00  0.00     0.174 HD
ENDBRANCH  16  20
ENDBRANCH  10  12
ENDBRANCH   9  10
ENDBRANCH   5   9
BRANCH   6  23
HETATM   23  C13 UNL     1     -27.714   0.353  15.164  1.00  0.00     0.130 C 
BRANCH  23  24
HETATM   24  C14 UNL     1     -27.798   1.182  16.457  1.00  0.00     0.040 C 
BRANCH  24  25
HETATM   25  C15 UNL     1     -29.161   1.084  17.045  1.00  0.00     0.129 C 
BRANCH  25  26
HETATM   26  N6  UNL     1     -29.456  -0.164  17.690  1.00  0.00    -0.366 N 
HETATM   27  C16 UNL     1     -30.694  -0.689  17.422  1.00  0.00     0.090 A 
HETATM   28  C17 UNL     1     -31.102  -1.874  17.986  1.00  0.00     0.017 A 
HETATM   29  C18 UNL     1     -30.284  -2.579  18.842  1.00  0.00     0.003 A 
HETATM   30  C19 UNL     1     -29.044  -2.048  19.109  1.00  0.00     0.017 A 
HETATM   31  C20 UNL     1     -28.680  -0.858  18.518  1.00  0.00     0.090 A 
ENDBRANCH  25  26
ENDBRANCH  24  25
ENDBRANCH  23  24
ENDBRANCH   6  23
BRANCH   1  32
HETATM   32  C2  UNL     1     -30.760   1.615  11.495  1.00  0.00     0.157 C 
HETATM   33  C1  UNL     1     -31.994   2.363  11.804  1.00  0.00     0.097 C 
HETATM   34  O1  UNL     1     -30.773   0.821  10.480  1.00  0.00    -0.293 OA
ENDBRANCH   1  32
TORSDOF 9
ENDMDL
MODEL 3
REMARK VINA RESULT: -6.731560307      1.207      1.357
REMARK  9 active torsions:
REMARK  status: ('A' for Active; 'I' for Inactive)
REMARK    1  A    between atoms: C2_2  and  C3_4 
REMARK    2  A    between atoms: C7_8  and  C8_9 
REMARK    3  A    between atoms: C8_9  and  N1_10 
REMARK    4  A    between atoms: N1_10  and  C9_12 
REMARK    5  A    between atoms: C12_17  and  N3_18 
REMARK    6  A    between atoms: N5_23  and  C13_24 
REMARK    7  A    between atoms: C13_24  and  C14_25 
REMARK    8  A    between atoms: C14_25  and  C15_26 
REMARK    9  A    between atoms: C15_26  and  N6_27 
ROOT
HETATM    1  C3  UNL     1     -27.155   3.800  13.207  1.00  0.00     0.032 A 
HETATM    2  C4  UNL     1     -25.930   3.355  12.689  1.00  0.00     0.026 A 
HETATM    3  C5  UNL     1     -25.127   2.569  13.456  1.00  0.00    -0.037 A 
HETATM    4  C6  UNL     1     -23.821   2.091  12.888  1.00  0.00     0.050 C 
HETATM    5  C7  UNL     1     -25.506   2.199  14.752  1.00  0.00     0.035 A 
HETATM    6  N5  UNL     1     -26.658   2.606  15.237  1.00  0.00    -0.351 N 
HETATM    7  C21 UNL     1     -27.474   3.399  14.471  1.00  0.00     0.021 A 
HETATM    8  C22 UNL     1     -28.810   3.785  15.017  1.00  0.00     0.069 C 
ENDROOT
BRANCH   5   9
HETATM    9  C8  UNL     1     -24.553   1.278  15.443  1.00  0.00     0.179 C 
BRANCH   9  10
HETATM   10  N1  UNL     1     -23.421   1.976  15.962  1.00  0.00    -0.370 N 
ATOM     11  H1  UNL     1     -23.569   2.943  16.252  1.00  0.00     0.161 HD
BRANCH  10  12
HETATM   12  C9  UNL     1     -22.242   1.509  16.099  1.00  0.00     0.118 A 
HETATM   13  C10 UNL     1     -21.546   0.723  15.210  1.00  0.00     0.066 A 
HETATM   14  C11 UNL     1     -20.240   0.339  15.453  1.00  0.00     0.110 A 
HETATM   15  N2  UNL     1     -19.605   0.713  16.547  1.00  0.00    -0.202 N 
HETATM   16  C12 UNL     1     -20.271   1.496  17.446  1.00  0.00     0.677 A 
ATOM     17  H2  UNL     1     -18.641   0.425  16.717  1.00  0.00     0.183 HD
HETATM   18  N4  UNL     1     -21.534   1.869  17.221  1.00  0.00    -0.177 N 
ATOM     19  H4  UNL     1     -21.997   2.451  17.918  1.00  0.00     0.185 HD
BRANCH  16  20
HETATM   20  N3  UNL     1     -19.607   1.849  18.502  1.00  0.00    -0.234 N 
ATOM     21  H32 UNL     1     -19.974   1.750  19.449  1.00  0.00     0.174 HD
ATOM     22  H31 UNL     1     -18.681   2.245  18.341  1.00  0.00     0.174 HD
ENDBRANCH  16  20
ENDBRANCH  10  12
ENDBRANCH   9  10
ENDBRANCH   5   9
BRANCH   6  23
HETATM   23  C13 UNL     1     -27.159   2.191  16.534  1.00  0.00     0.130 C 
BRANCH  23  24
HETATM   24  C14 UNL     1     -27.874   0.836  16.390  1.00  0.00     0.040 C 
BRANCH  24  25
HETATM   25  C15 UNL     1     -29.197   0.876  17.070  1.00  0.00     0.129 C 
BRANCH  25  26
HETATM   26  N6  UNL     1     -29.583  -0.342  17.723  1.00  0.00    -0.366 N 
HETATM   27  C16 UNL     1     -28.678  -0.842  18.624  1.00  0.00     0.090 A 
HETATM   28  C17 UNL     1     -28.924  -2.007  19.309  1.00  0.00     0.017 A 
HETATM   29  C18 UNL     1     -30.088  -2.718  19.116  1.00  0.00     0.003 A 
HETATM   30  C19 UNL     1     -30.993  -2.215  18.211  1.00  0.00     0.017 A 
HETATM   31  C20 UNL     1     -30.701  -1.041  17.549  1.00  0.00     0.090 A 
ENDBRANCH  25  26
ENDBRANCH  24  25
ENDBRANCH  23  24
ENDBRANCH   6  23
BRANCH   1  32
HETATM   32  C2  UNL     1     -27.862   4.763  12.384  1.00  0.00     0.157 C 
HETATM   33  C1  UNL     1     -27.749   6.234  12.426  1.00  0.00     0.097 C 
HETATM   34  O1  UNL     1     -28.669   4.243  11.524  1.00  0.00    -0.293 OA
ENDBRANCH   1  32
TORSDOF 9
ENDMDL
MODEL 4
REMARK VINA RESULT: -6.706764609      2.218      2.911
REMARK  9 active torsions:
REMARK  status: ('A' for Active; 'I' for Inactive)
REMARK    1  A    between atoms: C2_2  and  C3_4 
REMARK    2  A    between atoms: C7_8  and  C8_9 
REMARK    3  A    between atoms: C8_9  and  N1_10 
REMARK    4  A    between atoms: N1_10  and  C9_12 
REMARK    5  A    between atoms: C12_17  and  N3_18 
REMARK    6  A    between atoms: N5_23  and  C13_24 
REMARK    7  A    between atoms: C13_24  and  C14_25 
REMARK    8  A    between atoms: C14_25  and  C15_26 
REMARK    9  A    between atoms: C15_26  and  N6_27 
ROOT
HETATM    1  C3  UNL     1     -29.211   1.764  12.263  1.00  0.00     0.032 A 
HETATM    2  C4  UNL     1     -28.361   2.603  11.527  1.00  0.00     0.026 A 
HETATM    3  C5  UNL     1     -27.098   2.836  11.978  1.00  0.00    -0.037 A 
HETATM    4  C6  UNL     1     -26.195   3.730  11.178  1.00  0.00     0.050 C 
HETATM    5  C7  UNL     1     -26.637   2.251  13.163  1.00  0.00     0.035 A 
HETATM    6  N5  UNL     1     -27.427   1.457  13.850  1.00  0.00    -0.351 N 
HETATM    7  C21 UNL     1     -28.702   1.217  13.404  1.00  0.00     0.021 A 
HETATM    8  C22 UNL     1     -29.552   0.251  14.162  1.00  0.00     0.069 C 
ENDROOT
BRANCH   5   9
HETATM    9  C8  UNL     1     -25.209   2.545  13.490  1.00  0.00     0.179 C 
BRANCH   9  10
HETATM   10  N1  UNL     1     -24.453   1.349  13.695  1.00  0.00    -0.370 N 
ATOM     11  H1  UNL     1     -24.788   0.508  13.224  1.00  0.00     0.161 HD
BRANCH  10  12
HETATM   12  C9  UNL     1     -23.402   1.232  14.408  1.00  0.00     0.118 A 
HETATM   13  C10 UNL     1     -22.246   0.560  14.087  1.00  0.00     0.066 A 
HETATM   14  C11 UNL     1     -21.148   0.568  14.928  1.00  0.00     0.110 A 
HETATM   15  N2  UNL     1     -21.163   1.225  16.072  1.00  0.00    -0.202 N 
HETATM   16  C12 UNL     1     -22.297   1.903  16.414  1.00  0.00     0.677 A 
ATOM     17  H2  UNL     1     -20.347   1.226  16.685  1.00  0.00     0.183 HD
HETATM   18  N4  UNL     1     -23.364   1.897  15.610  1.00  0.00    -0.177 N 
ATOM     19  H4  UNL     1     -24.192   2.414  15.903  1.00  0.00     0.185 HD
BRANCH  16  20
HETATM   20  N3  UNL     1     -22.266   2.542  17.542  1.00  0.00    -0.234 N 
ATOM     21  H32 UNL     1     -21.402   2.726  18.053  1.00  0.00     0.174 HD
ATOM     22  H31 UNL     1     -23.164   2.857  17.908  1.00  0.00     0.174 HD
ENDBRANCH  16  20
ENDBRANCH  10  12
ENDBRANCH   9  10
ENDBRANCH   5   9
BRANCH   6  23
HETATM   23  C13 UNL     1     -26.991   0.744  15.037  1.00  0.00     0.130 C 
BRANCH  23  24
HETATM   24  C14 UNL     1     -26.879   1.736  16.209  1.00  0.00     0.040 C 
BRANCH  24  25
HETATM   25  C15 UNL     1     -28.171   1.817  16.941  1.00  0.00     0.129 C 
BRANCH  25  26
HETATM   26  N6  UNL     1     -28.372   0.803  17.936  1.00  0.00    -0.366 N 
HETATM   27  C16 UNL     1     -27.862   1.083  19.178  1.00  0.00     0.090 A 
HETATM   28  C17 UNL     1     -27.980   0.190  20.215  1.00  0.00     0.017 A 
HETATM   29  C18 UNL     1     -28.614  -1.022  20.047  1.00  0.00     0.003 A 
HETATM   30  C19 UNL     1     -29.124  -1.300  18.800  1.00  0.00     0.017 A 
HETATM   31  C20 UNL     1     -28.981  -0.371  17.792  1.00  0.00     0.090 A 
ENDBRANCH  25  26
ENDBRANCH  24  25
ENDBRANCH  23  24
ENDBRANCH   6  23
BRANCH   1  32
HETATM   32  C2  UNL     1     -30.582   1.709  11.796  1.00  0.00     0.157 C 
HETATM   33  C1  UNL     1     -31.157   0.779  10.804  1.00  0.00     0.097 C 
HETATM   34  O1  UNL     1     -31.366   2.581  12.332  1.00  0.00    -0.293 OA
ENDBRANCH   1  32
TORSDOF 9
ENDMDL
MODEL 5
REMARK VINA RESULT: -6.675125709      3.419      7.178
REMARK  9 active torsions:
REMARK  status: ('A' for Active; 'I' for Inactive)
REMARK    1  A    between atoms: C2_2  and  C3_4 
REMARK    2  A    between atoms: C7_8  and  C8_9 
REMARK    3  A    between atoms: C8_9  and  N1_10 
REMARK    4  A    between atoms: N1_10  and  C9_12 
REMARK    5  A    between atoms: C12_17  and  N3_18 
REMARK    6  A    between atoms: N5_23  and  C13_24 
REMARK    7  A    between atoms: C13_24  and  C14_25 
REMARK    8  A    between atoms: C14_25  and  C15_26 
REMARK    9  A    between atoms: C15_26  and  N6_27 
ROOT
HETATM    1  C3  UNL     1     -28.393   0.723  16.408  1.00  0.00     0.032 A 
HETATM    2  C4  UNL     1     -29.266   0.444  15.346  1.00  0.00     0.026 A 
HETATM    3  C5  UNL     1     -28.948   0.865  14.092  1.00  0.00    -0.037 A 
HETATM    4  C6  UNL     1     -29.886   0.554  12.961  1.00  0.00     0.050 C 
HETATM    5  C7  UNL     1     -27.764   1.571  13.847  1.00  0.00     0.035 A 
HETATM    6  N5  UNL     1     -26.939   1.827  14.839  1.00  0.00    -0.351 N 
HETATM    7  C21 UNL     1     -27.252   1.406  16.106  1.00  0.00     0.021 A 
HETATM    8  C22 UNL     1     -26.262   1.642  17.200  1.00  0.00     0.069 C 
ENDROOT
BRANCH   5   9
HETATM    9  C8  UNL     1     -27.520   1.905  12.411  1.00  0.00     0.179 C 
BRANCH   9  10
HETATM   10  N1  UNL     1     -27.744   3.291  12.142  1.00  0.00    -0.370 N 
ATOM     11  H1  UNL     1     -28.511   3.739  12.644  1.00  0.00     0.161 HD
BRANCH  10  12
HETATM   12  C9  UNL     1     -27.079   4.021  11.335  1.00  0.00     0.118 A 
HETATM   13  C10 UNL     1     -26.937   5.388  11.369  1.00  0.00     0.066 A 
HETATM   14  C11 UNL     1     -26.126   6.054  10.468  1.00  0.00     0.110 A 
HETATM   15  N2  UNL     1     -25.451   5.404   9.540  1.00  0.00    -0.202 N 
HETATM   16  C12 UNL     1     -25.571   4.045   9.485  1.00  0.00     0.677 A 
ATOM     17  H2  UNL     1     -24.854   5.903   8.880  1.00  0.00     0.183 HD
HETATM   18  N4  UNL     1     -26.355   3.394  10.349  1.00  0.00    -0.177 N 
ATOM     19  H4  UNL     1     -26.420   2.379  10.273  1.00  0.00     0.185 HD
BRANCH  16  20
HETATM   20  N3  UNL     1     -24.883   3.444   8.564  1.00  0.00    -0.234 N 
ATOM     21  H32 UNL     1     -25.306   3.035   7.731  1.00  0.00     0.174 HD
ATOM     22  H31 UNL     1     -23.876   3.393   8.715  1.00  0.00     0.174 HD
ENDBRANCH  16  20
ENDBRANCH  10  12
ENDBRANCH   9  10
ENDBRANCH   5   9
BRANCH   6  23
HETATM   23  C13 UNL     1     -25.653   2.473  14.649  1.00  0.00     0.130 C 
BRANCH  23  24
HETATM   24  C14 UNL     1     -24.644   1.443  14.113  1.00  0.00     0.040 C 
BRANCH  24  25
HETATM   25  C15 UNL     1     -23.329   2.091  13.863  1.00  0.00     0.129 C 
BRANCH  25  26
HETATM   26  N6  UNL     1     -22.301   1.767  14.811  1.00  0.00    -0.366 N 
HETATM   27  C16 UNL     1     -21.732   0.528  14.665  1.00  0.00     0.090 A 
HETATM   28  C17 UNL     1     -20.743   0.094  15.515  1.00  0.00     0.017 A 
HETATM   29  C18 UNL     1     -20.286   0.886  16.546  1.00  0.00     0.003 A 
HETATM   30  C19 UNL     1     -20.860   2.127  16.689  1.00  0.00     0.017 A 
HETATM   31  C20 UNL     1     -21.847   2.519  15.811  1.00  0.00     0.090 A 
ENDBRANCH  25  26
ENDBRANCH  24  25
ENDBRANCH  23  24
ENDBRANCH   6  23
BRANCH   1  32
HETATM   32  C2  UNL     1     -28.893   0.383  17.726  1.00  0.00     0.157 C 
HETATM   33  C1  UNL     1     -28.634  -0.851  18.494  1.00  0.00     0.097 C 
HETATM   34  O1  UNL     1     -29.641   1.284  18.264  1.00  0.00    -0.293 OA
ENDBRANCH   1  32
TORSDOF 9
ENDMDL
