MODEL 1
REMARK VINA RESULT: -6.996867727      0.000      0.000
REMARK  8 active torsions:
REMARK  status: ('A' for Active; 'I' for Inactive)
REMARK    1  A    between atoms: C3_3  and  C4_4 
REMARK    2  A    between atoms: C4_4  and  C5_5 
REMARK    3  A    between atoms: N1_10  and  C10_11 
REMARK    4  A    between atoms: C10_11  and  C11_12 
REMARK    5  A    between atoms: C11_12  and  C12_13 
REMARK    6  A    between atoms: C12_13  and  C13_14 
REMARK    7  A    between atoms: C13_14  and  N2_15 
REMARK    8  A    between atoms: C16_18  and  N3_19 
ROOT
HETATM    1  C1  UNL     1     -29.294  -3.024  19.413  1.00  0.00     0.112 C 
HETATM    2  C2  UNL     1     -29.148  -1.756  18.684  1.00  0.00    -0.111 C 
HETATM    3  C3  UNL     1     -29.048  -0.709  18.099  1.00  0.00    -0.101 C 
ENDROOT
BRANCH   3   4
HETATM    4  C4  UNL     1     -28.945   0.595  17.396  1.00  0.00     0.153 C 
BRANCH   4   5
HETATM    5  C5  UNL     1     -29.321   0.414  15.997  1.00  0.00     0.051 A 
HETATM    6  C6  UNL     1     -30.625   0.142  15.621  1.00  0.00     0.084 A 
HETATM    7  C7  UNL     1     -30.971  -0.039  14.300  1.00  0.00     0.010 A 
HETATM    8  N6  UNL     1     -31.620   0.048  16.641  1.00  0.00    -0.189 N 
HETATM    9  C8  UNL     1     -29.992   0.054  13.316  1.00  0.00     0.032 A 
HETATM   10  C21 UNL     1     -32.360  -0.329  13.921  1.00  0.00     0.120 A 
HETATM   11  C9  UNL     1     -28.718   0.325  13.743  1.00  0.00     0.092 A 
HETATM   12  N1  UNL     1     -28.367   0.503  15.041  1.00  0.00    -0.357 N 
HETATM   13  N4  UNL     1     -33.230  -0.410  14.841  1.00  0.00    -0.201 N 
HETATM   14  C22 UNL     1     -32.950  -0.236  16.222  1.00  0.00     0.676 A 
ATOM     15  H4  UNL     1     -34.193  -0.613  14.571  1.00  0.00     0.183 HD
HETATM   16  N5  UNL     1     -33.888  -0.333  17.104  1.00  0.00    -0.234 N 
ATOM     17  H52 UNL     1     -34.841  -0.536  16.804  1.00  0.00     0.174 HD
ATOM     18  H51 UNL     1     -33.686  -0.208  18.097  1.00  0.00     0.174 HD
ATOM     19  H6  UNL     1     -31.388   0.177  17.626  1.00  0.00     0.184 HD
BRANCH  12  20
HETATM   20  C10 UNL     1     -26.984   0.773  15.293  1.00  0.00     0.128 C 
BRANCH  20  21
HETATM   21  C11 UNL     1     -26.295   1.054  13.980  1.00  0.00     0.022 C 
BRANCH  21  22
HETATM   22  C12 UNL     1     -25.576   2.356  14.018  1.00  0.00     0.022 C 
BRANCH  22  23
HETATM   23  C13 UNL     1     -24.237   2.343  13.394  1.00  0.00     0.128 C 
BRANCH  23  24
HETATM   24  N2  UNL     1     -23.155   1.888  14.238  1.00  0.00    -0.366 N 
HETATM   25  C14 UNL     1     -22.102   1.166  13.853  1.00  0.00     0.092 A 
HETATM   26  C15 UNL     1     -21.084   0.764  14.707  1.00  0.00     0.046 A 
HETATM   27  C16 UNL     1     -21.123   1.109  16.044  1.00  0.00     0.032 A 
HETATM   28  C19 UNL     1     -22.211   1.854  16.445  1.00  0.00     0.046 A 
HETATM   29  C20 UNL     1     -23.203   2.235  15.567  1.00  0.00     0.092 A 
BRANCH  27  30
HETATM   30  N3  UNL     1     -20.113   0.732  16.965  1.00  0.00    -0.389 N 
HETATM   31  C17 UNL     1     -19.987   1.495  18.185  1.00  0.00     0.149 C 
HETATM   32  C18 UNL     1     -19.214  -0.371  16.732  1.00  0.00     0.149 C 
ENDBRANCH  27  30
ENDBRANCH  23  24
ENDBRANCH  22  23
ENDBRANCH  21  22
ENDBRANCH  20  21
ENDBRANCH  12  20
ENDBRANCH   4   5
ENDBRANCH   3   4
TORSDOF 8
ENDMDL
MODEL 2
REMARK VINA RESULT: -6.728364011      2.122      9.302
REMARK  8 active torsions:
REMARK  status: ('A' for Active; 'I' for Inactive)
REMARK    1  A    between atoms: C3_3  and  C4_4 
REMARK    2  A    between atoms: C4_4  and  C5_5 
REMARK    3  A    between atoms: N1_10  and  C10_11 
REMARK    4  A    between atoms: C10_11  and  C11_12 
REMARK    5  A    between atoms: C11_12  and  C12_13 
REMARK    6  A    between atoms: C12_13  and  C13_14 
REMARK    7  A    between atoms: C13_14  and  N2_15 
REMARK    8  A    between atoms: C16_18  and  N3_19 
ROOT
HETATM    1  C1  UNL     1     -27.891   0.335  17.998  1.00  0.00     0.112 C 
HETATM    2  C2  UNL     1     -26.755   1.176  17.595  1.00  0.00    -0.111 C 
HETATM    3  C3  UNL     1     -25.815   1.862  17.286  1.00  0.00    -0.101 C 
ENDROOT
BRANCH   3   4
HETATM    4  C4  UNL     1     -24.643   2.701  16.932  1.00  0.00     0.153 C 
BRANCH   4   5
HETATM    5  C5  UNL     1     -23.904   2.056  15.851  1.00  0.00     0.051 A 
HETATM    6  C6  UNL     1     -22.578   1.687  15.991  1.00  0.00     0.084 A 
HETATM    7  C7  UNL     1     -21.883   1.090  14.963  1.00  0.00     0.010 A 
HETATM    8  N6  UNL     1     -21.931   1.941  17.239  1.00  0.00    -0.189 N 
HETATM    9  C8  UNL     1     -22.523   0.849  13.752  1.00  0.00     0.032 A 
HETATM   10  C21 UNL     1     -20.475   0.707  15.131  1.00  0.00     0.120 A 
HETATM   11  C9  UNL     1     -23.836   1.234  13.665  1.00  0.00     0.092 A 
HETATM   12  N1  UNL     1     -24.528   1.824  14.672  1.00  0.00    -0.357 N 
HETATM   13  N4  UNL     1     -19.916   0.941  16.246  1.00  0.00    -0.201 N 
HETATM   14  C22 UNL     1     -20.567   1.552  17.351  1.00  0.00     0.676 A 
ATOM     15  H4  UNL     1     -18.938   0.674  16.357  1.00  0.00     0.183 HD
HETATM   16  N5  UNL     1     -19.935   1.761  18.458  1.00  0.00    -0.234 N 
ATOM     17  H52 UNL     1     -18.957   1.481  18.538  1.00  0.00     0.174 HD
ATOM     18  H51 UNL     1     -20.402   2.199  19.251  1.00  0.00     0.174 HD
ATOM     19  H6  UNL     1     -22.424   2.382  18.015  1.00  0.00     0.184 HD
BRANCH  12  20
HETATM   20  C10 UNL     1     -25.891   2.161  14.392  1.00  0.00     0.128 C 
BRANCH  20  21
HETATM   21  C11 UNL     1     -26.449   1.159  13.411  1.00  0.00     0.022 C 
BRANCH  21  22
HETATM   22  C12 UNL     1     -27.536   0.352  14.027  1.00  0.00     0.022 C 
BRANCH  22  23
HETATM   23  C13 UNL     1     -28.800   1.084  14.254  1.00  0.00     0.128 C 
BRANCH  23  24
HETATM   24  N2  UNL     1     -29.898   0.725  13.384  1.00  0.00    -0.366 N 
HETATM   25  C14 UNL     1     -30.072   1.128  12.125  1.00  0.00     0.092 A 
HETATM   26  C15 UNL     1     -31.143   0.744  11.329  1.00  0.00     0.046 A 
HETATM   27  C16 UNL     1     -32.110  -0.105  11.831  1.00  0.00     0.032 A 
HETATM   28  C19 UNL     1     -31.933  -0.522  13.133  1.00  0.00     0.046 A 
HETATM   29  C20 UNL     1     -30.856  -0.118  13.892  1.00  0.00     0.092 A 
BRANCH  27  30
HETATM   30  N3  UNL     1     -33.225  -0.537  11.069  1.00  0.00    -0.389 N 
HETATM   31  C17 UNL     1     -34.533  -0.462  11.675  1.00  0.00     0.149 C 
HETATM   32  C18 UNL     1     -33.103  -1.046   9.725  1.00  0.00     0.149 C 
ENDBRANCH  27  30
ENDBRANCH  23  24
ENDBRANCH  22  23
ENDBRANCH  21  22
ENDBRANCH  20  21
ENDBRANCH  12  20
ENDBRANCH   4   5
ENDBRANCH   3   4
TORSDOF 8
ENDMDL
MODEL 3
REMARK VINA RESULT: -6.635461426      2.732      5.110
REMARK  8 active torsions:
REMARK  status: ('A' for Active; 'I' for Inactive)
REMARK    1  A    between atoms: C3_3  and  C4_4 
REMARK    2  A    between atoms: C4_4  and  C5_5 
REMARK    3  A    between atoms: N1_10  and  C10_11 
REMARK    4  A    between atoms: C10_11  and  C11_12 
REMARK    5  A    between atoms: C11_12  and  C12_13 
REMARK    6  A    between atoms: C12_13  and  C13_14 
REMARK    7  A    between atoms: C13_14  and  N2_15 
REMARK    8  A    between atoms: C16_18  and  N3_19 
ROOT
HETATM    1  C1  UNL     1     -29.712  -4.082  20.776  1.00  0.00     0.112 C 
HETATM    2  C2  UNL     1     -29.329  -3.015  19.841  1.00  0.00    -0.111 C 
HETATM    3  C3  UNL     1     -29.024  -2.124  19.090  1.00  0.00    -0.101 C 
ENDROOT
BRANCH   3   4
HETATM    4  C4  UNL     1     -28.657  -1.006  18.186  1.00  0.00     0.153 C 
BRANCH   4   5
HETATM    5  C5  UNL     1     -29.526   0.134  18.459  1.00  0.00     0.051 A 
HETATM    6  C6  UNL     1     -29.233   1.054  19.451  1.00  0.00     0.084 A 
HETATM    7  C7  UNL     1     -30.063   2.122  19.712  1.00  0.00     0.010 A 
HETATM    8  N6  UNL     1     -28.038   0.873  20.212  1.00  0.00    -0.189 N 
HETATM    9  C8  UNL     1     -31.224   2.286  18.964  1.00  0.00     0.032 A 
HETATM   10  C21 UNL     1     -29.736   3.086  20.770  1.00  0.00     0.120 A 
HETATM   11  C9  UNL     1     -31.467   1.347  17.995  1.00  0.00     0.092 A 
HETATM   12  N1  UNL     1     -30.656   0.292  17.731  1.00  0.00    -0.357 N 
HETATM   13  N4  UNL     1     -28.671   2.909  21.437  1.00  0.00    -0.201 N 
HETATM   14  C22 UNL     1     -27.767   1.835  21.226  1.00  0.00     0.676 A 
ATOM     15  H4  UNL     1     -28.450   3.582  22.171  1.00  0.00     0.183 HD
HETATM   16  N5  UNL     1     -26.701   1.717  21.945  1.00  0.00    -0.234 N 
ATOM     17  H52 UNL     1     -26.506   2.406  22.671  1.00  0.00     0.174 HD
ATOM     18  H51 UNL     1     -26.051   0.945  21.793  1.00  0.00     0.174 HD
ATOM     19  H6  UNL     1     -27.408   0.091  20.038  1.00  0.00     0.184 HD
BRANCH  12  20
HETATM   20  C10 UNL     1     -31.080  -0.587  16.684  1.00  0.00     0.128 C 
BRANCH  20  21
HETATM   21  C11 UNL     1     -31.096   0.178  15.383  1.00  0.00     0.022 C 
BRANCH  21  22
HETATM   22  C12 UNL     1     -29.752   0.184  14.747  1.00  0.00     0.022 C 
BRANCH  22  23
HETATM   23  C13 UNL     1     -29.112   1.513  14.661  1.00  0.00     0.128 C 
BRANCH  23  24
HETATM   24  N2  UNL     1     -27.673   1.528  14.815  1.00  0.00    -0.366 N 
HETATM   25  C14 UNL     1     -27.002   1.543  15.967  1.00  0.00     0.092 A 
HETATM   26  C15 UNL     1     -25.617   1.547  16.057  1.00  0.00     0.046 A 
HETATM   27  C16 UNL     1     -24.848   1.535  14.910  1.00  0.00     0.032 A 
HETATM   28  C19 UNL     1     -25.539   1.521  13.717  1.00  0.00     0.046 A 
HETATM   29  C20 UNL     1     -26.917   1.518  13.668  1.00  0.00     0.092 A 
BRANCH  27  30
HETATM   30  N3  UNL     1     -23.430   1.535  14.934  1.00  0.00    -0.389 N 
HETATM   31  C17 UNL     1     -22.730   1.131  13.738  1.00  0.00     0.149 C 
HETATM   32  C18 UNL     1     -22.668   1.916  16.098  1.00  0.00     0.149 C 
ENDBRANCH  27  30
ENDBRANCH  23  24
ENDBRANCH  22  23
ENDBRANCH  21  22
ENDBRANCH  20  21
ENDBRANCH  12  20
ENDBRANCH   4   5
ENDBRANCH   3   4
TORSDOF 8
ENDMDL
MODEL 4
REMARK VINA RESULT: -6.626789246      2.626      9.070
REMARK  8 active torsions:
REMARK  status: ('A' for Active; 'I' for Inactive)
REMARK    1  A    between atoms: C3_3  and  C4_4 
REMARK    2  A    between atoms: C4_4  and  C5_5 
REMARK    3  A    between atoms: N1_10  and  C10_11 
REMARK    4  A    between atoms: C10_11  and  C11_12 
REMARK    5  A    between atoms: C11_12  and  C12_13 
REMARK    6  A    between atoms: C12_13  and  C13_14 
REMARK    7  A    between atoms: C13_14  and  N2_15 
REMARK    8  A    between atoms: C16_18  and  N3_19 
ROOT
HETATM    1  C1  UNL     1     -28.942  -1.513  18.751  1.00  0.00     0.112 C 
HETATM    2  C2  UNL     1     -28.369  -0.253  18.256  1.00  0.00    -0.111 C 
HETATM    3  C3  UNL     1     -27.912   0.777  17.832  1.00  0.00    -0.101 C 
ENDROOT
BRANCH   3   4
HETATM    4  C4  UNL     1     -27.367   2.044  17.283  1.00  0.00     0.153 C 
BRANCH   4   5
HETATM    5  C5  UNL     1     -26.816   1.792  15.955  1.00  0.00     0.051 A 
HETATM    6  C6  UNL     1     -25.454   1.816  15.713  1.00  0.00     0.084 A 
HETATM    7  C7  UNL     1     -24.941   1.589  14.455  1.00  0.00     0.010 A 
HETATM    8  N6  UNL     1     -24.575   2.087  16.806  1.00  0.00    -0.189 N 
HETATM    9  C8  UNL     1     -25.807   1.328  13.399  1.00  0.00     0.032 A 
HETATM   10  C21 UNL     1     -23.492   1.620  14.217  1.00  0.00     0.120 A 
HETATM   11  C9  UNL     1     -27.147   1.316  13.692  1.00  0.00     0.092 A 
HETATM   12  N1  UNL     1     -27.661   1.540  14.928  1.00  0.00    -0.357 N 
HETATM   13  N4  UNL     1     -22.727   1.864  15.201  1.00  0.00    -0.201 N 
HETATM   14  C22 UNL     1     -23.180   2.107  16.524  1.00  0.00     0.676 A 
ATOM     15  H4  UNL     1     -21.721   1.885  15.029  1.00  0.00     0.183 HD
HETATM   16  N5  UNL     1     -22.343   2.348  17.476  1.00  0.00    -0.234 N 
ATOM     17  H52 UNL     1     -21.343   2.362  17.274  1.00  0.00     0.174 HD
ATOM     18  H51 UNL     1     -22.669   2.523  18.427  1.00  0.00     0.174 HD
ATOM     19  H6  UNL     1     -24.931   2.258  17.746  1.00  0.00     0.184 HD
BRANCH  12  20
HETATM   20  C10 UNL     1     -29.088   1.492  15.039  1.00  0.00     0.128 C 
BRANCH  20  21
HETATM   21  C11 UNL     1     -29.577   0.182  14.471  1.00  0.00     0.022 C 
BRANCH  21  22
HETATM   22  C12 UNL     1     -30.952  -0.128  14.944  1.00  0.00     0.022 C 
BRANCH  22  23
HETATM   23  C13 UNL     1     -32.025   0.649  14.289  1.00  0.00     0.128 C 
BRANCH  23  24
HETATM   24  N2  UNL     1     -32.303   0.299  12.914  1.00  0.00    -0.366 N 
HETATM   25  C14 UNL     1     -31.864   0.941  11.831  1.00  0.00     0.092 A 
HETATM   26  C15 UNL     1     -32.155   0.554  10.529  1.00  0.00     0.046 A 
HETATM   27  C16 UNL     1     -32.943  -0.556  10.296  1.00  0.00     0.032 A 
HETATM   28  C19 UNL     1     -33.398  -1.221  11.414  1.00  0.00     0.046 A 
HETATM   29  C20 UNL     1     -33.088  -0.806  12.691  1.00  0.00     0.092 A 
BRANCH  27  30
HETATM   30  N3  UNL     1     -33.272  -1.005   8.992  1.00  0.00    -0.389 N 
HETATM   31  C17 UNL     1     -33.334  -0.026   7.932  1.00  0.00     0.149 C 
HETATM   32  C18 UNL     1     -33.547  -2.387   8.687  1.00  0.00     0.149 C 
ENDBRANCH  27  30
ENDBRANCH  23  24
ENDBRANCH  22  23
ENDBRANCH  21  22
ENDBRANCH  20  21
ENDBRANCH  12  20
ENDBRANCH   4   5
ENDBRANCH   3   4
TORSDOF 8
ENDMDL
MODEL 5
REMARK VINA RESULT: -6.612855779      2.146      8.245
REMARK  8 active torsions:
REMARK  status: ('A' for Active; 'I' for Inactive)
REMARK    1  A    between atoms: C3_3  and  C4_4 
REMARK    2  A    between atoms: C4_4  and  C5_5 
REMARK    3  A    between atoms: N1_10  and  C10_11 
REMARK    4  A    between atoms: C10_11  and  C11_12 
REMARK    5  A    between atoms: C11_12  and  C12_13 
REMARK    6  A    between atoms: C12_13  and  C13_14 
REMARK    7  A    between atoms: C13_14  and  N2_15 
REMARK    8  A    between atoms: C16_18  and  N3_19 
ROOT
HETATM    1  C1  UNL     1     -27.630   5.635  17.779  1.00  0.00     0.112 C 
HETATM    2  C2  UNL     1     -27.163   4.257  17.573  1.00  0.00    -0.111 C 
HETATM    3  C3  UNL     1     -26.790   3.127  17.383  1.00  0.00    -0.101 C 
ENDROOT
BRANCH   3   4
HETATM    4  C4  UNL     1     -26.343   1.736  17.121  1.00  0.00     0.153 C 
BRANCH   4   5
HETATM    5  C5  UNL     1     -25.722   1.675  15.802  1.00  0.00     0.051 A 
HETATM    6  C6  UNL     1     -24.351   1.763  15.636  1.00  0.00     0.084 A 
HETATM    7  C7  UNL     1     -23.771   1.716  14.388  1.00  0.00     0.010 A 
HETATM    8  N6  UNL     1     -23.534   1.909  16.799  1.00  0.00    -0.189 N 
HETATM    9  C8  UNL     1     -24.576   1.576  13.263  1.00  0.00     0.032 A 
HETATM   10  C21 UNL     1     -22.314   1.814  14.232  1.00  0.00     0.120 A 
HETATM   11  C9  UNL     1     -25.927   1.493  13.482  1.00  0.00     0.092 A 
HETATM   12  N1  UNL     1     -26.508   1.539  14.708  1.00  0.00    -0.357 N 
HETATM   13  N4  UNL     1     -21.605   1.944  15.277  1.00  0.00    -0.201 N 
HETATM   14  C22 UNL     1     -22.129   2.000  16.595  1.00  0.00     0.676 A 
ATOM     15  H4  UNL     1     -20.593   2.013  15.162  1.00  0.00     0.183 HD
HETATM   16  N5  UNL     1     -21.346   2.134  17.613  1.00  0.00    -0.234 N 
ATOM     17  H52 UNL     1     -20.339   2.199  17.466  1.00  0.00     0.174 HD
ATOM     18  H51 UNL     1     -21.723   2.175  18.560  1.00  0.00     0.174 HD
ATOM     19  H6  UNL     1     -23.940   1.947  17.734  1.00  0.00     0.184 HD
BRANCH  12  20
HETATM   20  C10 UNL     1     -27.936   1.443  14.737  1.00  0.00     0.128 C 
BRANCH  20  21
HETATM   21  C11 UNL     1     -28.370   0.357  13.784  1.00  0.00     0.022 C 
BRANCH  21  22
HETATM   22  C12 UNL     1     -29.777  -0.053  14.041  1.00  0.00     0.022 C 
BRANCH  22  23
HETATM   23  C13 UNL     1     -30.407   0.593  15.212  1.00  0.00     0.128 C 
BRANCH  23  24
HETATM   24  N2  UNL     1     -30.499  -0.222  16.404  1.00  0.00    -0.366 N 
HETATM   25  C14 UNL     1     -31.477  -1.078  16.702  1.00  0.00     0.092 A 
HETATM   26  C15 UNL     1     -31.510  -1.845  17.859  1.00  0.00     0.046 A 
HETATM   27  C16 UNL     1     -30.489  -1.748  18.784  1.00  0.00     0.032 A 
HETATM   28  C19 UNL     1     -29.477  -0.863  18.479  1.00  0.00     0.046 A 
HETATM   29  C20 UNL     1     -29.480  -0.118  17.319  1.00  0.00     0.092 A 
BRANCH  27  30
HETATM   30  N3  UNL     1     -30.463  -2.506  19.982  1.00  0.00    -0.389 N 
HETATM   31  C17 UNL     1     -29.328  -3.367  20.216  1.00  0.00     0.149 C 
HETATM   32  C18 UNL     1     -31.517  -2.452  20.964  1.00  0.00     0.149 C 
ENDBRANCH  27  30
ENDBRANCH  23  24
ENDBRANCH  22  23
ENDBRANCH  21  22
ENDBRANCH  20  21
ENDBRANCH  12  20
ENDBRANCH   4   5
ENDBRANCH   3   4
TORSDOF 8
ENDMDL
