MODEL 1
REMARK VINA RESULT: -7.328496179      0.000      0.000
REMARK  11 active torsions:
REMARK  status: ('A' for Active; 'I' for Inactive)
REMARK    1  A    between atoms: C7_7  and  C8_8 
REMARK    2  A    between atoms: C8_8  and  C9_9 
REMARK    3  A    between atoms: C8_8  and  N1_18 
REMARK    4  A    between atoms: C10_10  and  C11_11 
REMARK    5  A    between atoms: C11_11  and  O1_12 
REMARK    6  A    between atoms: C11_11  and  C12_14 
REMARK    7  A    between atoms: C12_14  and  C13_15 
REMARK    8  A    between atoms: C13_15  and  C14_16 
REMARK    9  A    between atoms: N1_18  and  C16_21 
REMARK   10  A    between atoms: C16_21  and  C17_22 
REMARK   11  A    between atoms: C20_25  and  O2_26 
ROOT
HETATM    1  C1  UNL     1     -30.809   0.943  11.533  1.00  0.00     0.018 C 
HETATM    2  C2  UNL     1     -30.655   0.705  12.705  1.00  0.00    -0.078 C 
HETATM    3  C3  UNL     1     -30.470   0.395  14.112  1.00  0.00     0.017 A 
HETATM    4  C4  UNL     1     -31.508  -0.187  14.810  1.00  0.00     0.020 A 
HETATM    5  C5  UNL     1     -31.358  -0.491  16.144  1.00  0.00     0.002 A 
HETATM    6  C6  UNL     1     -30.147  -0.191  16.732  1.00  0.00     0.010 A 
HETATM    7  C7  UNL     1     -29.099   0.393  16.044  1.00  0.00    -0.015 A 
HETATM    8  C26 UNL     1     -29.257   0.694  14.710  1.00  0.00     0.030 A 
ENDROOT
BRANCH   7   9
HETATM    9  C8  UNL     1     -27.803   0.711  16.683  1.00  0.00     0.297 C 
BRANCH   9  10
HETATM   10  C9  UNL     1     -27.890   0.693  18.150  1.00  0.00    -0.066 C 
HETATM   11  C10 UNL     1     -27.940   0.674  19.368  1.00  0.00    -0.072 C 
BRANCH  11  12
HETATM   12  C11 UNL     1     -27.962   0.622  20.818  1.00  0.00     0.197 C 
BRANCH  12  13
HETATM   13  O1  UNL     1     -26.641   0.843  21.243  1.00  0.00    -0.383 OA
ATOM     14  H1  UNL     1     -26.394   0.083  21.755  1.00  0.00     0.211 HD
ENDBRANCH  12  13
BRANCH  12  15
HETATM   15  C12 UNL     1     -28.560  -0.581  21.438  1.00  0.00     0.044 C 
BRANCH  15  16
HETATM   16  C13 UNL     1     -29.533  -1.389  20.696  1.00  0.00     0.003 C 
BRANCH  16  17
HETATM   17  C14 UNL     1     -29.254  -2.819  20.432  1.00  0.00    -0.004 C 
HETATM   18  C15 UNL     1     -29.275  -3.034  18.898  1.00  0.00     0.005 C 
ENDBRANCH  16  17
ENDBRANCH  15  16
ENDBRANCH  12  15
ENDBRANCH  11  12
ENDBRANCH   9  10
BRANCH   9  19
HETATM   19  N1  UNL     1     -27.326   1.996  16.288  1.00  0.00    -0.052 N 
ATOM     20  H12 UNL     1     -27.409   2.117  15.278  1.00  0.00     0.279 HD
ATOM     21  H11 UNL     1     -27.963   2.729  16.599  1.00  0.00     0.279 HD
BRANCH  19  22
HETATM   22  C16 UNL     1     -25.975   2.268  16.728  1.00  0.00     0.273 C 
BRANCH  22  23
HETATM   23  C17 UNL     1     -24.972   1.883  15.720  1.00  0.00    -0.021 A 
HETATM   24  C18 UNL     1     -23.667   1.713  15.706  1.00  0.00    -0.015 A 
HETATM   25  C19 UNL     1     -22.452   1.734  16.402  1.00  0.00     0.049 A 
HETATM   26  C24 UNL     1     -23.683   1.379  14.382  1.00  0.00    -0.025 A 
HETATM   27  C20 UNL     1     -21.244   1.426  15.797  1.00  0.00     0.069 A 
HETATM   28  C22 UNL     1     -21.287   1.092  14.460  1.00  0.00     0.037 A 
HETATM   29  C23 UNL     1     -22.495   1.069  13.759  1.00  0.00     0.015 A 
HETATM   30  C25 UNL     1     -24.991   1.530  14.316  1.00  0.00     0.022 A 
BRANCH  27  31
HETATM   31  O2  UNL     1     -20.065   1.464  16.538  1.00  0.00    -0.356 OA
HETATM   32  C21 UNL     1     -19.955   1.073  17.868  1.00  0.00     0.210 C 
ENDBRANCH  27  31
ENDBRANCH  22  23
ENDBRANCH  19  22
ENDBRANCH   9  19
ENDBRANCH   7   9
TORSDOF 11
ENDMDL
MODEL 2
REMARK VINA RESULT: -6.953649962      1.701      7.157
REMARK  11 active torsions:
REMARK  status: ('A' for Active; 'I' for Inactive)
REMARK    1  A    between atoms: C7_7  and  C8_8 
REMARK    2  A    between atoms: C8_8  and  C9_9 
REMARK    3  A    between atoms: C8_8  and  N1_18 
REMARK    4  A    between atoms: C10_10  and  C11_11 
REMARK    5  A    between atoms: C11_11  and  O1_12 
REMARK    6  A    between atoms: C11_11  and  C12_14 
REMARK    7  A    between atoms: C12_14  and  C13_15 
REMARK    8  A    between atoms: C13_15  and  C14_16 
REMARK    9  A    between atoms: N1_18  and  C16_21 
REMARK   10  A    between atoms: C16_21  and  C17_22 
REMARK   11  A    between atoms: C20_25  and  O2_26 
ROOT
HETATM    1  C1  UNL     1     -31.501  -0.864  17.015  1.00  0.00     0.018 C 
HETATM    2  C2  UNL     1     -30.622  -0.397  16.335  1.00  0.00    -0.078 C 
HETATM    3  C3  UNL     1     -29.578   0.183  15.509  1.00  0.00     0.017 A 
HETATM    4  C4  UNL     1     -29.696   0.112  14.135  1.00  0.00     0.020 A 
HETATM    5  C5  UNL     1     -28.720   0.654  13.330  1.00  0.00     0.002 A 
HETATM    6  C6  UNL     1     -27.646   1.258  13.950  1.00  0.00     0.010 A 
HETATM    7  C7  UNL     1     -27.516   1.335  15.325  1.00  0.00    -0.015 A 
HETATM    8  C26 UNL     1     -28.496   0.790  16.124  1.00  0.00     0.030 A 
ENDROOT
BRANCH   7   9
HETATM    9  C8  UNL     1     -26.360   1.984  15.982  1.00  0.00     0.297 C 
BRANCH   9  10
HETATM   10  C9  UNL     1     -25.088   1.637  15.334  1.00  0.00    -0.066 C 
HETATM   11  C10 UNL     1     -24.031   1.368  14.788  1.00  0.00    -0.072 C 
BRANCH  11  12
HETATM   12  C11 UNL     1     -22.784   1.081  14.105  1.00  0.00     0.197 C 
BRANCH  12  13
HETATM   13  O1  UNL     1     -23.123   0.350  12.953  1.00  0.00    -0.383 OA
ATOM     14  H1  UNL     1     -22.382  -0.215  12.767  1.00  0.00     0.211 HD
ENDBRANCH  12  13
BRANCH  12  15
HETATM   15  C12 UNL     1     -21.719   0.426  14.895  1.00  0.00     0.044 C 
BRANCH  15  16
HETATM   16  C13 UNL     1     -21.013   1.170  15.942  1.00  0.00     0.003 C 
BRANCH  16  17
HETATM   17  C14 UNL     1     -19.921   0.518  16.701  1.00  0.00    -0.004 C 
HETATM   18  C15 UNL     1     -19.922   1.102  18.136  1.00  0.00     0.005 C 
ENDBRANCH  16  17
ENDBRANCH  15  16
ENDBRANCH  12  15
ENDBRANCH  11  12
ENDBRANCH   9  10
BRANCH   9  19
HETATM   19  N1  UNL     1     -26.266   1.618  17.357  1.00  0.00    -0.052 N 
ATOM     20  H12 UNL     1     -26.731   0.726  17.526  1.00  0.00     0.279 HD
ATOM     21  H11 UNL     1     -25.309   1.359  17.598  1.00  0.00     0.279 HD
BRANCH  19  22
HETATM   22  C16 UNL     1     -26.765   2.635  18.259  1.00  0.00     0.273 C 
BRANCH  22  23
HETATM   23  C17 UNL     1     -28.014   2.224  18.924  1.00  0.00    -0.021 A 
HETATM   24  C18 UNL     1     -28.465   1.122  19.484  1.00  0.00    -0.015 A 
HETATM   25  C19 UNL     1     -28.243  -0.215  19.840  1.00  0.00     0.049 A 
HETATM   26  C24 UNL     1     -29.658   1.714  19.786  1.00  0.00    -0.025 A 
HETATM   27  C20 UNL     1     -29.196  -0.975  20.497  1.00  0.00     0.069 A 
HETATM   28  C22 UNL     1     -30.392  -0.355  20.791  1.00  0.00     0.037 A 
HETATM   29  C23 UNL     1     -30.620   0.978  20.439  1.00  0.00     0.015 A 
HETATM   30  C25 UNL     1     -29.278   2.853  19.243  1.00  0.00     0.022 A 
BRANCH  27  31
HETATM   31  O2  UNL     1     -28.922  -2.301  20.828  1.00  0.00    -0.356 OA
HETATM   32  C21 UNL     1     -29.298  -3.400  20.061  1.00  0.00     0.210 C 
ENDBRANCH  27  31
ENDBRANCH  22  23
ENDBRANCH  19  22
ENDBRANCH   9  19
ENDBRANCH   7   9
TORSDOF 11
ENDMDL
MODEL 3
REMARK VINA RESULT: -6.928622390      2.055      4.887
REMARK  11 active torsions:
REMARK  status: ('A' for Active; 'I' for Inactive)
REMARK    1  A    between atoms: C7_7  and  C8_8 
REMARK    2  A    between atoms: C8_8  and  C9_9 
REMARK    3  A    between atoms: C8_8  and  N1_18 
REMARK    4  A    between atoms: C10_10  and  C11_11 
REMARK    5  A    between atoms: C11_11  and  O1_12 
REMARK    6  A    between atoms: C11_11  and  C12_14 
REMARK    7  A    between atoms: C12_14  and  C13_15 
REMARK    8  A    between atoms: C13_15  and  C14_16 
REMARK    9  A    between atoms: N1_18  and  C16_21 
REMARK   10  A    between atoms: C16_21  and  C17_22 
REMARK   11  A    between atoms: C20_25  and  O2_26 
ROOT
HETATM    1  C1  UNL     1     -29.263  -3.416  20.383  1.00  0.00     0.018 C 
HETATM    2  C2  UNL     1     -29.574  -2.644  19.511  1.00  0.00    -0.078 C 
HETATM    3  C3  UNL     1     -29.965  -1.704  18.476  1.00  0.00     0.017 A 
HETATM    4  C4  UNL     1     -31.179  -1.876  17.842  1.00  0.00     0.020 A 
HETATM    5  C5  UNL     1     -31.574  -0.999  16.857  1.00  0.00     0.002 A 
HETATM    6  C6  UNL     1     -30.715   0.034  16.544  1.00  0.00     0.010 A 
HETATM    7  C7  UNL     1     -29.496   0.217  17.171  1.00  0.00    -0.015 A 
HETATM    8  C26 UNL     1     -29.108  -0.665  18.155  1.00  0.00     0.030 A 
ENDROOT
BRANCH   7   9
HETATM    9  C8  UNL     1     -28.580   1.328  16.829  1.00  0.00     0.297 C 
BRANCH   9  10
HETATM   10  C9  UNL     1     -28.746   1.774  15.438  1.00  0.00    -0.066 C 
HETATM   11  C10 UNL     1     -28.876   2.126  14.278  1.00  0.00    -0.072 C 
BRANCH  11  12
HETATM   12  C11 UNL     1     -28.994   2.515  12.885  1.00  0.00     0.197 C 
BRANCH  12  13
HETATM   13  O1  UNL     1     -29.410   3.857  12.883  1.00  0.00    -0.383 OA
ATOM     14  H1  UNL     1     -28.771   4.334  12.366  1.00  0.00     0.211 HD
ENDBRANCH  12  13
BRANCH  12  15
HETATM   15  C12 UNL     1     -29.836   1.661  12.018  1.00  0.00     0.044 C 
BRANCH  15  16
HETATM   16  C13 UNL     1     -31.066   1.061  12.542  1.00  0.00     0.003 C 
BRANCH  16  17
HETATM   17  C14 UNL     1     -31.093  -0.377  12.895  1.00  0.00    -0.004 C 
HETATM   18  C15 UNL     1     -32.565  -0.773  13.171  1.00  0.00     0.005 C 
ENDBRANCH  16  17
ENDBRANCH  15  16
ENDBRANCH  12  15
ENDBRANCH  11  12
ENDBRANCH   9  10
BRANCH   9  19
HETATM   19  N1  UNL     1     -27.215   0.956  17.009  1.00  0.00    -0.052 N 
ATOM     20  H12 UNL     1     -27.084   0.487  17.905  1.00  0.00     0.279 HD
ATOM     21  H11 UNL     1     -26.962   0.194  16.381  1.00  0.00     0.279 HD
BRANCH  19  22
HETATM   22  C16 UNL     1     -26.294   2.064  16.871  1.00  0.00     0.273 C 
BRANCH  22  23
HETATM   23  C17 UNL     1     -25.231   1.784  15.890  1.00  0.00    -0.021 A 
HETATM   24  C18 UNL     1     -23.914   1.773  15.905  1.00  0.00    -0.015 A 
HETATM   25  C19 UNL     1     -22.726   1.955  16.623  1.00  0.00     0.049 A 
HETATM   26  C24 UNL     1     -23.862   1.414  14.588  1.00  0.00    -0.025 A 
HETATM   27  C20 UNL     1     -21.478   1.784  16.048  1.00  0.00     0.069 A 
HETATM   28  C22 UNL     1     -21.451   1.422  14.718  1.00  0.00     0.037 A 
HETATM   29  C23 UNL     1     -22.632   1.239  13.995  1.00  0.00     0.015 A 
HETATM   30  C25 UNL     1     -25.176   1.404  14.494  1.00  0.00     0.022 A 
BRANCH  27  31
HETATM   31  O2  UNL     1     -20.327   1.978  16.810  1.00  0.00    -0.356 OA
HETATM   32  C21 UNL     1     -19.942   1.174  17.878  1.00  0.00     0.210 C 
ENDBRANCH  27  31
ENDBRANCH  22  23
ENDBRANCH  19  22
ENDBRANCH   9  19
ENDBRANCH   7   9
TORSDOF 11
ENDMDL
MODEL 4
REMARK VINA RESULT: -6.875527329      2.679      7.735
REMARK  11 active torsions:
REMARK  status: ('A' for Active; 'I' for Inactive)
REMARK    1  A    between atoms: C7_7  and  C8_8 
REMARK    2  A    between atoms: C8_8  and  C9_9 
REMARK    3  A    between atoms: C8_8  and  N1_18 
REMARK    4  A    between atoms: C10_10  and  C11_11 
REMARK    5  A    between atoms: C11_11  and  O1_12 
REMARK    6  A    between atoms: C11_11  and  C12_14 
REMARK    7  A    between atoms: C12_14  and  C13_15 
REMARK    8  A    between atoms: C13_15  and  C14_16 
REMARK    9  A    between atoms: N1_18  and  C16_21 
REMARK   10  A    between atoms: C16_21  and  C17_22 
REMARK   11  A    between atoms: C20_25  and  O2_26 
ROOT
HETATM    1  C1  UNL     1     -20.582   1.773  17.833  1.00  0.00     0.018 C 
HETATM    2  C2  UNL     1     -21.253   1.644  16.839  1.00  0.00    -0.078 C 
HETATM    3  C3  UNL     1     -22.059   1.464  15.645  1.00  0.00     0.017 A 
HETATM    4  C4  UNL     1     -21.445   1.045  14.482  1.00  0.00     0.020 A 
HETATM    5  C5  UNL     1     -22.187   0.867  13.336  1.00  0.00     0.002 A 
HETATM    6  C6  UNL     1     -23.541   1.121  13.409  1.00  0.00     0.010 A 
HETATM    7  C7  UNL     1     -24.168   1.541  14.568  1.00  0.00    -0.015 A 
HETATM    8  C26 UNL     1     -23.419   1.718  15.710  1.00  0.00     0.030 A 
ENDROOT
BRANCH   7   9
HETATM    9  C8  UNL     1     -25.621   1.812  14.637  1.00  0.00     0.297 C 
BRANCH   9  10
HETATM   10  C9  UNL     1     -26.168   1.561  15.978  1.00  0.00    -0.066 C 
HETATM   11  C10 UNL     1     -26.640   1.362  17.085  1.00  0.00    -0.072 C 
BRANCH  11  12
HETATM   12  C11 UNL     1     -27.230   1.163  18.395  1.00  0.00     0.197 C 
BRANCH  12  13
HETATM   13  O1  UNL     1     -26.329   0.364  19.119  1.00  0.00    -0.383 OA
ATOM     14  H1  UNL     1     -25.750   0.962  19.576  1.00  0.00     0.211 HD
ENDBRANCH  12  13
BRANCH  12  15
HETATM   15  C12 UNL     1     -28.612   0.635  18.436  1.00  0.00     0.044 C 
BRANCH  15  16
HETATM   16  C13 UNL     1     -28.855  -0.806  18.322  1.00  0.00     0.003 C 
BRANCH  16  17
HETATM   17  C14 UNL     1     -29.018  -1.626  19.544  1.00  0.00    -0.004 C 
HETATM   18  C15 UNL     1     -29.309  -3.082  19.106  1.00  0.00     0.005 C 
ENDBRANCH  16  17
ENDBRANCH  15  16
ENDBRANCH  12  15
ENDBRANCH  11  12
ENDBRANCH   9  10
BRANCH   9  19
HETATM   19  N1  UNL     1     -26.348   1.009  13.710  1.00  0.00    -0.052 N 
ATOM     20  H12 UNL     1     -25.734   0.664  12.971  1.00  0.00     0.279 HD
ATOM     21  H11 UNL     1     -26.617   0.121  14.134  1.00  0.00     0.279 HD
BRANCH  19  22
HETATM   22  C16 UNL     1     -27.500   1.680  13.147  1.00  0.00     0.273 C 
BRANCH  22  23
HETATM   23  C17 UNL     1     -28.763   1.007  13.500  1.00  0.00    -0.021 A 
HETATM   24  C18 UNL     1     -29.881   0.713  12.870  1.00  0.00    -0.015 A 
HETATM   25  C19 UNL     1     -30.636   0.757  11.692  1.00  0.00     0.049 A 
HETATM   26  C24 UNL     1     -30.403   0.125  13.987  1.00  0.00    -0.025 A 
HETATM   27  C20 UNL     1     -31.910   0.221  11.606  1.00  0.00     0.069 A 
HETATM   28  C22 UNL     1     -32.414  -0.368  12.746  1.00  0.00     0.037 A 
HETATM   29  C23 UNL     1     -31.668  -0.415  13.926  1.00  0.00     0.015 A 
HETATM   30  C25 UNL     1     -29.315   0.384  14.684  1.00  0.00     0.022 A 
BRANCH  27  31
HETATM   31  O2  UNL     1     -32.617   0.292  10.407  1.00  0.00    -0.356 OA
HETATM   32  C21 UNL     1     -33.043  -0.811   9.674  1.00  0.00     0.210 C 
ENDBRANCH  27  31
ENDBRANCH  22  23
ENDBRANCH  19  22
ENDBRANCH   9  19
ENDBRANCH   7   9
TORSDOF 11
ENDMDL
MODEL 5
REMARK VINA RESULT: -6.854479872      1.779      7.155
REMARK  11 active torsions:
REMARK  status: ('A' for Active; 'I' for Inactive)
REMARK    1  A    between atoms: C7_7  and  C8_8 
REMARK    2  A    between atoms: C8_8  and  C9_9 
REMARK    3  A    between atoms: C8_8  and  N1_18 
REMARK    4  A    between atoms: C10_10  and  C11_11 
REMARK    5  A    between atoms: C11_11  and  O1_12 
REMARK    6  A    between atoms: C11_11  and  C12_14 
REMARK    7  A    between atoms: C12_14  and  C13_15 
REMARK    8  A    between atoms: C13_15  and  C14_16 
REMARK    9  A    between atoms: N1_18  and  C16_21 
REMARK   10  A    between atoms: C16_21  and  C17_22 
REMARK   11  A    between atoms: C20_25  and  O2_26 
ROOT
HETATM    1  C1  UNL     1     -20.499   1.847  17.940  1.00  0.00     0.018 C 
HETATM    2  C2  UNL     1     -21.200   1.688  16.972  1.00  0.00    -0.078 C 
HETATM    3  C3  UNL     1     -22.043   1.474  15.809  1.00  0.00     0.017 A 
HETATM    4  C4  UNL     1     -21.475   0.967  14.657  1.00  0.00     0.020 A 
HETATM    5  C5  UNL     1     -22.252   0.755  13.541  1.00  0.00     0.002 A 
HETATM    6  C6  UNL     1     -23.593   1.065  13.630  1.00  0.00     0.010 A 
HETATM    7  C7  UNL     1     -24.174   1.573  14.778  1.00  0.00    -0.015 A 
HETATM    8  C26 UNL     1     -23.390   1.784  15.891  1.00  0.00     0.030 A 
ENDROOT
BRANCH   7   9
HETATM    9  C8  UNL     1     -25.613   1.904  14.866  1.00  0.00     0.297 C 
BRANCH   9  10
HETATM   10  C9  UNL     1     -26.193   1.515  16.159  1.00  0.00    -0.066 C 
HETATM   11  C10 UNL     1     -26.693   1.199  17.226  1.00  0.00    -0.072 C 
BRANCH  11  12
HETATM   12  C11 UNL     1     -27.323   0.857  18.487  1.00  0.00     0.197 C 
BRANCH  12  13
HETATM   13  O1  UNL     1     -26.305   0.351  19.313  1.00  0.00    -0.383 OA
ATOM     14  H1  UNL     1     -26.721  -0.269  19.902  1.00  0.00     0.211 HD
ENDBRANCH  12  13
BRANCH  12  15
HETATM   15  C12 UNL     1     -28.500  -0.036  18.430  1.00  0.00     0.044 C 
BRANCH  15  16
HETATM   16  C13 UNL     1     -28.631  -1.148  19.377  1.00  0.00     0.003 C 
BRANCH  16  17
HETATM   17  C14 UNL     1     -29.294  -2.402  18.954  1.00  0.00    -0.004 C 
HETATM   18  C15 UNL     1     -29.303  -3.369  20.164  1.00  0.00     0.005 C 
ENDBRANCH  16  17
ENDBRANCH  15  16
ENDBRANCH  12  15
ENDBRANCH  11  12
ENDBRANCH   9  10
BRANCH   9  19
HETATM   19  N1  UNL     1     -26.362   1.258  13.839  1.00  0.00    -0.052 N 
ATOM     20  H12 UNL     1     -25.742   0.774  13.189  1.00  0.00     0.279 HD
ATOM     21  H11 UNL     1     -26.873   0.458  14.212  1.00  0.00     0.279 HD
BRANCH  19  22
HETATM   22  C16 UNL     1     -27.253   2.150  13.129  1.00  0.00     0.273 C 
BRANCH  22  23
HETATM   23  C17 UNL     1     -28.597   1.571  12.954  1.00  0.00    -0.021 A 
HETATM   24  C18 UNL     1     -29.445   0.912  13.715  1.00  0.00    -0.015 A 
HETATM   25  C19 UNL     1     -29.743   0.349  14.962  1.00  0.00     0.049 A 
HETATM   26  C24 UNL     1     -30.352   0.823  12.698  1.00  0.00    -0.025 A 
HETATM   27  C20 UNL     1     -30.938  -0.305  15.215  1.00  0.00     0.069 A 
HETATM   28  C22 UNL     1     -31.837  -0.381  14.172  1.00  0.00     0.037 A 
HETATM   29  C23 UNL     1     -31.547   0.178  12.925  1.00  0.00     0.015 A 
HETATM   30  C25 UNL     1     -29.557   1.478  11.875  1.00  0.00     0.022 A 
BRANCH  27  31
HETATM   31  O2  UNL     1     -31.182  -0.846  16.475  1.00  0.00    -0.356 OA
HETATM   32  C21 UNL     1     -32.310  -0.580  17.245  1.00  0.00     0.210 C 
ENDBRANCH  27  31
ENDBRANCH  22  23
ENDBRANCH  19  22
ENDBRANCH   9  19
ENDBRANCH   7   9
TORSDOF 11
ENDMDL
