MODEL 1
REMARK VINA RESULT: -7.865713917      0.000      0.000
REMARK  9 active torsions:
REMARK  status: ('A' for Active; 'I' for Inactive)
REMARK    1  A    between atoms: N1_1  and  C1_4 
REMARK    2  A    between atoms: C2_7  and  C3_8 
REMARK    3  A    between atoms: C3_8  and  C4_9 
REMARK    4  A    between atoms: C4_9  and  C5_10 
REMARK    5  A    between atoms: C5_10  and  N3_11 
REMARK    6  A    between atoms: C10_16  and  N4_17 
REMARK    7  A    between atoms: N5_29  and  C22_30 
REMARK    8  A    between atoms: C22_30  and  C23_31 
REMARK    9  A    between atoms: C23_31  and  O1_32 
ROOT
HETATM    1  C5  UNL     1     -26.737   0.725  15.267  1.00  0.00     0.130 C 
ENDROOT
BRANCH   1   2
HETATM    2  C4  UNL     1     -26.091   1.790  14.418  1.00  0.00     0.026 C 
BRANCH   2   3
HETATM    3  C3  UNL     1     -24.836   1.301  13.731  1.00  0.00     0.059 C 
BRANCH   3   4
HETATM    4  C2  UNL     1     -23.661   1.452  14.595  1.00  0.00     0.028 A 
HETATM    5  N2  UNL     1     -23.683   2.078  15.781  1.00  0.00    -0.196 N 
HETATM    6  C1  UNL     1     -22.566   2.192  16.549  1.00  0.00     0.678 A 
ATOM      7  H2  UNL     1     -24.559   2.479  16.115  1.00  0.00     0.184 HD
HETATM    8  N5  UNL     1     -21.368   1.692  16.186  1.00  0.00    -0.192 N 
HETATM    9  C21 UNL     1     -21.317   1.061  15.006  1.00  0.00     0.111 A 
HETATM   10  C20 UNL     1     -22.433   0.931  14.206  1.00  0.00     0.043 A 
BRANCH   6  11
HETATM   11  N1  UNL     1     -22.702   2.807  17.665  1.00  0.00    -0.234 N 
ATOM     12  H12 UNL     1     -21.909   3.290  18.089  1.00  0.00     0.174 HD
ATOM     13  H11 UNL     1     -23.628   2.778  18.091  1.00  0.00     0.174 HD
ENDBRANCH   6  11
BRANCH   8  14
HETATM   14  C22 UNL     1     -20.234   1.859  17.054  1.00  0.00     0.172 C 
BRANCH  14  15
HETATM   15  C23 UNL     1     -19.716   0.603  17.667  1.00  0.00     0.185 C 
BRANCH  15  16
HETATM   16  O1  UNL     1     -18.652   0.073  16.974  1.00  0.00    -0.399 OA
ATOM     17  H1  UNL     1     -18.925  -0.466  16.241  1.00  0.00     0.209 HD
ENDBRANCH  15  16
ENDBRANCH  14  15
ENDBRANCH   8  14
ENDBRANCH   3   4
ENDBRANCH   2   3
ENDBRANCH   1   2
BRANCH   1  18
HETATM   18  N3  UNL     1     -28.124   0.524  14.992  1.00  0.00    -0.343 N 
HETATM   19  C6  UNL     1     -28.520   0.447  13.693  1.00  0.00     0.092 A 
HETATM   20  C7  UNL     1     -29.839   0.252  13.363  1.00  0.00     0.017 A 
HETATM   21  C8  UNL     1     -30.785   0.134  14.356  1.00  0.00     0.005 A 
HETATM   22  C9  UNL     1     -30.384   0.212  15.650  1.00  0.00     0.049 A 
HETATM   23  C10 UNL     1     -29.023   0.413  15.980  1.00  0.00     0.113 A 
BRANCH  23  24
HETATM   24  N4  UNL     1     -28.667   0.500  17.356  1.00  0.00    -0.318 N 
HETATM   25  C11 UNL     1     -28.658  -0.557  18.182  1.00  0.00     0.099 A 
HETATM   26  C12 UNL     1     -28.294  -0.472  19.512  1.00  0.00     0.030 A 
HETATM   27  C13 UNL     1     -27.920   0.739  20.041  1.00  0.00    -0.023 A 
HETATM   28  C14 UNL     1     -27.549   0.873  21.363  1.00  0.00     0.012 A 
HETATM   29  C18 UNL     1     -27.925   1.830  19.200  1.00  0.00    -0.010 A 
HETATM   30  C15 UNL     1     -27.176   2.100  21.873  1.00  0.00     0.001 A 
HETATM   31  C16 UNL     1     -27.180   3.187  21.042  1.00  0.00     0.001 A 
HETATM   32  C17 UNL     1     -27.553   3.053  19.713  1.00  0.00     0.013 A 
HETATM   33  C19 UNL     1     -28.298   1.684  17.882  1.00  0.00     0.110 A 
ENDBRANCH  23  24
ENDBRANCH   1  18
TORSDOF 9
ENDMDL
MODEL 2
REMARK VINA RESULT: -7.806627530      0.512      1.379
REMARK  9 active torsions:
REMARK  status: ('A' for Active; 'I' for Inactive)
REMARK    1  A    between atoms: N1_1  and  C1_4 
REMARK    2  A    between atoms: C2_7  and  C3_8 
REMARK    3  A    between atoms: C3_8  and  C4_9 
REMARK    4  A    between atoms: C4_9  and  C5_10 
REMARK    5  A    between atoms: C5_10  and  N3_11 
REMARK    6  A    between atoms: C10_16  and  N4_17 
REMARK    7  A    between atoms: N5_29  and  C22_30 
REMARK    8  A    between atoms: C22_30  and  C23_31 
REMARK    9  A    between atoms: C23_31  and  O1_32 
ROOT
HETATM    1  C5  UNL     1     -26.644   0.723  15.184  1.00  0.00     0.130 C 
ENDROOT
BRANCH   1   2
HETATM    2  C4  UNL     1     -26.034   1.792  14.314  1.00  0.00     0.026 C 
BRANCH   2   3
HETATM    3  C3  UNL     1     -24.761   1.333  13.638  1.00  0.00     0.059 C 
BRANCH   3   4
HETATM    4  C2  UNL     1     -23.604   1.474  14.527  1.00  0.00     0.028 A 
HETATM    5  N2  UNL     1     -23.654   2.068  15.729  1.00  0.00    -0.196 N 
HETATM    6  C1  UNL     1     -22.553   2.174  16.519  1.00  0.00     0.678 A 
ATOM      7  H2  UNL     1     -24.541   2.450  16.057  1.00  0.00     0.184 HD
HETATM    8  N5  UNL     1     -21.343   1.697  16.165  1.00  0.00    -0.192 N 
HETATM    9  C21 UNL     1     -21.264   1.098  14.970  1.00  0.00     0.111 A 
HETATM   10  C20 UNL     1     -22.363   0.977  14.146  1.00  0.00     0.043 A 
BRANCH   6  11
HETATM   11  N1  UNL     1     -22.715   2.757  17.649  1.00  0.00    -0.234 N 
ATOM     12  H12 UNL     1     -23.608   3.192  17.882  1.00  0.00     0.174 HD
ATOM     13  H11 UNL     1     -21.913   2.760  18.278  1.00  0.00     0.174 HD
ENDBRANCH   6  11
BRANCH   8  14
HETATM   14  C22 UNL     1     -20.226   1.852  17.057  1.00  0.00     0.172 C 
BRANCH  14  15
HETATM   15  C23 UNL     1     -19.718   0.588  17.662  1.00  0.00     0.185 C 
BRANCH  15  16
HETATM   16  O1  UNL     1     -18.641   0.071  16.981  1.00  0.00    -0.399 OA
ATOM     17  H1  UNL     1     -18.862  -0.706  16.480  1.00  0.00     0.209 HD
ENDBRANCH  15  16
ENDBRANCH  14  15
ENDBRANCH   8  14
ENDBRANCH   3   4
ENDBRANCH   2   3
ENDBRANCH   1   2
BRANCH   1  18
HETATM   18  N3  UNL     1     -28.042   0.527  14.971  1.00  0.00    -0.343 N 
HETATM   19  C6  UNL     1     -28.464   0.194  13.722  1.00  0.00     0.092 A 
HETATM   20  C7  UNL     1     -29.795  -0.011  13.453  1.00  0.00     0.017 A 
HETATM   21  C8  UNL     1     -30.727   0.122  14.457  1.00  0.00     0.005 A 
HETATM   22  C9  UNL     1     -30.300   0.455  15.700  1.00  0.00     0.049 A 
HETATM   23  C10 UNL     1     -28.927   0.664  15.969  1.00  0.00     0.113 A 
BRANCH  23  24
HETATM   24  N4  UNL     1     -28.543   1.024  17.291  1.00  0.00    -0.318 N 
HETATM   25  C11 UNL     1     -28.080   2.241  17.618  1.00  0.00     0.099 A 
HETATM   26  C12 UNL     1     -27.726   2.593  18.906  1.00  0.00     0.030 A 
HETATM   27  C13 UNL     1     -27.843   1.675  19.921  1.00  0.00    -0.023 A 
HETATM   28  C14 UNL     1     -27.503   1.981  21.222  1.00  0.00     0.012 A 
HETATM   29  C18 UNL     1     -28.319   0.424  19.595  1.00  0.00    -0.010 A 
HETATM   30  C15 UNL     1     -27.629   1.043  22.225  1.00  0.00     0.001 A 
HETATM   31  C16 UNL     1     -28.101  -0.201  21.908  1.00  0.00     0.001 A 
HETATM   32  C17 UNL     1     -28.443  -0.510  20.600  1.00  0.00     0.013 A 
HETATM   33  C19 UNL     1     -28.656   0.130  18.292  1.00  0.00     0.110 A 
ENDBRANCH  23  24
ENDBRANCH   1  18
TORSDOF 9
ENDMDL
MODEL 3
REMARK VINA RESULT: -7.797291342      1.884      3.153
REMARK  9 active torsions:
REMARK  status: ('A' for Active; 'I' for Inactive)
REMARK    1  A    between atoms: N1_1  and  C1_4 
REMARK    2  A    between atoms: C2_7  and  C3_8 
REMARK    3  A    between atoms: C3_8  and  C4_9 
REMARK    4  A    between atoms: C4_9  and  C5_10 
REMARK    5  A    between atoms: C5_10  and  N3_11 
REMARK    6  A    between atoms: C10_16  and  N4_17 
REMARK    7  A    between atoms: N5_29  and  C22_30 
REMARK    8  A    between atoms: C22_30  and  C23_31 
REMARK    9  A    between atoms: C23_31  and  O1_32 
ROOT
HETATM    1  C5  UNL     1     -27.576   1.495  14.176  1.00  0.00     0.130 C 
ENDROOT
BRANCH   1   2
HETATM    2  C4  UNL     1     -26.277   0.945  14.708  1.00  0.00     0.026 C 
BRANCH   2   3
HETATM    3  C3  UNL     1     -25.096   1.296  13.832  1.00  0.00     0.059 C 
BRANCH   3   4
HETATM    4  C2  UNL     1     -23.872   1.455  14.623  1.00  0.00     0.028 A 
HETATM    5  N2  UNL     1     -23.837   2.035  15.833  1.00  0.00    -0.196 N 
HETATM    6  C1  UNL     1     -22.676   2.159  16.531  1.00  0.00     0.678 A 
ATOM      7  H2  UNL     1     -24.702   2.391  16.239  1.00  0.00     0.184 HD
HETATM    8  N5  UNL     1     -21.489   1.717  16.071  1.00  0.00    -0.192 N 
HETATM    9  C21 UNL     1     -21.495   1.133  14.866  1.00  0.00     0.111 A 
HETATM   10  C20 UNL     1     -22.656   0.994  14.135  1.00  0.00     0.043 A 
BRANCH   6  11
HETATM   11  N1  UNL     1     -22.758   2.726  17.678  1.00  0.00    -0.234 N 
ATOM     12  H12 UNL     1     -23.318   3.570  17.798  1.00  0.00     0.174 HD
ATOM     13  H11 UNL     1     -22.237   2.290  18.439  1.00  0.00     0.174 HD
ENDBRANCH   6  11
BRANCH   8  14
HETATM   14  C22 UNL     1     -20.306   1.890  16.870  1.00  0.00     0.172 C 
BRANCH  14  15
HETATM   15  C23 UNL     1     -19.817   0.659  17.554  1.00  0.00     0.185 C 
BRANCH  15  16
HETATM   16  O1  UNL     1     -18.722   0.106  16.932  1.00  0.00    -0.399 OA
ATOM     17  H1  UNL     1     -18.333  -0.601  17.434  1.00  0.00     0.209 HD
ENDBRANCH  15  16
ENDBRANCH  14  15
ENDBRANCH   8  14
ENDBRANCH   3   4
ENDBRANCH   2   3
ENDBRANCH   1   2
BRANCH   1  18
HETATM   18  N3  UNL     1     -27.983   2.719  14.789  1.00  0.00    -0.343 N 
HETATM   19  C6  UNL     1     -27.453   3.882  14.325  1.00  0.00     0.092 A 
HETATM   20  C7  UNL     1     -27.806   5.092  14.870  1.00  0.00     0.017 A 
HETATM   21  C8  UNL     1     -28.710   5.140  15.906  1.00  0.00     0.005 A 
HETATM   22  C9  UNL     1     -29.236   3.977  16.366  1.00  0.00     0.049 A 
HETATM   23  C10 UNL     1     -28.866   2.735  15.798  1.00  0.00     0.113 A 
BRANCH  23  24
HETATM   24  N4  UNL     1     -29.442   1.548  16.333  1.00  0.00    -0.318 N 
HETATM   25  C11 UNL     1     -30.604   1.035  15.902  1.00  0.00     0.099 A 
HETATM   26  C12 UNL     1     -31.151  -0.127  16.411  1.00  0.00     0.030 A 
HETATM   27  C13 UNL     1     -30.497  -0.810  17.406  1.00  0.00    -0.023 A 
HETATM   28  C14 UNL     1     -31.004  -1.975  17.945  1.00  0.00     0.012 A 
HETATM   29  C18 UNL     1     -29.302  -0.291  17.855  1.00  0.00    -0.010 A 
HETATM   30  C15 UNL     1     -30.329  -2.644  18.945  1.00  0.00     0.001 A 
HETATM   31  C16 UNL     1     -29.142  -2.133  19.394  1.00  0.00     0.001 A 
HETATM   32  C17 UNL     1     -28.631  -0.963  18.853  1.00  0.00     0.013 A 
HETATM   33  C19 UNL     1     -28.806   0.872  17.309  1.00  0.00     0.110 A 
ENDBRANCH  23  24
ENDBRANCH   1  18
TORSDOF 9
ENDMDL
MODEL 4
REMARK VINA RESULT: -7.795682632      1.793      3.122
REMARK  9 active torsions:
REMARK  status: ('A' for Active; 'I' for Inactive)
REMARK    1  A    between atoms: N1_1  and  C1_4 
REMARK    2  A    between atoms: C2_7  and  C3_8 
REMARK    3  A    between atoms: C3_8  and  C4_9 
REMARK    4  A    between atoms: C4_9  and  C5_10 
REMARK    5  A    between atoms: C5_10  and  N3_11 
REMARK    6  A    between atoms: C10_16  and  N4_17 
REMARK    7  A    between atoms: N5_29  and  C22_30 
REMARK    8  A    between atoms: C22_30  and  C23_31 
REMARK    9  A    between atoms: C23_31  and  O1_32 
ROOT
HETATM    1  C5  UNL     1     -27.147   2.000  14.723  1.00  0.00     0.130 C 
ENDROOT
BRANCH   1   2
HETATM    2  C4  UNL     1     -25.938   2.339  13.889  1.00  0.00     0.026 C 
BRANCH   2   3
HETATM    3  C3  UNL     1     -24.984   1.173  13.750  1.00  0.00     0.059 C 
BRANCH   3   4
HETATM    4  C2  UNL     1     -23.786   1.363  14.573  1.00  0.00     0.028 A 
HETATM    5  N2  UNL     1     -23.791   1.970  15.770  1.00  0.00    -0.196 N 
HETATM    6  C1  UNL     1     -22.653   2.122  16.498  1.00  0.00     0.678 A 
ATOM      7  H2  UNL     1     -24.671   2.325  16.143  1.00  0.00     0.184 HD
HETATM    8  N5  UNL     1     -21.448   1.682  16.083  1.00  0.00    -0.192 N 
HETATM    9  C21 UNL     1     -21.413   1.071  14.891  1.00  0.00     0.111 A 
HETATM   10  C20 UNL     1     -22.551   0.904  14.130  1.00  0.00     0.043 A 
BRANCH   6  11
HETATM   11  N1  UNL     1     -22.774   2.712  17.629  1.00  0.00    -0.234 N 
ATOM     12  H12 UNL     1     -23.656   2.674  18.140  1.00  0.00     0.174 HD
ATOM     13  H11 UNL     1     -21.952   3.211  17.971  1.00  0.00     0.174 HD
ENDBRANCH   6  11
BRANCH   8  14
HETATM   14  C22 UNL     1     -20.291   1.885  16.911  1.00  0.00     0.172 C 
BRANCH  14  15
HETATM   15  C23 UNL     1     -19.776   0.662  17.591  1.00  0.00     0.185 C 
BRANCH  15  16
HETATM   16  O1  UNL     1     -18.694   0.112  16.944  1.00  0.00    -0.399 OA
ATOM     17  H1  UNL     1     -18.114   0.768  16.576  1.00  0.00     0.209 HD
ENDBRANCH  15  16
ENDBRANCH  14  15
ENDBRANCH   8  14
ENDBRANCH   3   4
ENDBRANCH   2   3
ENDBRANCH   1   2
BRANCH   1  18
HETATM   18  N3  UNL     1     -27.755   3.130  15.351  1.00  0.00    -0.343 N 
HETATM   19  C6  UNL     1     -27.683   4.334  14.723  1.00  0.00     0.092 A 
HETATM   20  C7  UNL     1     -28.250   5.457  15.274  1.00  0.00     0.017 A 
HETATM   21  C8  UNL     1     -28.904   5.374  16.482  1.00  0.00     0.005 A 
HETATM   22  C9  UNL     1     -28.973   4.171  17.103  1.00  0.00     0.049 A 
HETATM   23  C10 UNL     1     -28.386   3.018  16.528  1.00  0.00     0.113 A 
BRANCH  23  24
HETATM   24  N4  UNL     1     -28.480   1.787  17.236  1.00  0.00    -0.318 N 
HETATM   25  C11 UNL     1     -27.559   1.373  18.120  1.00  0.00     0.099 A 
HETATM   26  C12 UNL     1     -27.663   0.186  18.818  1.00  0.00     0.030 A 
HETATM   27  C13 UNL     1     -28.749  -0.630  18.620  1.00  0.00    -0.023 A 
HETATM   28  C14 UNL     1     -28.897  -1.824  19.294  1.00  0.00     0.012 A 
HETATM   29  C18 UNL     1     -29.701  -0.212  17.715  1.00  0.00    -0.010 A 
HETATM   30  C15 UNL     1     -29.998  -2.627  19.079  1.00  0.00     0.001 A 
HETATM   31  C16 UNL     1     -30.946  -2.218  18.182  1.00  0.00     0.001 A 
HETATM   32  C17 UNL     1     -30.799  -1.018  17.503  1.00  0.00     0.013 A 
HETATM   33  C19 UNL     1     -29.543   0.982  17.048  1.00  0.00     0.110 A 
ENDBRANCH  23  24
ENDBRANCH   1  18
TORSDOF 9
ENDMDL
MODEL 5
REMARK VINA RESULT: -7.784098155      1.720      2.661
REMARK  9 active torsions:
REMARK  status: ('A' for Active; 'I' for Inactive)
REMARK    1  A    between atoms: N1_1  and  C1_4 
REMARK    2  A    between atoms: C2_7  and  C3_8 
REMARK    3  A    between atoms: C3_8  and  C4_9 
REMARK    4  A    between atoms: C4_9  and  C5_10 
REMARK    5  A    between atoms: C5_10  and  N3_11 
REMARK    6  A    between atoms: C10_16  and  N4_17 
REMARK    7  A    between atoms: N5_29  and  C22_30 
REMARK    8  A    between atoms: C22_30  and  C23_31 
REMARK    9  A    between atoms: C23_31  and  O1_32 
ROOT
HETATM    1  C5  UNL     1     -25.611   1.523  14.782  1.00  0.00     0.130 C 
ENDROOT
BRANCH   1   2
HETATM    2  C4  UNL     1     -24.598   1.176  13.720  1.00  0.00     0.026 C 
BRANCH   2   3
HETATM    3  C3  UNL     1     -23.422   2.126  13.708  1.00  0.00     0.059 C 
BRANCH   3   4
HETATM    4  C2  UNL     1     -22.414   1.743  14.701  1.00  0.00     0.028 A 
HETATM    5  N2  UNL     1     -21.802   0.549  14.719  1.00  0.00    -0.196 N 
HETATM    6  C1  UNL     1     -20.871   0.238  15.661  1.00  0.00     0.678 A 
ATOM      7  H2  UNL     1     -22.041  -0.143  14.009  1.00  0.00     0.184 HD
HETATM    8  N5  UNL     1     -20.495   1.091  16.635  1.00  0.00    -0.192 N 
HETATM    9  C21 UNL     1     -21.090   2.291  16.640  1.00  0.00     0.111 A 
HETATM   10  C20 UNL     1     -22.038   2.634  15.698  1.00  0.00     0.043 A 
BRANCH   6  11
HETATM   11  N1  UNL     1     -20.348  -0.929  15.583  1.00  0.00    -0.234 N 
ATOM     12  H12 UNL     1     -19.767  -1.181  14.783  1.00  0.00     0.174 HD
ATOM     13  H11 UNL     1     -20.548  -1.570  16.350  1.00  0.00     0.174 HD
ENDBRANCH   6  11
BRANCH   8  14
HETATM   14  C22 UNL     1     -19.507   0.685  17.596  1.00  0.00     0.172 C 
BRANCH  14  15
HETATM   15  C23 UNL     1     -19.971   0.664  19.012  1.00  0.00     0.185 C 
BRANCH  15  16
HETATM   16  O1  UNL     1     -19.639   1.810  19.696  1.00  0.00    -0.399 OA
ATOM     17  H1  UNL     1     -18.705   1.885  19.855  1.00  0.00     0.209 HD
ENDBRANCH  15  16
ENDBRANCH  14  15
ENDBRANCH   8  14
ENDBRANCH   3   4
ENDBRANCH   2   3
ENDBRANCH   1   2
BRANCH   1  18
HETATM   18  N3  UNL     1     -26.889   1.895  14.266  1.00  0.00    -0.343 N 
HETATM   19  C6  UNL     1     -26.979   2.252  12.956  1.00  0.00     0.092 A 
HETATM   20  C7  UNL     1     -28.180   2.616  12.400  1.00  0.00     0.017 A 
HETATM   21  C8  UNL     1     -29.319   2.626  13.172  1.00  0.00     0.005 A 
HETATM   22  C9  UNL     1     -29.224   2.270  14.477  1.00  0.00     0.049 A 
HETATM   23  C10 UNL     1     -27.982   1.896  15.042  1.00  0.00     0.113 A 
BRANCH  23  24
HETATM   24  N4  UNL     1     -27.945   1.545  16.422  1.00  0.00    -0.318 N 
HETATM   25  C11 UNL     1     -27.437   2.346  17.371  1.00  0.00     0.099 A 
HETATM   26  C12 UNL     1     -27.419   2.011  18.711  1.00  0.00     0.030 A 
HETATM   27  C13 UNL     1     -27.938   0.807  19.120  1.00  0.00    -0.023 A 
HETATM   28  C14 UNL     1     -27.943   0.429  20.447  1.00  0.00     0.012 A 
HETATM   29  C18 UNL     1     -28.463  -0.021  18.152  1.00  0.00    -0.010 A 
HETATM   30  C15 UNL     1     -28.470  -0.785  20.835  1.00  0.00     0.001 A 
HETATM   31  C16 UNL     1     -28.992  -1.612  19.878  1.00  0.00     0.001 A 
HETATM   32  C17 UNL     1     -28.988  -1.233  18.544  1.00  0.00     0.013 A 
HETATM   33  C19 UNL     1     -28.453   0.367  16.831  1.00  0.00     0.110 A 
ENDBRANCH  23  24
ENDBRANCH   1  18
TORSDOF 9
ENDMDL
