MODEL 1
REMARK VINA RESULT: -7.164919367      0.000      0.000
REMARK  8 active torsions:
REMARK  status: ('A' for Active; 'I' for Inactive)
REMARK    1  A    between atoms: C2_2  and  C3_3 
REMARK    2  A    between atoms: C3_3  and  C4_4 
REMARK    3  A    between atoms: C4_4  and  C5_5 
REMARK    4  A    between atoms: N3_18  and  C13_19 
REMARK    5  A    between atoms: C13_19  and  C14_20 
REMARK    6  A    between atoms: C14_20  and  C15_21 
REMARK    7  A    between atoms: C15_21  and  S1_22 
REMARK    8  A    between atoms: S1_22  and  N4_23 
ROOT
HETATM    1  C5  UNL     1     -27.208   1.941  16.807  1.00  0.00     0.041 A 
HETATM    2  C6  UNL     1     -25.971   1.898  16.166  1.00  0.00     0.085 A 
HETATM    3  N1  UNL     1     -24.711   1.930  16.645  1.00  0.00    -0.351 N 
ATOM      4  H1  UNL     1     -24.472   1.994  17.634  1.00  0.00     0.166 HD
HETATM    5  C7  UNL     1     -23.816   1.869  15.652  1.00  0.00     0.062 A 
HETATM    6  C8  UNL     1     -22.429   1.876  15.657  1.00  0.00     0.037 A 
HETATM    7  C9  UNL     1     -21.768   1.805  14.471  1.00  0.00     0.077 A 
HETATM    8  C10 UNL     1     -22.509   1.729  13.325  1.00  0.00     0.245 A 
HETATM    9  O1  UNL     1     -21.888   1.663  12.218  1.00  0.00    -0.268 OA
HETATM   10  N2  UNL     1     -23.861   1.720  13.277  1.00  0.00    -0.320 N 
ATOM     11  H2  UNL     1     -24.365   1.662  12.393  1.00  0.00     0.169 HD
HETATM   12  C11 UNL     1     -24.507   1.790  14.449  1.00  0.00     0.091 A 
HETATM   13  C12 UNL     1     -25.849   1.808  14.784  1.00  0.00     0.094 A 
HETATM   14  N3  UNL     1     -26.987   1.766  14.089  1.00  0.00    -0.333 N 
HETATM   15  C16 UNL     1     -28.210   1.810  14.715  1.00  0.00     0.082 A 
HETATM   16  C17 UNL     1     -29.464   1.792  13.907  1.00  0.00     0.089 C 
HETATM   17  N5  UNL     1     -28.306   1.896  16.045  1.00  0.00    -0.343 N 
HETATM   18  C18 UNL     1     -29.647   1.923  16.638  1.00  0.00     0.157 C 
ENDROOT
BRANCH  14  19
HETATM   19  C13 UNL     1     -27.008   1.658  12.650  1.00  0.00     0.131 C 
BRANCH  19  20
HETATM   20  C14 UNL     1     -27.031   3.006  11.961  1.00  0.00     0.037 C 
BRANCH  20  21
HETATM   21  C15 UNL     1     -26.719   2.978  10.506  1.00  0.00     0.164 C 
BRANCH  21  22
HETATM   22  S1  UNL     1     -25.402   3.949   9.929  1.00  0.00     0.224 S 
HETATM   23  O2  UNL     1     -25.741   5.409  10.189  1.00  0.00    -0.206 OA
HETATM   24  O3  UNL     1     -24.116   3.692  10.668  1.00  0.00    -0.206 OA
BRANCH  22  25
HETATM   25  N4  UNL     1     -25.143   3.834   8.214  1.00  0.00    -0.328 N 
ATOM     26  H42 UNL     1     -25.909   3.684   7.557  1.00  0.00     0.168 HD
ATOM     27  H41 UNL     1     -24.166   3.930   7.937  1.00  0.00     0.168 HD
ENDBRANCH  22  25
ENDBRANCH  21  22
ENDBRANCH  20  21
ENDBRANCH  19  20
ENDBRANCH  14  19
BRANCH   1  28
HETATM   28  C4  UNL     1     -27.236   2.027  18.287  1.00  0.00     0.059 C 
BRANCH  28  29
HETATM   29  C3  UNL     1     -26.995   0.660  18.867  1.00  0.00     0.006 C 
BRANCH  29  30
HETATM   30  C2  UNL     1     -28.246   0.043  19.440  1.00  0.00    -0.004 C 
HETATM   31  C1  UNL     1     -28.519  -1.332  18.936  1.00  0.00     0.005 C 
ENDBRANCH  29  30
ENDBRANCH  28  29
ENDBRANCH   1  28
TORSDOF 8
ENDMDL
MODEL 2
REMARK VINA RESULT: -6.666710208      1.178      1.178
REMARK  8 active torsions:
REMARK  status: ('A' for Active; 'I' for Inactive)
REMARK    1  A    between atoms: C2_2  and  C3_3 
REMARK    2  A    between atoms: C3_3  and  C4_4 
REMARK    3  A    between atoms: C4_4  and  C5_5 
REMARK    4  A    between atoms: N3_18  and  C13_19 
REMARK    5  A    between atoms: C13_19  and  C14_20 
REMARK    6  A    between atoms: C14_20  and  C15_21 
REMARK    7  A    between atoms: C15_21  and  S1_22 
REMARK    8  A    between atoms: S1_22  and  N4_23 
ROOT
HETATM    1  C5  UNL     1     -27.310   1.760  17.100  1.00  0.00     0.041 A 
HETATM    2  C6  UNL     1     -26.086   1.752  16.433  1.00  0.00     0.085 A 
HETATM    3  N1  UNL     1     -24.821   1.885  16.878  1.00  0.00    -0.351 N 
ATOM      4  H1  UNL     1     -24.565   2.018  17.856  1.00  0.00     0.166 HD
HETATM    5  C7  UNL     1     -23.945   1.820  15.870  1.00  0.00     0.062 A 
HETATM    6  C8  UNL     1     -22.560   1.908  15.840  1.00  0.00     0.037 A 
HETATM    7  C9  UNL     1     -21.921   1.808  14.644  1.00  0.00     0.077 A 
HETATM    8  C10 UNL     1     -22.680   1.625  13.523  1.00  0.00     0.245 A 
HETATM    9  O1  UNL     1     -22.080   1.533  12.406  1.00  0.00    -0.268 OA
HETATM   10  N2  UNL     1     -24.030   1.535  13.508  1.00  0.00    -0.320 N 
ATOM     11  H2  UNL     1     -24.548   1.399  12.640  1.00  0.00     0.169 HD
HETATM   12  C11 UNL     1     -24.654   1.634  14.690  1.00  0.00     0.091 A 
HETATM   13  C12 UNL     1     -25.987   1.592  15.055  1.00  0.00     0.094 A 
HETATM   14  N3  UNL     1     -27.135   1.446  14.391  1.00  0.00    -0.333 N 
HETATM   15  C16 UNL     1     -28.346   1.454  15.043  1.00  0.00     0.082 A 
HETATM   16  C17 UNL     1     -29.612   1.317  14.268  1.00  0.00     0.089 C 
HETATM   17  N5  UNL     1     -28.418   1.609  16.369  1.00  0.00    -0.343 N 
HETATM   18  C18 UNL     1     -29.746   1.591  16.992  1.00  0.00     0.157 C 
ENDROOT
BRANCH  14  19
HETATM   19  C13 UNL     1     -27.180   1.256  12.962  1.00  0.00     0.131 C 
BRANCH  19  20
HETATM   20  C14 UNL     1     -27.059   2.555  12.193  1.00  0.00     0.037 C 
BRANCH  20  21
HETATM   21  C15 UNL     1     -28.071   2.752  11.120  1.00  0.00     0.164 C 
BRANCH  21  22
HETATM   22  S1  UNL     1     -27.512   2.956   9.489  1.00  0.00     0.224 S 
HETATM   23  O2  UNL     1     -27.671   4.421   9.115  1.00  0.00    -0.206 OA
HETATM   24  O3  UNL     1     -26.047   2.651   9.330  1.00  0.00    -0.206 OA
BRANCH  22  25
HETATM   25  N4  UNL     1     -28.441   2.075   8.314  1.00  0.00    -0.328 N 
ATOM     26  H42 UNL     1     -29.391   2.345   8.058  1.00  0.00     0.168 HD
ATOM     27  H41 UNL     1     -27.949   1.277   7.913  1.00  0.00     0.168 HD
ENDBRANCH  22  25
ENDBRANCH  21  22
ENDBRANCH  20  21
ENDBRANCH  19  20
ENDBRANCH  14  19
BRANCH   1  28
HETATM   28  C4  UNL     1     -27.312   1.927  18.574  1.00  0.00     0.059 C 
BRANCH  28  29
HETATM   29  C3  UNL     1     -26.971   0.613  19.221  1.00  0.00     0.006 C 
BRANCH  29  30
HETATM   30  C2  UNL     1     -28.190  -0.129  19.707  1.00  0.00    -0.004 C 
HETATM   31  C1  UNL     1     -28.507  -1.345  18.905  1.00  0.00     0.005 C 
ENDBRANCH  29  30
ENDBRANCH  28  29
ENDBRANCH   1  28
TORSDOF 8
ENDMDL
MODEL 3
REMARK VINA RESULT: -6.568522191      2.084      2.771
REMARK  8 active torsions:
REMARK  status: ('A' for Active; 'I' for Inactive)
REMARK    1  A    between atoms: C2_2  and  C3_3 
REMARK    2  A    between atoms: C3_3  and  C4_4 
REMARK    3  A    between atoms: C4_4  and  C5_5 
REMARK    4  A    between atoms: N3_18  and  C13_19 
REMARK    5  A    between atoms: C13_19  and  C14_20 
REMARK    6  A    between atoms: C14_20  and  C15_21 
REMARK    7  A    between atoms: C15_21  and  S1_22 
REMARK    8  A    between atoms: S1_22  and  N4_23 
ROOT
HETATM    1  C5  UNL     1     -29.410   0.158  17.375  1.00  0.00     0.041 A 
HETATM    2  C6  UNL     1     -28.241   0.574  16.739  1.00  0.00     0.085 A 
HETATM    3  N1  UNL     1     -27.040   0.947  17.224  1.00  0.00    -0.351 N 
ATOM      4  H1  UNL     1     -26.803   0.973  18.215  1.00  0.00     0.166 HD
HETATM    5  C7  UNL     1     -26.202   1.277  16.236  1.00  0.00     0.062 A 
HETATM    6  C8  UNL     1     -24.886   1.717  16.248  1.00  0.00     0.037 A 
HETATM    7  C9  UNL     1     -24.273   1.987  15.065  1.00  0.00     0.077 A 
HETATM    8  C10 UNL     1     -24.988   1.808  13.914  1.00  0.00     0.245 A 
HETATM    9  O1  UNL     1     -24.412   2.060  12.810  1.00  0.00    -0.268 OA
HETATM   10  N2  UNL     1     -26.271   1.381  13.859  1.00  0.00    -0.320 N 
ATOM     11  H2  UNL     1     -26.759   1.266  12.971  1.00  0.00     0.169 HD
HETATM   12  C11 UNL     1     -26.870   1.118  15.028  1.00  0.00     0.091 A 
HETATM   13  C12 UNL     1     -28.140   0.678  15.356  1.00  0.00     0.094 A 
HETATM   14  N3  UNL     1     -29.229   0.358  14.656  1.00  0.00    -0.333 N 
HETATM   15  C16 UNL     1     -30.386  -0.051  15.276  1.00  0.00     0.082 A 
HETATM   16  C17 UNL     1     -31.595  -0.373  14.465  1.00  0.00     0.089 C 
HETATM   17  N5  UNL     1     -30.462  -0.145  16.607  1.00  0.00    -0.343 N 
HETATM   18  C18 UNL     1     -31.726  -0.605  17.193  1.00  0.00     0.157 C 
ENDROOT
BRANCH  14  19
HETATM   19  C13 UNL     1     -29.260   0.407  13.214  1.00  0.00     0.131 C 
BRANCH  19  20
HETATM   20  C14 UNL     1     -29.595   1.783  12.679  1.00  0.00     0.037 C 
BRANCH  20  21
HETATM   21  C15 UNL     1     -28.995   2.113  11.358  1.00  0.00     0.164 C 
BRANCH  21  22
HETATM   22  S1  UNL     1     -27.775   3.346  11.294  1.00  0.00     0.224 S 
HETATM   23  O2  UNL     1     -28.288   4.471  10.408  1.00  0.00    -0.206 OA
HETATM   24  O3  UNL     1     -27.506   3.974  12.634  1.00  0.00    -0.206 OA
BRANCH  22  25
HETATM   25  N4  UNL     1     -26.287   2.825  10.564  1.00  0.00    -0.328 N 
ATOM     26  H42 UNL     1     -26.081   2.980   9.576  1.00  0.00     0.168 HD
ATOM     27  H41 UNL     1     -25.652   2.357  11.211  1.00  0.00     0.168 HD
ENDBRANCH  22  25
ENDBRANCH  21  22
ENDBRANCH  20  21
ENDBRANCH  19  20
ENDBRANCH  14  19
BRANCH   1  28
HETATM   28  C4  UNL     1     -29.418   0.069  18.855  1.00  0.00     0.059 C 
BRANCH  28  29
HETATM   29  C3  UNL     1     -28.463  -1.009  19.291  1.00  0.00     0.006 C 
BRANCH  29  30
HETATM   30  C2  UNL     1     -29.007  -2.396  19.058  1.00  0.00    -0.004 C 
HETATM   31  C1  UNL     1     -28.974  -3.262  20.269  1.00  0.00     0.005 C 
ENDBRANCH  29  30
ENDBRANCH  28  29
ENDBRANCH   1  28
TORSDOF 8
ENDMDL
MODEL 4
REMARK VINA RESULT: -6.456613352      1.025      1.823
REMARK  8 active torsions:
REMARK  status: ('A' for Active; 'I' for Inactive)
REMARK    1  A    between atoms: C2_2  and  C3_3 
REMARK    2  A    between atoms: C3_3  and  C4_4 
REMARK    3  A    between atoms: C4_4  and  C5_5 
REMARK    4  A    between atoms: N3_18  and  C13_19 
REMARK    5  A    between atoms: C13_19  and  C14_20 
REMARK    6  A    between atoms: C14_20  and  C15_21 
REMARK    7  A    between atoms: C15_21  and  S1_22 
REMARK    8  A    between atoms: S1_22  and  N4_23 
ROOT
HETATM    1  C5  UNL     1     -27.177   2.228  16.944  1.00  0.00     0.041 A 
HETATM    2  C6  UNL     1     -25.948   2.093  16.299  1.00  0.00     0.085 A 
HETATM    3  N1  UNL     1     -24.685   2.107  16.766  1.00  0.00    -0.351 N 
ATOM      4  H1  UNL     1     -24.434   2.225  17.748  1.00  0.00     0.166 HD
HETATM    5  C7  UNL     1     -23.802   1.945  15.775  1.00  0.00     0.062 A 
HETATM    6  C8  UNL     1     -22.415   1.897  15.770  1.00  0.00     0.037 A 
HETATM    7  C9  UNL     1     -21.768   1.722  14.587  1.00  0.00     0.077 A 
HETATM    8  C10 UNL     1     -22.521   1.600  13.453  1.00  0.00     0.245 A 
HETATM    9  O1  UNL     1     -21.914   1.437  12.349  1.00  0.00    -0.268 OA
HETATM   10  N2  UNL     1     -23.873   1.642  13.415  1.00  0.00    -0.320 N 
ATOM     11  H2  UNL     1     -24.387   1.547  12.539  1.00  0.00     0.169 HD
HETATM   12  C11 UNL     1     -24.505   1.815  14.584  1.00  0.00     0.091 A 
HETATM   13  C12 UNL     1     -25.842   1.908  14.925  1.00  0.00     0.094 A 
HETATM   14  N3  UNL     1     -26.987   1.866  14.242  1.00  0.00    -0.333 N 
HETATM   15  C16 UNL     1     -28.203   2.000  14.871  1.00  0.00     0.082 A 
HETATM   16  C17 UNL     1     -29.463   1.978  14.074  1.00  0.00     0.089 C 
HETATM   17  N5  UNL     1     -28.283   2.176  16.194  1.00  0.00    -0.343 N 
HETATM   18  C18 UNL     1     -29.616   2.295  16.792  1.00  0.00     0.157 C 
ENDROOT
BRANCH  14  19
HETATM   19  C13 UNL     1     -27.026   1.665  12.813  1.00  0.00     0.131 C 
BRANCH  19  20
HETATM   20  C14 UNL     1     -27.092   2.964  12.039  1.00  0.00     0.037 C 
BRANCH  20  21
HETATM   21  C15 UNL     1     -26.728   2.862  10.600  1.00  0.00     0.164 C 
BRANCH  21  22
HETATM   22  S1  UNL     1     -25.390   3.805  10.021  1.00  0.00     0.224 S 
HETATM   23  O2  UNL     1     -25.745   5.275  10.180  1.00  0.00    -0.206 OA
HETATM   24  O3  UNL     1     -24.136   3.599  10.826  1.00  0.00    -0.206 OA
BRANCH  22  25
HETATM   25  N4  UNL     1     -25.061   3.590   8.328  1.00  0.00    -0.328 N 
ATOM     26  H42 UNL     1     -25.805   3.523   7.633  1.00  0.00     0.168 HD
ATOM     27  H41 UNL     1     -24.067   3.538   8.105  1.00  0.00     0.168 HD
ENDBRANCH  22  25
ENDBRANCH  21  22
ENDBRANCH  20  21
ENDBRANCH  19  20
ENDBRANCH  14  19
BRANCH   1  28
HETATM   28  C4  UNL     1     -27.189   2.411  18.415  1.00  0.00     0.059 C 
BRANCH  28  29
HETATM   29  C3  UNL     1     -27.291   3.879  18.730  1.00  0.00     0.006 C 
BRANCH  29  30
HETATM   30  C2  UNL     1     -26.067   4.408  19.433  1.00  0.00    -0.004 C 
HETATM   31  C1  UNL     1     -25.177   5.218  18.554  1.00  0.00     0.005 C 
ENDBRANCH  29  30
ENDBRANCH  28  29
ENDBRANCH   1  28
TORSDOF 8
ENDMDL
MODEL 5
REMARK VINA RESULT: -6.422839508      1.469      1.610
REMARK  8 active torsions:
REMARK  status: ('A' for Active; 'I' for Inactive)
REMARK    1  A    between atoms: C2_2  and  C3_3 
REMARK    2  A    between atoms: C3_3  and  C4_4 
REMARK    3  A    between atoms: C4_4  and  C5_5 
REMARK    4  A    between atoms: N3_18  and  C13_19 
REMARK    5  A    between atoms: C13_19  and  C14_20 
REMARK    6  A    between atoms: C14_20  and  C15_21 
REMARK    7  A    between atoms: C15_21  and  S1_22 
REMARK    8  A    between atoms: S1_22  and  N4_23 
ROOT
HETATM    1  C5  UNL     1     -27.853   1.281  17.449  1.00  0.00     0.041 A 
HETATM    2  C6  UNL     1     -26.635   1.438  16.789  1.00  0.00     0.085 A 
HETATM    3  N1  UNL     1     -25.408   1.767  17.239  1.00  0.00    -0.351 N 
ATOM      4  H1  UNL     1     -25.184   1.958  18.215  1.00  0.00     0.166 HD
HETATM    5  C7  UNL     1     -24.522   1.809  16.238  1.00  0.00     0.062 A 
HETATM    6  C8  UNL     1     -23.165   2.100  16.215  1.00  0.00     0.037 A 
HETATM    7  C9  UNL     1     -22.507   2.069  15.025  1.00  0.00     0.077 A 
HETATM    8  C10 UNL     1     -23.220   1.750  13.904  1.00  0.00     0.245 A 
HETATM    9  O1  UNL     1     -22.602   1.722  12.794  1.00  0.00    -0.268 OA
HETATM   10  N2  UNL     1     -24.542   1.461  13.883  1.00  0.00    -0.320 N 
ATOM     11  H2  UNL     1     -25.025   1.230  13.016  1.00  0.00     0.169 HD
HETATM   12  C11 UNL     1     -25.185   1.493  15.058  1.00  0.00     0.091 A 
HETATM   13  C12 UNL     1     -26.501   1.263  15.417  1.00  0.00     0.094 A 
HETATM   14  N3  UNL     1     -27.608   0.934  14.749  1.00  0.00    -0.333 N 
HETATM   15  C16 UNL     1     -28.813   0.778  15.393  1.00  0.00     0.082 A 
HETATM   16  C17 UNL     1     -30.038   0.437  14.614  1.00  0.00     0.089 C 
HETATM   17  N5  UNL     1     -28.920   0.950  16.714  1.00  0.00    -0.343 N 
HETATM   18  C18 UNL     1     -30.237   0.750  17.329  1.00  0.00     0.157 C 
ENDROOT
BRANCH  14  19
HETATM   19  C13 UNL     1     -27.611   0.707  13.324  1.00  0.00     0.131 C 
BRANCH  19  20
HETATM   20  C14 UNL     1     -27.948   1.952  12.532  1.00  0.00     0.037 C 
BRANCH  20  21
HETATM   21  C15 UNL     1     -26.803   2.575  11.814  1.00  0.00     0.164 C 
BRANCH  21  22
HETATM   22  S1  UNL     1     -27.070   3.178  10.209  1.00  0.00     0.224 S 
HETATM   23  O2  UNL     1     -25.941   2.675   9.322  1.00  0.00    -0.206 OA
HETATM   24  O3  UNL     1     -28.338   2.657   9.589  1.00  0.00    -0.206 OA
BRANCH  22  25
HETATM   25  N4  UNL     1     -27.012   4.912  10.091  1.00  0.00    -0.328 N 
ATOM     26  H42 UNL     1     -26.142   5.416   9.918  1.00  0.00     0.168 HD
ATOM     27  H41 UNL     1     -27.919   5.363  10.210  1.00  0.00     0.168 HD
ENDBRANCH  22  25
ENDBRANCH  21  22
ENDBRANCH  20  21
ENDBRANCH  19  20
ENDBRANCH  14  19
BRANCH   1  28
HETATM   28  C4  UNL     1     -27.894   1.479  18.918  1.00  0.00     0.059 C 
BRANCH  28  29
HETATM   29  C3  UNL     1     -27.359   0.249  19.599  1.00  0.00     0.006 C 
BRANCH  29  30
HETATM   30  C2  UNL     1     -28.442  -0.569  20.255  1.00  0.00    -0.004 C 
HETATM   31  C1  UNL     1     -28.763  -1.830  19.528  1.00  0.00     0.005 C 
ENDBRANCH  29  30
ENDBRANCH  28  29
ENDBRANCH   1  28
TORSDOF 8
ENDMDL
