MODEL 1
REMARK VINA RESULT: -7.675991578      0.000      0.000
REMARK  9 active torsions:
REMARK  status: ('A' for Active; 'I' for Inactive)
REMARK    1  A    between atoms: C5_5  and  C6_6 
REMARK    2  A    between atoms: C6_6  and  C7_7 
REMARK    3  A    between atoms: C10_12  and  C11_13 
REMARK    4  A    between atoms: C11_13  and  C12_14 
REMARK    5  A    between atoms: C12_14  and  N2_15 
REMARK    6  A    between atoms: N2_15  and  C13_17 
REMARK    7  A    between atoms: C13_17  and  C14_18 
REMARK    8  A    between atoms: C14_18  and  N3_19 
REMARK    9  A    between atoms: N3_19  and  C16_21 
ROOT
HETATM    1  C7  UNL     1     -31.234  -0.159  15.272  1.00  0.00     0.063 A 
HETATM    2  C8  UNL     1     -30.066   0.182  14.610  1.00  0.00     0.075 A 
HETATM    3  N1  UNL     1     -28.759   0.419  14.825  1.00  0.00    -0.354 N 
ATOM      4  H1  UNL     1     -28.318   0.386  15.744  1.00  0.00     0.166 HD
HETATM    5  C9  UNL     1     -28.103   0.705  13.693  1.00  0.00     0.029 A 
HETATM    6  C10 UNL     1     -26.817   0.991  13.571  1.00  0.00     0.004 C 
HETATM    7  C18 UNL     1     -29.035   0.650  12.696  1.00  0.00     0.048 A 
HETATM    8  C19 UNL     1     -30.266   0.319  13.295  1.00  0.00     0.063 A 
HETATM    9  C20 UNL     1     -31.633   0.065  13.014  1.00  0.00     0.258 A 
HETATM   10  O1  UNL     1     -32.249   0.082  11.930  1.00  0.00    -0.267 OA
HETATM   11  N4  UNL     1     -32.241  -0.241  14.288  1.00  0.00    -0.321 N 
ATOM     12  H4  UNL     1     -33.222  -0.473  14.448  1.00  0.00     0.169 HD
ENDROOT
BRANCH   6  13
HETATM   13  C11 UNL     1     -25.913   1.032  14.721  1.00  0.00     0.048 C 
BRANCH  13  14
HETATM   14  C12 UNL     1     -24.691   1.816  14.326  1.00  0.00     0.118 C 
BRANCH  14  15
HETATM   15  N2  UNL     1     -23.837   1.005  13.515  1.00  0.00    -0.417 N 
ATOM     16  H2  UNL     1     -24.190   0.239  12.943  1.00  0.00     0.153 HD
BRANCH  15  17
HETATM   17  C13 UNL     1     -22.445   1.354  13.567  1.00  0.00     0.158 C 
BRANCH  17  18
HETATM   18  C14 UNL     1     -22.164   2.057  14.877  1.00  0.00     0.076 C 
BRANCH  18  19
HETATM   19  N3  UNL     1     -21.185   1.380  15.611  1.00  0.00    -0.396 N 
HETATM   20  C15 UNL     1     -20.609   0.191  15.144  1.00  0.00     0.148 C 
BRANCH  19  21
HETATM   21  C16 UNL     1     -20.752   1.912  16.848  1.00  0.00     0.117 C 
HETATM   22  C17 UNL     1     -19.686   1.138  17.563  1.00  0.00     0.026 C 
ENDBRANCH  19  21
ENDBRANCH  18  19
ENDBRANCH  17  18
ENDBRANCH  15  17
ENDBRANCH  14  15
ENDBRANCH  13  14
ENDBRANCH   6  13
BRANCH   1  23
HETATM   23  C6  UNL     1     -31.204  -0.368  16.676  1.00  0.00     0.044 C 
BRANCH  23  24
HETATM   24  C5  UNL     1     -30.549  -0.804  17.680  1.00  0.00    -0.028 A 
HETATM   25  C4  UNL     1     -30.870  -2.138  18.070  1.00  0.00     0.013 A 
HETATM   26  C3  UNL     1     -30.304  -2.805  19.109  1.00  0.00     0.012 A 
HETATM   27  C2  UNL     1     -29.357  -2.166  19.847  1.00  0.00    -0.039 A 
HETATM   28  C1  UNL     1     -28.825  -2.849  20.849  1.00  0.00     0.024 C 
HETATM   29  C23 UNL     1     -28.978  -0.899  19.562  1.00  0.00    -0.046 A 
HETATM   30  C21 UNL     1     -29.587  -0.251  18.480  1.00  0.00    -0.045 A 
HETATM   31  C24 UNL     1     -27.968  -0.180  20.366  1.00  0.00     0.049 C 
HETATM   32  C22 UNL     1     -29.070   1.093  18.176  1.00  0.00     0.049 C 
ENDBRANCH  23  24
ENDBRANCH   1  23
TORSDOF 9
ENDMDL
MODEL 2
REMARK VINA RESULT: -7.621718017      0.890      1.757
REMARK  9 active torsions:
REMARK  status: ('A' for Active; 'I' for Inactive)
REMARK    1  A    between atoms: C5_5  and  C6_6 
REMARK    2  A    between atoms: C6_6  and  C7_7 
REMARK    3  A    between atoms: C10_12  and  C11_13 
REMARK    4  A    between atoms: C11_13  and  C12_14 
REMARK    5  A    between atoms: C12_14  and  N2_15 
REMARK    6  A    between atoms: N2_15  and  C13_17 
REMARK    7  A    between atoms: C13_17  and  C14_18 
REMARK    8  A    between atoms: C14_18  and  N3_19 
REMARK    9  A    between atoms: N3_19  and  C16_21 
ROOT
HETATM    1  C7  UNL     1     -31.228  -0.103  16.070  1.00  0.00     0.063 A 
HETATM    2  C8  UNL     1     -30.166   0.089  15.202  1.00  0.00     0.075 A 
HETATM    3  N1  UNL     1     -28.862   0.421  15.181  1.00  0.00    -0.354 N 
ATOM      4  H1  UNL     1     -28.321   0.652  16.014  1.00  0.00     0.166 HD
HETATM    5  C9  UNL     1     -28.357   0.415  13.941  1.00  0.00     0.029 A 
HETATM    6  C10 UNL     1     -27.115   0.702  13.589  1.00  0.00     0.004 C 
HETATM    7  C18 UNL     1     -29.388   0.061  13.119  1.00  0.00     0.048 A 
HETATM    8  C19 UNL     1     -30.520  -0.141  13.932  1.00  0.00     0.063 A 
HETATM    9  C20 UNL     1     -31.889  -0.509  13.901  1.00  0.00     0.258 A 
HETATM   10  O1  UNL     1     -32.621  -0.806  12.937  1.00  0.00    -0.267 OA
HETATM   11  N4  UNL     1     -32.331  -0.482  15.276  1.00  0.00    -0.321 N 
ATOM     12  H4  UNL     1     -33.269  -0.697  15.612  1.00  0.00     0.169 HD
ENDROOT
BRANCH   6  13
HETATM   13  C11 UNL     1     -26.093   1.083  14.565  1.00  0.00     0.048 C 
BRANCH  13  14
HETATM   14  C12 UNL     1     -25.054   1.908  13.855  1.00  0.00     0.118 C 
BRANCH  14  15
HETATM   15  N2  UNL     1     -23.914   1.097  13.556  1.00  0.00    -0.417 N 
ATOM     16  H2  UNL     1     -23.997   0.140  13.215  1.00  0.00     0.153 HD
BRANCH  15  17
HETATM   17  C13 UNL     1     -22.646   1.733  13.774  1.00  0.00     0.158 C 
BRANCH  17  18
HETATM   18  C14 UNL     1     -21.717   0.756  14.459  1.00  0.00     0.076 C 
BRANCH  18  19
HETATM   19  N3  UNL     1     -21.175   1.307  15.624  1.00  0.00    -0.396 N 
HETATM   20  C15 UNL     1     -21.798   2.373  16.288  1.00  0.00     0.148 C 
BRANCH  19  21
HETATM   21  C16 UNL     1     -19.980   0.771  16.158  1.00  0.00     0.117 C 
HETATM   22  C17 UNL     1     -19.674   1.127  17.581  1.00  0.00     0.026 C 
ENDBRANCH  19  21
ENDBRANCH  18  19
ENDBRANCH  17  18
ENDBRANCH  15  17
ENDBRANCH  14  15
ENDBRANCH  13  14
ENDBRANCH   6  13
BRANCH   1  23
HETATM   23  C6  UNL     1     -31.029   0.076  17.464  1.00  0.00     0.044 C 
BRANCH  23  24
HETATM   24  C5  UNL     1     -30.319  -0.200  18.489  1.00  0.00    -0.028 A 
HETATM   25  C4  UNL     1     -29.760   0.932  19.151  1.00  0.00     0.013 A 
HETATM   26  C3  UNL     1     -28.971   0.879  20.256  1.00  0.00     0.012 A 
HETATM   27  C2  UNL     1     -28.681  -0.341  20.784  1.00  0.00    -0.039 A 
HETATM   28  C1  UNL     1     -27.913  -0.353  21.862  1.00  0.00     0.024 C 
HETATM   29  C23 UNL     1     -29.161  -1.479  20.233  1.00  0.00    -0.046 A 
HETATM   30  C21 UNL     1     -29.972  -1.376  19.096  1.00  0.00    -0.045 A 
HETATM   31  C24 UNL     1     -28.838  -2.815  20.777  1.00  0.00     0.049 C 
HETATM   32  C22 UNL     1     -30.526  -2.645  18.597  1.00  0.00     0.049 C 
ENDBRANCH  23  24
ENDBRANCH   1  23
TORSDOF 9
ENDMDL
MODEL 3
REMARK VINA RESULT: -7.345149383      2.258      5.184
REMARK  9 active torsions:
REMARK  status: ('A' for Active; 'I' for Inactive)
REMARK    1  A    between atoms: C5_5  and  C6_6 
REMARK    2  A    between atoms: C6_6  and  C7_7 
REMARK    3  A    between atoms: C10_12  and  C11_13 
REMARK    4  A    between atoms: C11_13  and  C12_14 
REMARK    5  A    between atoms: C12_14  and  N2_15 
REMARK    6  A    between atoms: N2_15  and  C13_17 
REMARK    7  A    between atoms: C13_17  and  C14_18 
REMARK    8  A    between atoms: C14_18  and  N3_19 
REMARK    9  A    between atoms: N3_19  and  C16_21 
ROOT
HETATM    1  C7  UNL     1     -31.063  -0.901  16.859  1.00  0.00     0.063 A 
HETATM    2  C8  UNL     1     -29.860  -0.468  17.390  1.00  0.00     0.075 A 
HETATM    3  N1  UNL     1     -28.881   0.436  17.196  1.00  0.00    -0.354 N 
ATOM      4  H1  UNL     1     -28.869   1.104  16.425  1.00  0.00     0.166 HD
HETATM    5  C9  UNL     1     -27.926   0.357  18.130  1.00  0.00     0.029 A 
HETATM    6  C10 UNL     1     -26.834   1.099  18.214  1.00  0.00     0.004 C 
HETATM    7  C18 UNL     1     -28.307  -0.650  18.971  1.00  0.00     0.048 A 
HETATM    8  C19 UNL     1     -29.528  -1.158  18.487  1.00  0.00     0.063 A 
HETATM    9  C20 UNL     1     -30.539  -2.119  18.742  1.00  0.00     0.258 A 
HETATM   10  O1  UNL     1     -30.633  -2.965  19.653  1.00  0.00    -0.267 OA
HETATM   11  N4  UNL     1     -31.516  -1.944  17.693  1.00  0.00    -0.321 N 
ATOM     12  H4  UNL     1     -32.377  -2.478  17.576  1.00  0.00     0.169 HD
ENDROOT
BRANCH   6  13
HETATM   13  C11 UNL     1     -26.524   2.147  17.241  1.00  0.00     0.048 C 
BRANCH  13  14
HETATM   14  C12 UNL     1     -25.225   1.793  16.571  1.00  0.00     0.118 C 
BRANCH  14  15
HETATM   15  N2  UNL     1     -25.281   2.153  15.187  1.00  0.00    -0.417 N 
ATOM     16  H2  UNL     1     -26.070   2.656  14.783  1.00  0.00     0.153 HD
BRANCH  15  17
HETATM   17  C13 UNL     1     -24.141   1.752  14.413  1.00  0.00     0.158 C 
BRANCH  17  18
HETATM   18  C14 UNL     1     -22.919   1.739  15.305  1.00  0.00     0.076 C 
BRANCH  18  19
HETATM   19  N3  UNL     1     -21.812   1.209  14.636  1.00  0.00    -0.396 N 
HETATM   20  C15 UNL     1     -21.844   0.948  13.259  1.00  0.00     0.148 C 
BRANCH  19  21
HETATM   21  C16 UNL     1     -20.625   0.944  15.358  1.00  0.00     0.117 C 
HETATM   22  C17 UNL     1     -20.466   1.673  16.657  1.00  0.00     0.026 C 
ENDBRANCH  19  21
ENDBRANCH  18  19
ENDBRANCH  17  18
ENDBRANCH  15  17
ENDBRANCH  14  15
ENDBRANCH  13  14
ENDBRANCH   6  13
BRANCH   1  23
HETATM   23  C6  UNL     1     -31.583  -0.265  15.701  1.00  0.00     0.044 C 
BRANCH  23  24
HETATM   24  C5  UNL     1     -31.576  -0.187  14.427  1.00  0.00    -0.028 A 
HETATM   25  C4  UNL     1     -32.606  -0.929  13.777  1.00  0.00     0.013 A 
HETATM   26  C3  UNL     1     -32.790  -0.996  12.433  1.00  0.00     0.012 A 
HETATM   27  C2  UNL     1     -31.932  -0.311  11.629  1.00  0.00    -0.039 A 
HETATM   28  C1  UNL     1     -32.145  -0.398  10.325  1.00  0.00     0.024 C 
HETATM   29  C23 UNL     1     -30.920   0.424  12.143  1.00  0.00    -0.046 A 
HETATM   30  C21 UNL     1     -30.771   0.466  13.535  1.00  0.00    -0.045 A 
HETATM   31  C24 UNL     1     -29.965   1.156  11.286  1.00  0.00     0.049 C 
HETATM   32  C22 UNL     1     -29.701   1.349  14.029  1.00  0.00     0.049 C 
ENDBRANCH  23  24
ENDBRANCH   1  23
TORSDOF 9
ENDMDL
MODEL 4
REMARK VINA RESULT: -7.291594467      1.630      2.370
REMARK  9 active torsions:
REMARK  status: ('A' for Active; 'I' for Inactive)
REMARK    1  A    between atoms: C5_5  and  C6_6 
REMARK    2  A    between atoms: C6_6  and  C7_7 
REMARK    3  A    between atoms: C10_12  and  C11_13 
REMARK    4  A    between atoms: C11_13  and  C12_14 
REMARK    5  A    between atoms: C12_14  and  N2_15 
REMARK    6  A    between atoms: N2_15  and  C13_17 
REMARK    7  A    between atoms: C13_17  and  C14_18 
REMARK    8  A    between atoms: C14_18  and  N3_19 
REMARK    9  A    between atoms: N3_19  and  C16_21 
ROOT
HETATM    1  C7  UNL     1     -28.923   0.040  16.418  1.00  0.00     0.063 A 
HETATM    2  C8  UNL     1     -28.082   0.558  15.448  1.00  0.00     0.075 A 
HETATM    3  N1  UNL     1     -26.788   0.844  15.212  1.00  0.00    -0.354 N 
ATOM      4  H1  UNL     1     -26.039   0.694  15.889  1.00  0.00     0.166 HD
HETATM    5  C9  UNL     1     -26.596   1.348  13.987  1.00  0.00     0.029 A 
HETATM    6  C10 UNL     1     -25.446   1.733  13.458  1.00  0.00     0.004 C 
HETATM    7  C18 UNL     1     -27.829   1.390  13.401  1.00  0.00     0.048 A 
HETATM    8  C19 UNL     1     -28.752   0.887  14.338  1.00  0.00     0.063 A 
HETATM    9  C20 UNL     1     -30.126   0.592  14.532  1.00  0.00     0.258 A 
HETATM   10  O1  UNL     1     -31.097   0.739  13.765  1.00  0.00    -0.267 OA
HETATM   11  N4  UNL     1     -30.221   0.049  15.868  1.00  0.00    -0.321 N 
ATOM     12  H4  UNL     1     -31.074  -0.270  16.329  1.00  0.00     0.169 HD
ENDROOT
BRANCH   6  13
HETATM   13  C11 UNL     1     -24.182   1.652  14.191  1.00  0.00     0.048 C 
BRANCH  13  14
HETATM   14  C12 UNL     1     -23.085   2.146  13.287  1.00  0.00     0.118 C 
BRANCH  14  15
HETATM   15  N2  UNL     1     -22.103   1.121  13.114  1.00  0.00    -0.417 N 
ATOM     16  H2  UNL     1     -21.711   0.884  12.202  1.00  0.00     0.153 HD
BRANCH  15  17
HETATM   17  C13 UNL     1     -21.710   0.450  14.321  1.00  0.00     0.158 C 
BRANCH  17  18
HETATM   18  C14 UNL     1     -20.367   0.985  14.765  1.00  0.00     0.076 C 
BRANCH  18  19
HETATM   19  N3  UNL     1     -20.378   1.308  16.126  1.00  0.00    -0.396 N 
HETATM   20  C15 UNL     1     -21.276   2.249  16.648  1.00  0.00     0.148 C 
BRANCH  19  21
HETATM   21  C16 UNL     1     -19.476   0.661  17.002  1.00  0.00     0.117 C 
HETATM   22  C17 UNL     1     -19.559   1.056  18.445  1.00  0.00     0.026 C 
ENDBRANCH  19  21
ENDBRANCH  18  19
ENDBRANCH  17  18
ENDBRANCH  15  17
ENDBRANCH  14  15
ENDBRANCH  13  14
ENDBRANCH   6  13
BRANCH   1  23
HETATM   23  C6  UNL     1     -28.378  -0.386  17.658  1.00  0.00     0.044 C 
BRANCH  23  24
HETATM   24  C5  UNL     1     -28.165  -0.109  18.886  1.00  0.00    -0.028 A 
HETATM   25  C4  UNL     1     -28.592  -1.111  19.807  1.00  0.00     0.013 A 
HETATM   26  C3  UNL     1     -28.471  -1.031  21.158  1.00  0.00     0.012 A 
HETATM   27  C2  UNL     1     -27.903   0.085  21.691  1.00  0.00    -0.039 A 
HETATM   28  C1  UNL     1     -27.799   0.125  23.010  1.00  0.00     0.024 C 
HETATM   29  C23 UNL     1     -27.463   1.094  20.905  1.00  0.00    -0.046 A 
HETATM   30  C21 UNL     1     -27.607   0.967  19.518  1.00  0.00    -0.045 A 
HETATM   31  C24 UNL     1     -26.864   2.324  21.466  1.00  0.00     0.049 C 
HETATM   32  C22 UNL     1     -27.034   2.065  18.721  1.00  0.00     0.049 C 
ENDBRANCH  23  24
ENDBRANCH   1  23
TORSDOF 9
ENDMDL
MODEL 5
REMARK VINA RESULT: -7.133701948      2.375      5.380
REMARK  9 active torsions:
REMARK  status: ('A' for Active; 'I' for Inactive)
REMARK    1  A    between atoms: C5_5  and  C6_6 
REMARK    2  A    between atoms: C6_6  and  C7_7 
REMARK    3  A    between atoms: C10_12  and  C11_13 
REMARK    4  A    between atoms: C11_13  and  C12_14 
REMARK    5  A    between atoms: C12_14  and  N2_15 
REMARK    6  A    between atoms: N2_15  and  C13_17 
REMARK    7  A    between atoms: C13_17  and  C14_18 
REMARK    8  A    between atoms: C14_18  and  N3_19 
REMARK    9  A    between atoms: N3_19  and  C16_21 
ROOT
HETATM    1  C7  UNL     1     -31.152  -0.864  17.003  1.00  0.00     0.063 A 
HETATM    2  C8  UNL     1     -29.910  -0.469  17.473  1.00  0.00     0.075 A 
HETATM    3  N1  UNL     1     -28.935   0.433  17.256  1.00  0.00    -0.354 N 
ATOM      4  H1  UNL     1     -28.964   1.136  16.519  1.00  0.00     0.166 HD
HETATM    5  C9  UNL     1     -27.922   0.300  18.121  1.00  0.00     0.029 A 
HETATM    6  C10 UNL     1     -26.817   1.026  18.167  1.00  0.00     0.004 C 
HETATM    7  C18 UNL     1     -28.260  -0.741  18.938  1.00  0.00     0.048 A 
HETATM    8  C19 UNL     1     -29.517  -1.213  18.513  1.00  0.00     0.063 A 
HETATM    9  C20 UNL     1     -30.521  -2.175  18.790  1.00  0.00     0.258 A 
HETATM   10  O1  UNL     1     -30.567  -3.061  19.665  1.00  0.00    -0.267 OA
HETATM   11  N4  UNL     1     -31.563  -1.941  17.816  1.00  0.00    -0.321 N 
ATOM     12  H4  UNL     1     -32.437  -2.460  17.732  1.00  0.00     0.169 HD
ENDROOT
BRANCH   6  13
HETATM   13  C11 UNL     1     -26.558   2.116  17.225  1.00  0.00     0.048 C 
BRANCH  13  14
HETATM   14  C12 UNL     1     -25.222   1.868  16.580  1.00  0.00     0.118 C 
BRANCH  14  15
HETATM   15  N2  UNL     1     -25.308   2.124  15.175  1.00  0.00    -0.417 N 
ATOM     16  H2  UNL     1     -26.122   2.565  14.747  1.00  0.00     0.153 HD
BRANCH  15  17
HETATM   17  C13 UNL     1     -24.162   1.714  14.415  1.00  0.00     0.158 C 
BRANCH  17  18
HETATM   18  C14 UNL     1     -22.943   1.741  15.310  1.00  0.00     0.076 C 
BRANCH  18  19
HETATM   19  N3  UNL     1     -21.827   1.207  14.657  1.00  0.00    -0.396 N 
HETATM   20  C15 UNL     1     -21.831   0.966  13.277  1.00  0.00     0.148 C 
BRANCH  19  21
HETATM   21  C16 UNL     1     -20.661   0.915  15.401  1.00  0.00     0.117 C 
HETATM   22  C17 UNL     1     -20.471   1.697  16.666  1.00  0.00     0.026 C 
ENDBRANCH  19  21
ENDBRANCH  18  19
ENDBRANCH  17  18
ENDBRANCH  15  17
ENDBRANCH  14  15
ENDBRANCH  13  14
ENDBRANCH   6  13
BRANCH   1  23
HETATM   23  C6  UNL     1     -31.738  -0.170  15.912  1.00  0.00     0.044 C 
BRANCH  23  24
HETATM   24  C5  UNL     1     -31.956  -0.138  14.655  1.00  0.00    -0.028 A 
HETATM   25  C4  UNL     1     -30.783  -0.133  13.844  1.00  0.00     0.013 A 
HETATM   26  C3  UNL     1     -30.773  -0.098  12.486  1.00  0.00     0.012 A 
HETATM   27  C2  UNL     1     -31.966  -0.063  11.833  1.00  0.00    -0.039 A 
HETATM   28  C1  UNL     1     -31.916  -0.034  10.510  1.00  0.00     0.024 C 
HETATM   29  C23 UNL     1     -33.138  -0.065  12.507  1.00  0.00    -0.046 A 
HETATM   30  C21 UNL     1     -33.100  -0.104  13.906  1.00  0.00    -0.045 A 
HETATM   31  C24 UNL     1     -34.443  -0.004  11.816  1.00  0.00     0.049 C 
HETATM   32  C22 UNL     1     -34.410  -0.186  14.572  1.00  0.00     0.049 C 
ENDBRANCH  23  24
ENDBRANCH   1  23
TORSDOF 9
ENDMDL
