MODEL 1
REMARK VINA RESULT: -8.236341776      0.000      0.000
REMARK  10 active torsions:
REMARK  status: ('A' for Active; 'I' for Inactive)
REMARK    1  A    between atoms: C3_3  and  N1_4 
REMARK    2  A    between atoms: N1_4  and  C4_5 
REMARK    3  A    between atoms: N1_4  and  N7_30 
REMARK    4  A    between atoms: C4_5  and  C5_6 
REMARK    5  A    between atoms: C6_7  and  C7_8 
REMARK    6  A    between atoms: C10_11  and  C11_12 
REMARK    7  A    between atoms: N2_13  and  N3_15 
REMARK    8  A    between atoms: C14_26  and  C15_27 
REMARK    9  A    between atoms: C15_27  and  O1_28 
REMARK   10  A    between atoms: N7_30  and  C16_31 
ROOT
HETATM    1  C1  UNL     1     -26.580   0.837  21.622  1.00  0.00     0.014 C 
HETATM    2  C2  UNL     1     -27.616   1.010  21.077  1.00  0.00    -0.096 C 
HETATM    3  C3  UNL     1     -28.907   1.202  20.360  1.00  0.00     0.248 C 
ENDROOT
BRANCH   3   4
HETATM    4  N1  UNL     1     -28.831   0.665  19.050  1.00  0.00    -0.201 N 
BRANCH   4   5
HETATM    5  C4  UNL     1     -28.691   1.539  17.999  1.00  0.00     0.182 C 
BRANCH   5   6
HETATM    6  C5  UNL     1     -27.404   1.601  17.383  1.00  0.00    -0.054 C 
HETATM    7  C6  UNL     1     -26.365   1.699  16.768  1.00  0.00    -0.060 C 
BRANCH   7   8
HETATM    8  C7  UNL     1     -25.254   1.848  15.806  1.00  0.00     0.027 A 
HETATM    9  C8  UNL     1     -24.005   1.941  16.218  1.00  0.00     0.037 A 
HETATM   10  C9  UNL     1     -22.991   1.823  15.247  1.00  0.00     0.023 A 
HETATM   11  C10 UNL     1     -21.650   1.771  15.462  1.00  0.00     0.077 A 
HETATM   12  C12 UNL     1     -23.301   1.616  13.927  1.00  0.00     0.061 A 
HETATM   13  N5  UNL     1     -21.094   1.494  14.227  1.00  0.00    -0.298 N 
HETATM   14  N6  UNL     1     -22.079   1.410  13.313  1.00  0.00    -0.299 N 
ATOM     15  H5  UNL     1     -20.099   1.374  14.039  1.00  0.00     0.187 HD
ATOM     16  H6  UNL     1     -21.944   1.223  12.320  1.00  0.00     0.187 HD
HETATM   17  C13 UNL     1     -24.598   1.522  13.469  1.00  0.00     0.042 A 
HETATM   18  C14 UNL     1     -25.551   1.642  14.448  1.00  0.00    -0.014 A 
BRANCH  11  19
HETATM   19  C11 UNL     1     -20.846   2.328  16.568  1.00  0.00     0.140 C 
HETATM   20  N2  UNL     1     -19.969   2.026  17.275  1.00  0.00    -0.296 N 
ATOM     21  H2  UNL     1     -19.784   2.818  17.890  1.00  0.00     0.187 HD
BRANCH  20  22
HETATM   22  N3  UNL     1     -19.114   1.060  17.595  1.00  0.00    -0.250 N 
HETATM   23  N4  UNL     1     -18.633   0.153  16.861  1.00  0.00    -0.331 N 
ATOM     24  H42 UNL     1     -18.955   0.180  15.893  1.00  0.00     0.178 HD
ATOM     25  H41 UNL     1     -17.978  -0.588  17.107  1.00  0.00     0.178 HD
ATOM     26  H3  UNL     1     -18.805   1.051  18.568  1.00  0.00     0.207 HD
ENDBRANCH  20  22
ENDBRANCH  11  19
BRANCH  18  27
HETATM   27  C15 UNL     1     -27.013   1.571  14.189  1.00  0.00     0.204 C 
BRANCH  27  28
HETATM   28  O1  UNL     1     -27.319   0.265  13.634  1.00  0.00    -0.396 OA
ATOM     29  H1  UNL     1     -27.297  -0.374  14.337  1.00  0.00     0.209 HD
ENDBRANCH  27  28
ENDBRANCH  18  27
ENDBRANCH   7   8
ENDBRANCH   5   6
ENDBRANCH   4   5
BRANCH   4  30
HETATM   30  N7  UNL     1     -29.547  -0.494  18.743  1.00  0.00     0.015 N 
HETATM   31  C18 UNL     1     -28.516  -1.531  18.493  1.00  0.00     0.265 C 
HETATM   32  C19 UNL     1     -28.860  -2.732  19.313  1.00  0.00     0.032 C 
HETATM   33  C20 UNL     1     -29.496  -2.063  20.526  1.00  0.00     0.032 C 
HETATM   34  C21 UNL     1     -30.358  -1.025  19.780  1.00  0.00     0.265 C 
BRANCH  30  35
HETATM   35  C16 UNL     1     -30.287  -0.363  17.504  1.00  0.00     0.261 C 
HETATM   36  C17 UNL     1     -31.564  -1.185  17.448  1.00  0.00     0.037 C 
ENDBRANCH  30  35
ENDBRANCH   4  30
ENDBRANCH   3   4
TORSDOF 10
ENDMDL
MODEL 2
REMARK VINA RESULT: -8.100101370      0.875      1.167
REMARK  10 active torsions:
REMARK  status: ('A' for Active; 'I' for Inactive)
REMARK    1  A    between atoms: C3_3  and  N1_4 
REMARK    2  A    between atoms: N1_4  and  C4_5 
REMARK    3  A    between atoms: N1_4  and  N7_30 
REMARK    4  A    between atoms: C4_5  and  C5_6 
REMARK    5  A    between atoms: C6_7  and  C7_8 
REMARK    6  A    between atoms: C10_11  and  C11_12 
REMARK    7  A    between atoms: N2_13  and  N3_15 
REMARK    8  A    between atoms: C14_26  and  C15_27 
REMARK    9  A    between atoms: C15_27  and  O1_28 
REMARK   10  A    between atoms: N7_30  and  C16_31 
ROOT
HETATM    1  C1  UNL     1     -27.123   3.116  21.621  1.00  0.00     0.014 C 
HETATM    2  C2  UNL     1     -27.065   2.014  21.192  1.00  0.00    -0.096 C 
HETATM    3  C3  UNL     1     -27.014   0.641  20.619  1.00  0.00     0.248 C 
ENDROOT
BRANCH   3   4
HETATM    4  N1  UNL     1     -27.922   0.521  19.538  1.00  0.00    -0.201 N 
BRANCH   4   5
HETATM    5  C4  UNL     1     -28.000   1.557  18.640  1.00  0.00     0.182 C 
BRANCH   5   6
HETATM    6  C5  UNL     1     -27.113   1.505  17.522  1.00  0.00    -0.054 C 
HETATM    7  C6  UNL     1     -26.280   1.511  16.641  1.00  0.00    -0.060 C 
BRANCH   7   8
HETATM    8  C7  UNL     1     -25.139   1.693  15.720  1.00  0.00     0.027 A 
HETATM    9  C8  UNL     1     -23.911   1.836  16.178  1.00  0.00     0.037 A 
HETATM   10  C9  UNL     1     -22.858   1.748  15.246  1.00  0.00     0.023 A 
HETATM   11  C10 UNL     1     -21.525   1.747  15.512  1.00  0.00     0.077 A 
HETATM   12  C12 UNL     1     -23.110   1.521  13.917  1.00  0.00     0.061 A 
HETATM   13  N5  UNL     1     -20.913   1.482  14.300  1.00  0.00    -0.298 N 
HETATM   14  N6  UNL     1     -21.860   1.355  13.351  1.00  0.00    -0.299 N 
ATOM     15  H5  UNL     1     -19.908   1.397  14.150  1.00  0.00     0.187 HD
ATOM     16  H6  UNL     1     -21.681   1.166  12.365  1.00  0.00     0.187 HD
HETATM   17  C13 UNL     1     -24.385   1.375  13.413  1.00  0.00     0.042 A 
HETATM   18  C14 UNL     1     -25.378   1.467  14.354  1.00  0.00    -0.014 A 
BRANCH  11  19
HETATM   19  C11 UNL     1     -20.784   2.341  16.642  1.00  0.00     0.140 C 
HETATM   20  N2  UNL     1     -19.903   2.089  17.364  1.00  0.00    -0.296 N 
ATOM     21  H2  UNL     1     -19.786   2.882  17.993  1.00  0.00     0.187 HD
BRANCH  20  22
HETATM   22  N3  UNL     1     -18.992   1.179  17.691  1.00  0.00    -0.250 N 
HETATM   23  N4  UNL     1     -18.486   0.272  16.972  1.00  0.00    -0.331 N 
ATOM     24  H42 UNL     1     -18.834   0.250  16.014  1.00  0.00     0.178 HD
ATOM     25  H41 UNL     1     -17.787  -0.426  17.223  1.00  0.00     0.178 HD
ATOM     26  H3  UNL     1     -18.656   1.217  18.653  1.00  0.00     0.207 HD
ENDBRANCH  20  22
ENDBRANCH  11  19
BRANCH  18  27
HETATM   27  C15 UNL     1     -26.825   1.340  14.041  1.00  0.00     0.204 C 
BRANCH  27  28
HETATM   28  O1  UNL     1     -27.078  -0.009  13.570  1.00  0.00    -0.396 OA
ATOM     29  H1  UNL     1     -26.967  -0.609  14.298  1.00  0.00     0.209 HD
ENDBRANCH  27  28
ENDBRANCH  18  27
ENDBRANCH   7   8
ENDBRANCH   5   6
ENDBRANCH   4   5
BRANCH   4  30
HETATM   30  N7  UNL     1     -29.121  -0.169  19.725  1.00  0.00     0.015 N 
HETATM   31  C18 UNL     1     -29.282  -1.004  18.509  1.00  0.00     0.265 C 
HETATM   32  C19 UNL     1     -29.563  -2.406  18.944  1.00  0.00     0.032 C 
HETATM   33  C20 UNL     1     -28.753  -2.460  20.234  1.00  0.00     0.032 C 
HETATM   34  C21 UNL     1     -29.156  -1.088  20.807  1.00  0.00     0.265 C 
BRANCH  30  35
HETATM   35  C16 UNL     1     -30.263   0.722  19.748  1.00  0.00     0.261 C 
HETATM   36  C17 UNL     1     -31.323   0.356  20.773  1.00  0.00     0.037 C 
ENDBRANCH  30  35
ENDBRANCH   4  30
ENDBRANCH   3   4
TORSDOF 10
ENDMDL
MODEL 3
REMARK VINA RESULT: -8.089037065      1.027      2.198
REMARK  10 active torsions:
REMARK  status: ('A' for Active; 'I' for Inactive)
REMARK    1  A    between atoms: C3_3  and  N1_4 
REMARK    2  A    between atoms: N1_4  and  C4_5 
REMARK    3  A    between atoms: N1_4  and  N7_30 
REMARK    4  A    between atoms: C4_5  and  C5_6 
REMARK    5  A    between atoms: C6_7  and  C7_8 
REMARK    6  A    between atoms: C10_11  and  C11_12 
REMARK    7  A    between atoms: N2_13  and  N3_15 
REMARK    8  A    between atoms: C14_26  and  C15_27 
REMARK    9  A    between atoms: C15_27  and  O1_28 
REMARK   10  A    between atoms: N7_30  and  C16_31 
ROOT
HETATM    1  C1  UNL     1     -28.838  -2.829  19.224  1.00  0.00     0.014 C 
HETATM    2  C2  UNL     1     -28.936  -1.668  19.432  1.00  0.00    -0.096 C 
HETATM    3  C3  UNL     1     -29.070  -0.202  19.653  1.00  0.00     0.248 C 
ENDROOT
BRANCH   3   4
HETATM    4  N1  UNL     1     -29.217   0.475  18.415  1.00  0.00    -0.201 N 
BRANCH   4   5
HETATM    5  C4  UNL     1     -28.469   1.608  18.205  1.00  0.00     0.182 C 
BRANCH   5   6
HETATM    6  C5  UNL     1     -27.315   1.470  17.375  1.00  0.00    -0.054 C 
HETATM    7  C6  UNL     1     -26.338   1.468  16.657  1.00  0.00    -0.060 C 
BRANCH   7   8
HETATM    8  C7  UNL     1     -25.227   1.708  15.714  1.00  0.00     0.027 A 
HETATM    9  C8  UNL     1     -23.987   1.840  16.144  1.00  0.00     0.037 A 
HETATM   10  C9  UNL     1     -22.961   1.810  15.178  1.00  0.00     0.023 A 
HETATM   11  C10 UNL     1     -21.621   1.810  15.405  1.00  0.00     0.077 A 
HETATM   12  C12 UNL     1     -23.250   1.648  13.848  1.00  0.00     0.061 A 
HETATM   13  N5  UNL     1     -21.042   1.612  14.165  1.00  0.00    -0.298 N 
HETATM   14  N6  UNL     1     -22.015   1.524  13.238  1.00  0.00    -0.299 N 
ATOM     15  H5  UNL     1     -20.041   1.546  13.982  1.00  0.00     0.187 HD
ATOM     16  H6  UNL     1     -21.864   1.386  12.239  1.00  0.00     0.187 HD
HETATM   17  C13 UNL     1     -24.537   1.514  13.373  1.00  0.00     0.042 A 
HETATM   18  C14 UNL     1     -25.503   1.549  14.345  1.00  0.00    -0.014 A 
BRANCH  11  19
HETATM   19  C11 UNL     1     -20.853   2.353  16.542  1.00  0.00     0.140 C 
HETATM   20  N2  UNL     1     -19.972   2.059  17.248  1.00  0.00    -0.296 N 
ATOM     21  H2  UNL     1     -19.826   2.832  17.897  1.00  0.00     0.187 HD
BRANCH  20  22
HETATM   22  N3  UNL     1     -19.084   1.115  17.542  1.00  0.00    -0.250 N 
HETATM   23  N4  UNL     1     -18.678   0.159  16.825  1.00  0.00    -0.331 N 
ATOM     24  H42 UNL     1     -19.100   0.120  15.897  1.00  0.00     0.178 HD
ATOM     25  H41 UNL     1     -17.997  -0.566  17.051  1.00  0.00     0.178 HD
ATOM     26  H3  UNL     1     -18.674   1.171  18.475  1.00  0.00     0.207 HD
ENDBRANCH  20  22
ENDBRANCH  11  19
BRANCH  18  27
HETATM   27  C15 UNL     1     -26.958   1.423  14.069  1.00  0.00     0.204 C 
BRANCH  27  28
HETATM   28  O1  UNL     1     -27.206   0.114  13.491  1.00  0.00    -0.396 OA
ATOM     29  H1  UNL     1     -26.563  -0.494  13.836  1.00  0.00     0.209 HD
ENDBRANCH  27  28
ENDBRANCH  18  27
ENDBRANCH   7   8
ENDBRANCH   5   6
ENDBRANCH   4   5
BRANCH   4  30
HETATM   30  N7  UNL     1     -30.461   0.481  17.782  1.00  0.00     0.015 N 
HETATM   31  C18 UNL     1     -30.477   1.723  16.971  1.00  0.00     0.265 C 
HETATM   32  C19 UNL     1     -30.884   1.362  15.580  1.00  0.00     0.032 C 
HETATM   33  C20 UNL     1     -30.278  -0.033  15.469  1.00  0.00     0.032 C 
HETATM   34  C21 UNL     1     -30.698  -0.566  16.853  1.00  0.00     0.265 C 
BRANCH  30  35
HETATM   35  C16 UNL     1     -31.551   0.609  18.728  1.00  0.00     0.261 C 
HETATM   36  C17 UNL     1     -32.746  -0.282  18.432  1.00  0.00     0.037 C 
ENDBRANCH  30  35
ENDBRANCH   4  30
ENDBRANCH   3   4
TORSDOF 10
ENDMDL
MODEL 4
REMARK VINA RESULT: -8.086634497      1.035      2.184
REMARK  10 active torsions:
REMARK  status: ('A' for Active; 'I' for Inactive)
REMARK    1  A    between atoms: C3_3  and  N1_4 
REMARK    2  A    between atoms: N1_4  and  C4_5 
REMARK    3  A    between atoms: N1_4  and  N7_30 
REMARK    4  A    between atoms: C4_5  and  C5_6 
REMARK    5  A    between atoms: C6_7  and  C7_8 
REMARK    6  A    between atoms: C10_11  and  C11_12 
REMARK    7  A    between atoms: N2_13  and  N3_15 
REMARK    8  A    between atoms: C14_26  and  C15_27 
REMARK    9  A    between atoms: C15_27  and  O1_28 
REMARK   10  A    between atoms: N7_30  and  C16_31 
ROOT
HETATM    1  C1  UNL     1     -30.549   1.761  15.645  1.00  0.00     0.014 C 
HETATM    2  C2  UNL     1     -29.976   0.917  16.245  1.00  0.00    -0.096 C 
HETATM    3  C3  UNL     1     -29.265  -0.126  17.036  1.00  0.00     0.248 C 
ENDROOT
BRANCH   3   4
HETATM    4  N1  UNL     1     -29.097   0.298  18.378  1.00  0.00    -0.201 N 
BRANCH   4   5
HETATM    5  C4  UNL     1     -27.904   0.883  18.727  1.00  0.00     0.182 C 
BRANCH   5   6
HETATM    6  C5  UNL     1     -27.072   1.332  17.656  1.00  0.00    -0.054 C 
HETATM    7  C6  UNL     1     -26.300   1.621  16.767  1.00  0.00    -0.060 C 
BRANCH   7   8
HETATM    8  C7  UNL     1     -25.197   1.801  15.802  1.00  0.00     0.027 A 
HETATM    9  C8  UNL     1     -23.947   1.904  16.209  1.00  0.00     0.037 A 
HETATM   10  C9  UNL     1     -22.937   1.816  15.230  1.00  0.00     0.023 A 
HETATM   11  C10 UNL     1     -21.595   1.779  15.437  1.00  0.00     0.077 A 
HETATM   12  C12 UNL     1     -23.252   1.628  13.909  1.00  0.00     0.061 A 
HETATM   13  N5  UNL     1     -21.042   1.531  14.194  1.00  0.00    -0.298 N 
HETATM   14  N6  UNL     1     -22.031   1.449  13.284  1.00  0.00    -0.299 N 
ATOM     15  H5  UNL     1     -20.046   1.427  13.998  1.00  0.00     0.187 HD
ATOM     16  H6  UNL     1     -21.900   1.281  12.287  1.00  0.00     0.187 HD
HETATM   17  C13 UNL     1     -24.550   1.523  13.457  1.00  0.00     0.042 A 
HETATM   18  C14 UNL     1     -25.499   1.614  14.442  1.00  0.00    -0.014 A 
BRANCH  11  19
HETATM   19  C11 UNL     1     -20.792   2.327  16.548  1.00  0.00     0.140 C 
HETATM   20  N2  UNL     1     -19.943   2.006  17.281  1.00  0.00    -0.296 N 
ATOM     21  H2  UNL     1     -19.739   2.804  17.882  1.00  0.00     0.187 HD
BRANCH  20  22
HETATM   22  N3  UNL     1     -19.138   1.013  17.643  1.00  0.00    -0.250 N 
HETATM   23  N4  UNL     1     -18.535   0.178  16.914  1.00  0.00    -0.331 N 
ATOM     24  H42 UNL     1     -18.699   0.295  15.914  1.00  0.00     0.178 HD
ATOM     25  H41 UNL     1     -17.917  -0.584  17.191  1.00  0.00     0.178 HD
ATOM     26  H3  UNL     1     -18.987   0.912  18.647  1.00  0.00     0.207 HD
ENDBRANCH  20  22
ENDBRANCH  11  19
BRANCH  18  27
HETATM   27  C15 UNL     1     -26.961   1.528  14.191  1.00  0.00     0.204 C 
BRANCH  27  28
HETATM   28  O1  UNL     1     -27.253   0.229  13.611  1.00  0.00    -0.396 OA
ATOM     29  H1  UNL     1     -27.393   0.340  12.678  1.00  0.00     0.209 HD
ENDBRANCH  27  28
ENDBRANCH  18  27
ENDBRANCH   7   8
ENDBRANCH   5   6
ENDBRANCH   4   5
BRANCH   4  30
HETATM   30  N7  UNL     1     -29.705  -0.424  19.406  1.00  0.00     0.015 N 
HETATM   31  C18 UNL     1     -30.615  -1.377  18.723  1.00  0.00     0.265 C 
HETATM   32  C19 UNL     1     -30.350  -2.742  19.269  1.00  0.00     0.032 C 
HETATM   33  C20 UNL     1     -28.855  -2.638  19.553  1.00  0.00     0.032 C 
HETATM   34  C21 UNL     1     -28.849  -1.237  20.195  1.00  0.00     0.265 C 
BRANCH  30  35
HETATM   35  C16 UNL     1     -30.552   0.413  20.231  1.00  0.00     0.261 C 
HETATM   36  C17 UNL     1     -30.289   0.294  21.723  1.00  0.00     0.037 C 
ENDBRANCH  30  35
ENDBRANCH   4  30
ENDBRANCH   3   4
TORSDOF 10
ENDMDL
MODEL 5
REMARK VINA RESULT: -8.022324408      1.131      2.480
REMARK  10 active torsions:
REMARK  status: ('A' for Active; 'I' for Inactive)
REMARK    1  A    between atoms: C3_3  and  N1_4 
REMARK    2  A    between atoms: N1_4  and  C4_5 
REMARK    3  A    between atoms: N1_4  and  N7_30 
REMARK    4  A    between atoms: C4_5  and  C5_6 
REMARK    5  A    between atoms: C6_7  and  C7_8 
REMARK    6  A    between atoms: C10_11  and  C11_12 
REMARK    7  A    between atoms: N2_13  and  N3_15 
REMARK    8  A    between atoms: C14_26  and  C15_27 
REMARK    9  A    between atoms: C15_27  and  O1_28 
REMARK   10  A    between atoms: N7_30  and  C16_31 
ROOT
HETATM    1  C1  UNL     1     -30.818   1.634  15.126  1.00  0.00     0.014 C 
HETATM    2  C2  UNL     1     -30.111   0.865  15.682  1.00  0.00    -0.096 C 
HETATM    3  C3  UNL     1     -29.237  -0.090  16.418  1.00  0.00     0.248 C 
ENDROOT
BRANCH   3   4
HETATM    4  N1  UNL     1     -29.220   0.218  17.801  1.00  0.00    -0.201 N 
BRANCH   4   5
HETATM    5  C4  UNL     1     -28.128   0.884  18.303  1.00  0.00     0.182 C 
BRANCH   5   6
HETATM    6  C5  UNL     1     -27.179   1.368  17.351  1.00  0.00    -0.054 C 
HETATM    7  C6  UNL     1     -26.329   1.672  16.542  1.00  0.00    -0.060 C 
BRANCH   7   8
HETATM    8  C7  UNL     1     -25.175   1.818  15.632  1.00  0.00     0.027 A 
HETATM    9  C8  UNL     1     -23.947   1.914  16.101  1.00  0.00     0.037 A 
HETATM   10  C9  UNL     1     -22.889   1.794  15.177  1.00  0.00     0.023 A 
HETATM   11  C10 UNL     1     -21.560   1.743  15.454  1.00  0.00     0.077 A 
HETATM   12  C12 UNL     1     -23.138   1.583  13.845  1.00  0.00     0.061 A 
HETATM   13  N5  UNL     1     -20.947   1.463  14.246  1.00  0.00    -0.298 N 
HETATM   14  N6  UNL     1     -21.890   1.376  13.288  1.00  0.00    -0.299 N 
ATOM     15  H5  UNL     1     -19.945   1.343  14.104  1.00  0.00     0.187 HD
ATOM     16  H6  UNL     1     -21.709   1.186  12.303  1.00  0.00     0.187 HD
HETATM   17  C13 UNL     1     -24.413   1.486  13.329  1.00  0.00     0.042 A 
HETATM   18  C14 UNL     1     -25.410   1.608  14.262  1.00  0.00    -0.014 A 
BRANCH  11  19
HETATM   19  C11 UNL     1     -20.808   2.304  16.594  1.00  0.00     0.140 C 
HETATM   20  N2  UNL     1     -19.956   2.009  17.333  1.00  0.00    -0.296 N 
ATOM     21  H2  UNL     1     -19.805   2.800  17.960  1.00  0.00     0.187 HD
BRANCH  20  22
HETATM   22  N3  UNL     1     -19.103   1.052  17.683  1.00  0.00    -0.250 N 
HETATM   23  N4  UNL     1     -18.465   0.251  16.945  1.00  0.00    -0.331 N 
ATOM     24  H42 UNL     1     -18.641   0.368  15.946  1.00  0.00     0.178 HD
ATOM     25  H41 UNL     1     -17.811  -0.483  17.213  1.00  0.00     0.178 HD
ATOM     26  H3  UNL     1     -18.940   0.951  18.686  1.00  0.00     0.207 HD
ENDBRANCH  20  22
ENDBRANCH  11  19
BRANCH  18  27
HETATM   27  C15 UNL     1     -26.858   1.535  13.937  1.00  0.00     0.204 C 
BRANCH  27  28
HETATM   28  O1  UNL     1     -27.175   0.173  13.547  1.00  0.00    -0.396 OA
ATOM     29  H1  UNL     1     -26.586  -0.085  12.849  1.00  0.00     0.209 HD
ENDBRANCH  27  28
ENDBRANCH  18  27
ENDBRANCH   7   8
ENDBRANCH   5   6
ENDBRANCH   4   5
BRANCH   4  30
HETATM   30  N7  UNL     1     -29.824  -0.658  18.705  1.00  0.00     0.015 N 
HETATM   31  C18 UNL     1     -30.559   0.213  19.656  1.00  0.00     0.265 C 
HETATM   32  C19 UNL     1     -31.960  -0.295  19.760  1.00  0.00     0.032 C 
HETATM   33  C20 UNL     1     -32.167  -0.822  18.344  1.00  0.00     0.032 C 
HETATM   34  C21 UNL     1     -30.809  -1.530  18.171  1.00  0.00     0.265 C 
BRANCH  30  35
HETATM   35  C16 UNL     1     -28.849  -1.379  19.498  1.00  0.00     0.261 C 
HETATM   36  C17 UNL     1     -28.860  -2.884  19.288  1.00  0.00     0.037 C 
ENDBRANCH  30  35
ENDBRANCH   4  30
ENDBRANCH   3   4
TORSDOF 10
ENDMDL
