MODEL 1
REMARK VINA RESULT: -6.762791630      0.000      0.000
REMARK  10 active torsions:
REMARK  status: ('A' for Active; 'I' for Inactive)
REMARK    1  A    between atoms: C2_2  and  C3_3 
REMARK    2  A    between atoms: C3_3  and  C4_4 
REMARK    3  A    between atoms: C4_4  and  C5_5 
REMARK    4  A    between atoms: C5_5  and  N1_6 
REMARK    5  A    between atoms: N2_9  and  C8_10 
REMARK    6  A    between atoms: C8_10  and  C9_11 
REMARK    7  A    between atoms: C10_12  and  C11_13 
REMARK    8  A    between atoms: C11_13  and  C12_14 
REMARK    9  A    between atoms: C12_14  and  N3_15 
REMARK   10  A    between atoms: C18_23  and  N5_24 
ROOT
HETATM    1  N1  UNL     1     -24.433   1.907  14.609  1.00  0.00    -0.362 N 
HETATM    2  C6  UNL     1     -25.521   1.401  15.203  1.00  0.00     0.107 A 
HETATM    3  C7  UNL     1     -26.743   1.486  14.568  1.00  0.00     0.110 A 
HETATM    4  N2  UNL     1     -26.794   2.076  13.370  1.00  0.00    -0.335 N 
HETATM    5  C19 UNL     1     -25.689   2.587  12.773  1.00  0.00     0.132 A 
HETATM    6  C20 UNL     1     -25.849   3.201  11.487  1.00  0.00     0.119 C 
HETATM    7  N6  UNL     1     -25.973   3.689  10.445  1.00  0.00    -0.190 NA
HETATM    8  C21 UNL     1     -24.468   2.504  13.404  1.00  0.00     0.131 A 
ENDROOT
BRANCH   4   9
HETATM    9  C8  UNL     1     -28.077   2.165  12.704  1.00  0.00     0.223 C 
BRANCH   9  10
HETATM   10  C9  UNL     1     -29.020   1.375  13.519  1.00  0.00    -0.086 C 
HETATM   11  C10 UNL     1     -29.804   0.744  14.182  1.00  0.00    -0.103 C 
BRANCH  11  12
HETATM   12  C11 UNL     1     -30.773  -0.003  14.981  1.00  0.00     0.115 C 
BRANCH  12  13
HETATM   13  C12 UNL     1     -30.819   0.534  16.413  1.00  0.00     0.159 C 
BRANCH  13  14
HETATM   14  N3  UNL     1     -30.454  -0.474  17.365  1.00  0.00    -0.187 N 
HETATM   15  C13 UNL     1     -29.240  -0.477  17.924  1.00  0.00     0.027 A 
HETATM   16  C14 UNL     1     -28.208   0.528  17.632  1.00  0.00     0.069 C 
HETATM   17  C15 UNL     1     -28.911  -1.475  18.843  1.00  0.00     0.050 A 
HETATM   18  C16 UNL     1     -29.831  -2.433  19.157  1.00  0.00     0.024 A 
HETATM   19  C17 UNL     1     -29.477  -3.498  20.138  1.00  0.00     0.068 C 
HETATM   20  N4  UNL     1     -31.032  -2.391  18.573  1.00  0.00    -0.196 N 
HETATM   21  C18 UNL     1     -31.359  -1.425  17.681  1.00  0.00     0.678 A 
ATOM     22  H4  UNL     1     -31.723  -3.105  18.806  1.00  0.00     0.184 HD
BRANCH  21  23
HETATM   23  N5  UNL     1     -32.544  -1.504  17.193  1.00  0.00    -0.234 N 
ATOM     24  H52 UNL     1     -32.621  -1.303  16.196  1.00  0.00     0.174 HD
ATOM     25  H51 UNL     1     -33.380  -1.742  17.726  1.00  0.00     0.174 HD
ENDBRANCH  21  23
ENDBRANCH  13  14
ENDBRANCH  12  13
ENDBRANCH  11  12
ENDBRANCH   9  10
ENDBRANCH   4   9
BRANCH   1  26
HETATM   26  C5  UNL     1     -23.158   1.793  15.323  1.00  0.00     0.128 C 
BRANCH  26  27
HETATM   27  C4  UNL     1     -22.217   0.884  14.627  1.00  0.00     0.020 C 
BRANCH  27  28
HETATM   28  C3  UNL     1     -20.923   0.613  15.266  1.00  0.00     0.001 C 
BRANCH  28  29
HETATM   29  C2  UNL     1     -20.513   1.359  16.472  1.00  0.00    -0.004 C 
HETATM   30  C1  UNL     1     -19.763   0.597  17.515  1.00  0.00     0.005 C 
ENDBRANCH  28  29
ENDBRANCH  27  28
ENDBRANCH  26  27
ENDBRANCH   1  26
TORSDOF 10
ENDMDL
MODEL 2
REMARK VINA RESULT: -6.386251321      2.108      2.844
REMARK  10 active torsions:
REMARK  status: ('A' for Active; 'I' for Inactive)
REMARK    1  A    between atoms: C2_2  and  C3_3 
REMARK    2  A    between atoms: C3_3  and  C4_4 
REMARK    3  A    between atoms: C4_4  and  C5_5 
REMARK    4  A    between atoms: C5_5  and  N1_6 
REMARK    5  A    between atoms: N2_9  and  C8_10 
REMARK    6  A    between atoms: C8_10  and  C9_11 
REMARK    7  A    between atoms: C10_12  and  C11_13 
REMARK    8  A    between atoms: C11_13  and  C12_14 
REMARK    9  A    between atoms: C12_14  and  N3_15 
REMARK   10  A    between atoms: C18_23  and  N5_24 
ROOT
HETATM    1  N1  UNL     1     -24.333   2.011  14.129  1.00  0.00    -0.362 N 
HETATM    2  C6  UNL     1     -25.042   1.398  15.084  1.00  0.00     0.107 A 
HETATM    3  C7  UNL     1     -26.404   1.240  14.923  1.00  0.00     0.110 A 
HETATM    4  N2  UNL     1     -26.967   1.711  13.806  1.00  0.00    -0.335 N 
HETATM    5  C19 UNL     1     -26.244   2.332  12.842  1.00  0.00     0.132 A 
HETATM    6  C20 UNL     1     -26.943   2.801  11.681  1.00  0.00     0.119 C 
HETATM    7  N6  UNL     1     -27.502   3.173  10.739  1.00  0.00    -0.190 NA
HETATM    8  C21 UNL     1     -24.885   2.491  13.000  1.00  0.00     0.131 A 
ENDROOT
BRANCH   4   9
HETATM    9  C8  UNL     1     -28.397   1.544  13.637  1.00  0.00     0.223 C 
BRANCH   9  10
HETATM   10  C9  UNL     1     -28.908   1.042  14.926  1.00  0.00    -0.086 C 
HETATM   11  C10 UNL     1     -29.307   0.626  15.985  1.00  0.00    -0.103 C 
BRANCH  11  12
HETATM   12  C11 UNL     1     -29.766   0.118  17.276  1.00  0.00     0.115 C 
BRANCH  12  13
HETATM   13  C12 UNL     1     -28.711  -0.797  17.902  1.00  0.00     0.159 C 
BRANCH  13  14
HETATM   14  N3  UNL     1     -28.342  -0.353  19.215  1.00  0.00    -0.187 N 
HETATM   15  C13 UNL     1     -28.943  -0.855  20.299  1.00  0.00     0.027 A 
HETATM   16  C14 UNL     1     -29.992  -1.882  20.244  1.00  0.00     0.069 C 
HETATM   17  C15 UNL     1     -28.568  -0.398  21.563  1.00  0.00     0.050 A 
HETATM   18  C16 UNL     1     -27.595   0.553  21.677  1.00  0.00     0.024 A 
HETATM   19  C17 UNL     1     -27.197   1.038  23.028  1.00  0.00     0.068 C 
HETATM   20  N4  UNL     1     -27.022   1.026  20.566  1.00  0.00    -0.196 N 
HETATM   21  C18 UNL     1     -27.380   0.587  19.335  1.00  0.00     0.678 A 
ATOM     22  H4  UNL     1     -26.294   1.736  20.647  1.00  0.00     0.184 HD
BRANCH  21  23
HETATM   23  N5  UNL     1     -26.753   1.127  18.354  1.00  0.00    -0.234 N 
ATOM     24  H52 UNL     1     -27.307   1.758  17.774  1.00  0.00     0.174 HD
ATOM     25  H51 UNL     1     -25.772   0.965  18.128  1.00  0.00     0.174 HD
ENDBRANCH  21  23
ENDBRANCH  13  14
ENDBRANCH  12  13
ENDBRANCH  11  12
ENDBRANCH   9  10
ENDBRANCH   4   9
BRANCH   1  26
HETATM   26  C5  UNL     1     -22.890   2.156  14.347  1.00  0.00     0.128 C 
BRANCH  26  27
HETATM   27  C4  UNL     1     -22.207   0.841  14.392  1.00  0.00     0.020 C 
BRANCH  27  28
HETATM   28  C3  UNL     1     -21.070   0.689  15.308  1.00  0.00     0.001 C 
BRANCH  28  29
HETATM   29  C2  UNL     1     -20.882   1.629  16.430  1.00  0.00    -0.004 C 
HETATM   30  C1  UNL     1     -20.131   1.122  17.617  1.00  0.00     0.005 C 
ENDBRANCH  28  29
ENDBRANCH  27  28
ENDBRANCH  26  27
ENDBRANCH   1  26
TORSDOF 10
ENDMDL
MODEL 3
REMARK VINA RESULT: -6.375956917      2.042      2.866
REMARK  10 active torsions:
REMARK  status: ('A' for Active; 'I' for Inactive)
REMARK    1  A    between atoms: C2_2  and  C3_3 
REMARK    2  A    between atoms: C3_3  and  C4_4 
REMARK    3  A    between atoms: C4_4  and  C5_5 
REMARK    4  A    between atoms: C5_5  and  N1_6 
REMARK    5  A    between atoms: N2_9  and  C8_10 
REMARK    6  A    between atoms: C8_10  and  C9_11 
REMARK    7  A    between atoms: C10_12  and  C11_13 
REMARK    8  A    between atoms: C11_13  and  C12_14 
REMARK    9  A    between atoms: C12_14  and  N3_15 
REMARK   10  A    between atoms: C18_23  and  N5_24 
ROOT
HETATM    1  N1  UNL     1     -24.158   1.681  14.491  1.00  0.00    -0.362 N 
HETATM    2  C6  UNL     1     -24.330   1.739  15.817  1.00  0.00     0.107 A 
HETATM    3  C7  UNL     1     -25.597   1.930  16.330  1.00  0.00     0.110 A 
HETATM    4  N2  UNL     1     -26.615   2.050  15.472  1.00  0.00    -0.335 N 
HETATM    5  C19 UNL     1     -26.435   1.990  14.129  1.00  0.00     0.132 A 
HETATM    6  C20 UNL     1     -27.592   2.130  13.295  1.00  0.00     0.119 C 
HETATM    7  N6  UNL     1     -28.525   2.234  12.617  1.00  0.00    -0.190 NA
HETATM    8  C21 UNL     1     -25.172   1.800  13.615  1.00  0.00     0.131 A 
ENDROOT
BRANCH   4   9
HETATM    9  C8  UNL     1     -27.945   2.250  16.010  1.00  0.00     0.223 C 
BRANCH   9  10
HETATM   10  C9  UNL     1     -28.305   0.994  16.696  1.00  0.00    -0.086 C 
HETATM   11  C10 UNL     1     -28.610  -0.022  17.270  1.00  0.00    -0.103 C 
BRANCH  11  12
HETATM   12  C11 UNL     1     -28.996  -1.239  17.981  1.00  0.00     0.115 C 
BRANCH  12  13
HETATM   13  C12 UNL     1     -28.837  -1.055  19.491  1.00  0.00     0.159 C 
BRANCH  13  14
HETATM   14  N3  UNL     1     -30.101  -1.122  20.165  1.00  0.00    -0.187 N 
HETATM   15  C13 UNL     1     -30.725  -0.007  20.559  1.00  0.00     0.027 A 
HETATM   16  C14 UNL     1     -30.194   1.344  20.332  1.00  0.00     0.069 C 
HETATM   17  C15 UNL     1     -31.951  -0.105  21.219  1.00  0.00     0.050 A 
HETATM   18  C16 UNL     1     -32.496  -1.335  21.453  1.00  0.00     0.024 A 
HETATM   19  C17 UNL     1     -33.804  -1.435  22.158  1.00  0.00     0.068 C 
HETATM   20  N4  UNL     1     -31.836  -2.422  21.042  1.00  0.00    -0.196 N 
HETATM   21  C18 UNL     1     -30.646  -2.336  20.401  1.00  0.00     0.678 A 
ATOM     22  H4  UNL     1     -32.240  -3.343  21.216  1.00  0.00     0.184 HD
BRANCH  21  23
HETATM   23  N5  UNL     1     -30.119  -3.456  20.064  1.00  0.00    -0.234 N 
ATOM     24  H52 UNL     1     -29.374  -3.791  20.676  1.00  0.00     0.174 HD
ATOM     25  H51 UNL     1     -30.389  -4.007  19.249  1.00  0.00     0.174 HD
ENDBRANCH  21  23
ENDBRANCH  13  14
ENDBRANCH  12  13
ENDBRANCH  11  12
ENDBRANCH   9  10
ENDBRANCH   4   9
BRANCH   1  26
HETATM   26  C5  UNL     1     -22.793   1.477  13.995  1.00  0.00     0.128 C 
BRANCH  26  27
HETATM   27  C4  UNL     1     -22.037   0.523  14.840  1.00  0.00     0.020 C 
BRANCH  27  28
HETATM   28  C3  UNL     1     -20.729   0.946  15.352  1.00  0.00     0.001 C 
BRANCH  28  29
HETATM   29  C2  UNL     1     -20.627   1.697  16.620  1.00  0.00    -0.004 C 
HETATM   30  C1  UNL     1     -19.994   0.990  17.773  1.00  0.00     0.005 C 
ENDBRANCH  28  29
ENDBRANCH  27  28
ENDBRANCH  26  27
ENDBRANCH   1  26
TORSDOF 10
ENDMDL
MODEL 4
REMARK VINA RESULT: -6.295911059      2.312      3.407
REMARK  10 active torsions:
REMARK  status: ('A' for Active; 'I' for Inactive)
REMARK    1  A    between atoms: C2_2  and  C3_3 
REMARK    2  A    between atoms: C3_3  and  C4_4 
REMARK    3  A    between atoms: C4_4  and  C5_5 
REMARK    4  A    between atoms: C5_5  and  N1_6 
REMARK    5  A    between atoms: N2_9  and  C8_10 
REMARK    6  A    between atoms: C8_10  and  C9_11 
REMARK    7  A    between atoms: C10_12  and  C11_13 
REMARK    8  A    between atoms: C11_13  and  C12_14 
REMARK    9  A    between atoms: C12_14  and  N3_15 
REMARK   10  A    between atoms: C18_23  and  N5_24 
ROOT
HETATM    1  N1  UNL     1     -25.317   1.584  14.666  1.00  0.00    -0.362 N 
HETATM    2  C6  UNL     1     -25.518   1.769  15.976  1.00  0.00     0.107 A 
HETATM    3  C7  UNL     1     -26.793   1.656  16.490  1.00  0.00     0.110 A 
HETATM    4  N2  UNL     1     -27.790   1.362  15.649  1.00  0.00    -0.335 N 
HETATM    5  C19 UNL     1     -27.581   1.176  14.323  1.00  0.00     0.132 A 
HETATM    6  C20 UNL     1     -28.717   0.864  13.506  1.00  0.00     0.119 C 
HETATM    7  N6  UNL     1     -29.631   0.604  12.844  1.00  0.00    -0.190 NA
HETATM    8  C21 UNL     1     -26.309   1.288  13.807  1.00  0.00     0.131 A 
ENDROOT
BRANCH   4   9
HETATM    9  C8  UNL     1     -29.130   1.243  16.189  1.00  0.00     0.223 C 
BRANCH   9  10
HETATM   10  C9  UNL     1     -29.102   0.089  17.108  1.00  0.00    -0.086 C 
HETATM   11  C10 UNL     1     -29.099  -0.858  17.854  1.00  0.00    -0.103 C 
BRANCH  11  12
HETATM   12  C11 UNL     1     -29.119  -2.012  18.751  1.00  0.00     0.115 C 
BRANCH  12  13
HETATM   13  C12 UNL     1     -29.103  -1.560  20.212  1.00  0.00     0.159 C 
BRANCH  13  14
HETATM   14  N3  UNL     1     -30.389  -1.081  20.628  1.00  0.00    -0.187 N 
HETATM   15  C13 UNL     1     -30.593   0.220  20.854  1.00  0.00     0.027 A 
HETATM   16  C14 UNL     1     -29.555   1.246  20.688  1.00  0.00     0.069 C 
HETATM   17  C15 UNL     1     -31.855   0.655  21.265  1.00  0.00     0.050 A 
HETATM   18  C16 UNL     1     -32.861  -0.253  21.432  1.00  0.00     0.024 A 
HETATM   19  C17 UNL     1     -34.206   0.215  21.871  1.00  0.00     0.068 C 
HETATM   20  N4  UNL     1     -32.611  -1.544  21.195  1.00  0.00    -0.196 N 
HETATM   21  C18 UNL     1     -31.390  -1.974  20.795  1.00  0.00     0.678 A 
ATOM     22  H4  UNL     1     -33.360  -2.225  21.318  1.00  0.00     0.184 HD
BRANCH  21  23
HETATM   23  N5  UNL     1     -31.285  -3.239  20.607  1.00  0.00    -0.234 N 
ATOM     24  H52 UNL     1     -30.379  -3.557  20.262  1.00  0.00     0.174 HD
ATOM     25  H51 UNL     1     -32.029  -3.917  20.772  1.00  0.00     0.174 HD
ENDBRANCH  21  23
ENDBRANCH  13  14
ENDBRANCH  12  13
ENDBRANCH  11  12
ENDBRANCH   9  10
ENDBRANCH   4   9
BRANCH   1  26
HETATM   26  C5  UNL     1     -23.944   1.715  14.168  1.00  0.00     0.128 C 
BRANCH  26  27
HETATM   27  C4  UNL     1     -22.947   1.522  15.247  1.00  0.00     0.020 C 
BRANCH  27  28
HETATM   28  C3  UNL     1     -21.772   0.691  14.957  1.00  0.00     0.001 C 
BRANCH  28  29
HETATM   29  C2  UNL     1     -20.517   0.879  15.711  1.00  0.00    -0.004 C 
HETATM   30  C1  UNL     1     -20.629   1.506  17.062  1.00  0.00     0.005 C 
ENDBRANCH  28  29
ENDBRANCH  27  28
ENDBRANCH  26  27
ENDBRANCH   1  26
TORSDOF 10
ENDMDL
MODEL 5
REMARK VINA RESULT: -6.231838337      3.713      5.833
REMARK  10 active torsions:
REMARK  status: ('A' for Active; 'I' for Inactive)
REMARK    1  A    between atoms: C2_2  and  C3_3 
REMARK    2  A    between atoms: C3_3  and  C4_4 
REMARK    3  A    between atoms: C4_4  and  C5_5 
REMARK    4  A    between atoms: C5_5  and  N1_6 
REMARK    5  A    between atoms: N2_9  and  C8_10 
REMARK    6  A    between atoms: C8_10  and  C9_11 
REMARK    7  A    between atoms: C10_12  and  C11_13 
REMARK    8  A    between atoms: C11_13  and  C12_14 
REMARK    9  A    between atoms: C12_14  and  N3_15 
REMARK   10  A    between atoms: C18_23  and  N5_24 
ROOT
HETATM    1  N1  UNL     1     -24.575   1.704  14.760  1.00  0.00    -0.362 N 
HETATM    2  C6  UNL     1     -25.365   1.369  13.733  1.00  0.00     0.107 A 
HETATM    3  C7  UNL     1     -26.690   1.065  13.966  1.00  0.00     0.110 A 
HETATM    4  N2  UNL     1     -27.139   1.117  15.224  1.00  0.00    -0.335 N 
HETATM    5  C19 UNL     1     -26.335   1.456  16.262  1.00  0.00     0.132 A 
HETATM    6  C20 UNL     1     -26.913   1.483  17.573  1.00  0.00     0.119 C 
HETATM    7  N6  UNL     1     -27.378   1.514  18.633  1.00  0.00    -0.190 NA
HETATM    8  C21 UNL     1     -25.012   1.761  16.031  1.00  0.00     0.131 A 
ENDROOT
BRANCH   4   9
HETATM    9  C8  UNL     1     -28.531   0.797  15.469  1.00  0.00     0.223 C 
BRANCH   9  10
HETATM   10  C9  UNL     1     -29.210   0.887  14.162  1.00  0.00    -0.086 C 
HETATM   11  C10 UNL     1     -29.761   0.980  13.094  1.00  0.00    -0.103 C 
BRANCH  11  12
HETATM   12  C11 UNL     1     -30.421   1.118  11.797  1.00  0.00     0.115 C 
BRANCH  12  13
HETATM   13  C12 UNL     1     -31.942   1.093  11.962  1.00  0.00     0.159 C 
BRANCH  13  14
HETATM   14  N3  UNL     1     -32.552   0.146  11.074  1.00  0.00    -0.187 N 
HETATM   15  C13 UNL     1     -32.768   0.454   9.791  1.00  0.00     0.027 A 
HETATM   16  C14 UNL     1     -32.399   1.744   9.192  1.00  0.00     0.069 C 
HETATM   17  C15 UNL     1     -33.370  -0.486   8.953  1.00  0.00     0.050 A 
HETATM   18  C16 UNL     1     -33.730  -1.704   9.453  1.00  0.00     0.024 A 
HETATM   19  C17 UNL     1     -34.372  -2.705   8.556  1.00  0.00     0.068 C 
HETATM   20  N4  UNL     1     -33.495  -1.968  10.742  1.00  0.00    -0.196 N 
HETATM   21  C18 UNL     1     -32.911  -1.061  11.562  1.00  0.00     0.678 A 
ATOM     22  H4  UNL     1     -33.763  -2.877  11.119  1.00  0.00     0.184 HD
BRANCH  21  23
HETATM   23  N5  UNL     1     -32.748  -1.441  12.776  1.00  0.00    -0.234 N 
ATOM     24  H52 UNL     1     -31.853  -1.189  13.198  1.00  0.00     0.174 HD
ATOM     25  H51 UNL     1     -33.432  -1.964  13.322  1.00  0.00     0.174 HD
ENDBRANCH  21  23
ENDBRANCH  13  14
ENDBRANCH  12  13
ENDBRANCH  11  12
ENDBRANCH   9  10
ENDBRANCH   4   9
BRANCH   1  26
HETATM   26  C5  UNL     1     -23.175   2.019  14.462  1.00  0.00     0.128 C 
BRANCH  26  27
HETATM   27  C4  UNL     1     -22.310   0.818  14.551  1.00  0.00     0.020 C 
BRANCH  27  28
HETATM   28  C3  UNL     1     -21.066   0.923  15.323  1.00  0.00     0.001 C 
BRANCH  28  29
HETATM   29  C2  UNL     1     -21.043   1.641  16.612  1.00  0.00    -0.004 C 
HETATM   30  C1  UNL     1     -20.121   1.115  17.662  1.00  0.00     0.005 C 
ENDBRANCH  28  29
ENDBRANCH  27  28
ENDBRANCH  26  27
ENDBRANCH   1  26
TORSDOF 10
ENDMDL
