MODEL 1
REMARK VINA RESULT: -6.034449862      0.000      0.000
REMARK  8 active torsions:
REMARK  status: ('A' for Active; 'I' for Inactive)
REMARK    1  A    between atoms: C2_2  and  N1_3 
REMARK    2  A    between atoms: N1_3  and  C3_4 
REMARK       I    between atoms: N1_3  and  C5_6 
REMARK    3  A    between atoms: C5_6  and  C6_8 
REMARK    4  A    between atoms: C6_8  and  N2_9 
REMARK    5  A    between atoms: N2_9  and  C7_11 
REMARK    6  A    between atoms: C10_20  and  N6_21 
REMARK    7  A    between atoms: N6_21  and  C11_22 
REMARK    8  A    between atoms: N6_21  and  C13_24 
ROOT
HETATM    1  C7  UNL     1     -26.211   2.184  12.746  1.00  0.00     0.132 A 
HETATM    2  N3  UNL     1     -24.880   2.181  13.084  1.00  0.00    -0.283 N 
ATOM      3  H3  UNL     1     -24.124   2.529  12.494  1.00  0.00     0.188 HD
HETATM    4  N4  UNL     1     -24.727   1.661  14.283  1.00  0.00    -0.283 N 
ATOM      5  H4  UNL     1     -23.841   1.540  14.774  1.00  0.00     0.188 HD
HETATM    6  C8  UNL     1     -25.952   1.314  14.752  1.00  0.00     0.137 A 
HETATM    7  N5  UNL     1     -26.608   0.777  15.789  1.00  0.00    -0.337 N 
ATOM      8  H5  UNL     1     -26.151   0.448  16.639  1.00  0.00     0.167 HD
HETATM    9  C9  UNL     1     -27.923   0.720  15.586  1.00  0.00     0.083 A 
HETATM   10  C10 UNL     1     -28.980   0.267  16.365  1.00  0.00     0.041 A 
HETATM   11  C15 UNL     1     -30.227   0.381  15.835  1.00  0.00     0.043 A 
HETATM   12  C16 UNL     1     -30.383   0.928  14.576  1.00  0.00     0.092 A 
HETATM   13  N7  UNL     1     -29.352   1.368  13.816  1.00  0.00    -0.358 N 
HETATM   14  C17 UNL     1     -29.667   1.926  12.495  1.00  0.00     0.156 C 
HETATM   15  C18 UNL     1     -28.133   1.267  14.313  1.00  0.00     0.080 A 
HETATM   16  C19 UNL     1     -26.900   1.641  13.787  1.00  0.00     0.084 A 
ENDROOT
BRANCH   1  17
HETATM   17  N2  UNL     1     -26.683   2.627  11.639  1.00  0.00    -0.366 N 
ATOM     18  H2  UNL     1     -26.992   1.945  10.946  1.00  0.00     0.161 HD
BRANCH  17  19
HETATM   19  C6  UNL     1     -26.804   4.014  11.314  1.00  0.00     0.224 C 
BRANCH  19  20
HETATM   20  C5  UNL     1     -25.743   4.418  10.361  1.00  0.00     0.237 C 
HETATM   21  N1  UNL     1     -26.007   5.351   9.318  1.00  0.00    -0.351 N 
HETATM   22  O1  UNL     1     -24.594   3.924  10.486  1.00  0.00    -0.272 OA
BRANCH  21  23
HETATM   23  C2  UNL     1     -24.940   5.724   8.406  1.00  0.00     0.121 C 
HETATM   24  C1  UNL     1     -24.337   7.035   8.807  1.00  0.00     0.026 C 
ENDBRANCH  21  23
BRANCH  21  25
HETATM   25  C3  UNL     1     -27.302   5.931   9.144  1.00  0.00     0.121 C 
HETATM   26  C4  UNL     1     -27.922   5.616   7.800  1.00  0.00     0.026 C 
ENDBRANCH  21  25
ENDBRANCH  19  20
ENDBRANCH  17  19
ENDBRANCH   1  17
BRANCH  10  27
HETATM   27  N6  UNL     1     -28.679  -0.304  17.630  1.00  0.00    -0.282 NA
BRANCH  27  28
HETATM   28  C11 UNL     1     -28.710   0.742  18.666  1.00  0.00     0.091 C 
HETATM   29  C12 UNL     1     -27.503   0.735  19.536  1.00  0.00     0.021 C 
ENDBRANCH  27  28
BRANCH  27  30
HETATM   30  C13 UNL     1     -29.803  -1.173  18.028  1.00  0.00     0.091 C 
HETATM   31  C14 UNL     1     -29.373  -2.412  18.752  1.00  0.00     0.021 C 
ENDBRANCH  27  30
ENDBRANCH  10  27
TORSDOF 8
ENDMDL
MODEL 2
REMARK VINA RESULT: -5.720485504      1.629      2.229
REMARK  8 active torsions:
REMARK  status: ('A' for Active; 'I' for Inactive)
REMARK    1  A    between atoms: C2_2  and  N1_3 
REMARK    2  A    between atoms: N1_3  and  C3_4 
REMARK       I    between atoms: N1_3  and  C5_6 
REMARK    3  A    between atoms: C5_6  and  C6_8 
REMARK    4  A    between atoms: C6_8  and  N2_9 
REMARK    5  A    between atoms: N2_9  and  C7_11 
REMARK    6  A    between atoms: C10_20  and  N6_21 
REMARK    7  A    between atoms: N6_21  and  C11_22 
REMARK    8  A    between atoms: N6_21  and  C13_24 
ROOT
HETATM    1  C7  UNL     1     -27.130   1.469  14.399  1.00  0.00     0.132 A 
HETATM    2  N3  UNL     1     -25.978   1.750  15.091  1.00  0.00    -0.283 N 
ATOM      3  H3  UNL     1     -25.133   2.152  14.685  1.00  0.00     0.188 HD
HETATM    4  N4  UNL     1     -26.127   1.421  16.357  1.00  0.00    -0.283 N 
ATOM      5  H4  UNL     1     -25.425   1.525  17.089  1.00  0.00     0.188 HD
HETATM    6  C8  UNL     1     -27.378   0.919  16.516  1.00  0.00     0.137 A 
HETATM    7  N5  UNL     1     -28.239   0.407  17.406  1.00  0.00    -0.337 N 
ATOM      8  H5  UNL     1     -28.023   0.275  18.393  1.00  0.00     0.167 HD
HETATM    9  C9  UNL     1     -29.409   0.088  16.856  1.00  0.00     0.083 A 
HETATM   10  C10 UNL     1     -30.582  -0.448  17.375  1.00  0.00     0.041 A 
HETATM   11  C15 UNL     1     -31.612  -0.629  16.505  1.00  0.00     0.043 A 
HETATM   12  C16 UNL     1     -31.450  -0.282  15.179  1.00  0.00     0.092 A 
HETATM   13  N7  UNL     1     -30.306   0.238  14.672  1.00  0.00    -0.358 N 
HETATM   14  C17 UNL     1     -30.277   0.560  13.240  1.00  0.00     0.156 C 
HETATM   15  C18 UNL     1     -29.295   0.423  15.500  1.00  0.00     0.080 A 
HETATM   16  C19 UNL     1     -28.023   0.945  15.283  1.00  0.00     0.084 A 
ENDROOT
BRANCH   1  17
HETATM   17  N2  UNL     1     -27.298   1.676  13.145  1.00  0.00    -0.366 N 
ATOM     18  H2  UNL     1     -27.299   0.867  12.524  1.00  0.00     0.161 HD
BRANCH  17  19
HETATM   19  C6  UNL     1     -27.485   2.968  12.562  1.00  0.00     0.224 C 
BRANCH  19  20
HETATM   20  C5  UNL     1     -26.266   3.388  11.830  1.00  0.00     0.237 C 
HETATM   21  N1  UNL     1     -26.351   3.970  10.533  1.00  0.00    -0.351 N 
HETATM   22  O1  UNL     1     -25.144   3.224  12.373  1.00  0.00    -0.272 OA
BRANCH  21  23
HETATM   23  C2  UNL     1     -25.133   4.371   9.849  1.00  0.00     0.121 C 
HETATM   24  C1  UNL     1     -25.168   5.833   9.523  1.00  0.00     0.026 C 
ENDBRANCH  21  23
BRANCH  21  25
HETATM   25  C3  UNL     1     -27.608   4.169   9.882  1.00  0.00     0.121 C 
HETATM   26  C4  UNL     1     -27.901   3.133   8.819  1.00  0.00     0.026 C 
ENDBRANCH  21  25
ENDBRANCH  19  20
ENDBRANCH  17  19
ENDBRANCH   1  17
BRANCH  10  27
HETATM   27  N6  UNL     1     -30.605  -0.792  18.752  1.00  0.00    -0.282 NA
BRANCH  27  28
HETATM   28  C11 UNL     1     -31.888  -0.379  19.345  1.00  0.00     0.091 C 
HETATM   29  C12 UNL     1     -32.017  -0.757  20.778  1.00  0.00     0.021 C 
ENDBRANCH  27  28
BRANCH  27  30
HETATM   30  C13 UNL     1     -30.667  -2.262  18.865  1.00  0.00     0.091 C 
HETATM   31  C14 UNL     1     -29.337  -2.897  19.134  1.00  0.00     0.021 C 
ENDBRANCH  27  30
ENDBRANCH  10  27
TORSDOF 8
ENDMDL
MODEL 3
REMARK VINA RESULT: -5.695846781      3.528      5.963
REMARK  8 active torsions:
REMARK  status: ('A' for Active; 'I' for Inactive)
REMARK    1  A    between atoms: C2_2  and  N1_3 
REMARK    2  A    between atoms: N1_3  and  C3_4 
REMARK       I    between atoms: N1_3  and  C5_6 
REMARK    3  A    between atoms: C5_6  and  C6_8 
REMARK    4  A    between atoms: C6_8  and  N2_9 
REMARK    5  A    between atoms: N2_9  and  C7_11 
REMARK    6  A    between atoms: C10_20  and  N6_21 
REMARK    7  A    between atoms: N6_21  and  C11_22 
REMARK    8  A    between atoms: N6_21  and  C13_24 
ROOT
HETATM    1  C7  UNL     1     -26.792   1.521  16.883  1.00  0.00     0.132 A 
HETATM    2  N3  UNL     1     -26.975   1.005  18.141  1.00  0.00    -0.283 N 
ATOM      3  H3  UNL     1     -26.314   1.093  18.914  1.00  0.00     0.188 HD
HETATM    4  N4  UNL     1     -28.131   0.379  18.202  1.00  0.00    -0.283 N 
ATOM      5  H4  UNL     1     -28.514  -0.095  19.021  1.00  0.00     0.188 HD
HETATM    6  C8  UNL     1     -28.726   0.473  16.986  1.00  0.00     0.137 A 
HETATM    7  N5  UNL     1     -29.813   0.139  16.277  1.00  0.00    -0.337 N 
ATOM      8  H5  UNL     1     -30.594  -0.396  16.656  1.00  0.00     0.167 HD
HETATM    9  C9  UNL     1     -29.759   0.585  15.024  1.00  0.00     0.083 A 
HETATM   10  C10 UNL     1     -30.640   0.495  13.952  1.00  0.00     0.041 A 
HETATM   11  C15 UNL     1     -30.260   1.098  12.793  1.00  0.00     0.043 A 
HETATM   12  C16 UNL     1     -29.046   1.755  12.735  1.00  0.00     0.092 A 
HETATM   13  N7  UNL     1     -28.188   1.840  13.779  1.00  0.00    -0.358 N 
HETATM   14  C17 UNL     1     -26.931   2.570  13.573  1.00  0.00     0.156 C 
HETATM   15  C18 UNL     1     -28.538   1.262  14.914  1.00  0.00     0.080 A 
HETATM   16  C19 UNL     1     -27.887   1.194  16.141  1.00  0.00     0.084 A 
ENDROOT
BRANCH   1  17
HETATM   17  N2  UNL     1     -25.762   2.186  16.508  1.00  0.00    -0.366 N 
ATOM     18  H2  UNL     1     -25.733   3.182  16.724  1.00  0.00     0.161 HD
BRANCH  17  19
HETATM   19  C6  UNL     1     -24.651   1.620  15.808  1.00  0.00     0.224 C 
BRANCH  19  20
HETATM   20  C5  UNL     1     -23.375   2.151  16.344  1.00  0.00     0.237 C 
HETATM   21  N1  UNL     1     -22.121   1.657  15.884  1.00  0.00    -0.351 N 
HETATM   22  O1  UNL     1     -23.412   3.054  17.219  1.00  0.00    -0.272 OA
BRANCH  21  23
HETATM   23  C2  UNL     1     -20.893   2.206  16.432  1.00  0.00     0.121 C 
HETATM   24  C1  UNL     1     -20.344   1.309  17.499  1.00  0.00     0.026 C 
ENDBRANCH  21  23
BRANCH  21  25
HETATM   25  C3  UNL     1     -22.040   0.630  14.893  1.00  0.00     0.121 C 
HETATM   26  C4  UNL     1     -22.070   1.162  13.477  1.00  0.00     0.026 C 
ENDBRANCH  21  25
ENDBRANCH  19  20
ENDBRANCH  17  19
ENDBRANCH   1  17
BRANCH  10  27
HETATM   27  N6  UNL     1     -31.842  -0.237  14.136  1.00  0.00    -0.282 NA
BRANCH  27  28
HETATM   28  C11 UNL     1     -32.948   0.690  14.428  1.00  0.00     0.091 C 
HETATM   29  C12 UNL     1     -33.351   0.683  15.860  1.00  0.00     0.021 C 
ENDBRANCH  27  28
BRANCH  27  30
HETATM   30  C13 UNL     1     -32.245  -0.805  12.835  1.00  0.00     0.091 C 
HETATM   31  C14 UNL     1     -33.725  -0.778  12.604  1.00  0.00     0.021 C 
ENDBRANCH  27  30
ENDBRANCH  10  27
TORSDOF 8
ENDMDL
MODEL 4
REMARK VINA RESULT: -5.639916208      2.994      6.068
REMARK  8 active torsions:
REMARK  status: ('A' for Active; 'I' for Inactive)
REMARK    1  A    between atoms: C2_2  and  N1_3 
REMARK    2  A    between atoms: N1_3  and  C3_4 
REMARK       I    between atoms: N1_3  and  C5_6 
REMARK    3  A    between atoms: C5_6  and  C6_8 
REMARK    4  A    between atoms: C6_8  and  N2_9 
REMARK    5  A    between atoms: N2_9  and  C7_11 
REMARK    6  A    between atoms: C10_20  and  N6_21 
REMARK    7  A    between atoms: N6_21  and  C11_22 
REMARK    8  A    between atoms: N6_21  and  C13_24 
ROOT
HETATM    1  C7  UNL     1     -25.884   2.539  12.540  1.00  0.00     0.132 A 
HETATM    2  N3  UNL     1     -25.636   3.298  11.423  1.00  0.00    -0.283 N 
ATOM      3  H3  UNL     1     -24.725   3.672  11.158  1.00  0.00     0.188 HD
HETATM    4  N4  UNL     1     -26.752   3.471  10.746  1.00  0.00    -0.283 N 
ATOM      5  H4  UNL     1     -26.849   3.996   9.877  1.00  0.00     0.188 HD
HETATM    6  C8  UNL     1     -27.749   2.830  11.406  1.00  0.00     0.137 A 
HETATM    7  N5  UNL     1     -29.058   2.545  11.389  1.00  0.00    -0.337 N 
ATOM      8  H5  UNL     1     -29.696   2.859  10.658  1.00  0.00     0.167 HD
HETATM    9  C9  UNL     1     -29.431   1.805  12.431  1.00  0.00     0.083 A 
HETATM   10  C10 UNL     1     -30.654   1.269  12.818  1.00  0.00     0.041 A 
HETATM   11  C15 UNL     1     -30.666   0.530  13.960  1.00  0.00     0.043 A 
HETATM   12  C16 UNL     1     -29.493   0.351  14.666  1.00  0.00     0.092 A 
HETATM   13  N7  UNL     1     -28.302   0.875  14.289  1.00  0.00    -0.358 N 
HETATM   14  C17 UNL     1     -27.136   0.602  15.138  1.00  0.00     0.156 C 
HETATM   15  C18 UNL     1     -28.268   1.594  13.183  1.00  0.00     0.080 A 
HETATM   16  C19 UNL     1     -27.211   2.235  12.544  1.00  0.00     0.084 A 
ENDROOT
BRANCH   1  17
HETATM   17  N2  UNL     1     -24.999   2.197  13.402  1.00  0.00    -0.366 N 
ATOM     18  H2  UNL     1     -25.295   1.611  14.182  1.00  0.00     0.161 HD
BRANCH  17  19
HETATM   19  C6  UNL     1     -23.624   2.584  13.340  1.00  0.00     0.224 C 
BRANCH  19  20
HETATM   20  C5  UNL     1     -22.748   1.451  13.721  1.00  0.00     0.237 C 
HETATM   21  N1  UNL     1     -21.969   1.491  14.912  1.00  0.00    -0.351 N 
HETATM   22  O1  UNL     1     -22.702   0.441  12.973  1.00  0.00    -0.272 OA
BRANCH  21  23
HETATM   23  C2  UNL     1     -21.125   0.358  15.252  1.00  0.00     0.121 C 
HETATM   24  C1  UNL     1     -20.169   0.721  16.346  1.00  0.00     0.026 C 
ENDBRANCH  21  23
BRANCH  21  25
HETATM   25  C3  UNL     1     -21.993   2.623  15.784  1.00  0.00     0.121 C 
HETATM   26  C4  UNL     1     -23.091   2.553  16.823  1.00  0.00     0.026 C 
ENDBRANCH  21  25
ENDBRANCH  19  20
ENDBRANCH  17  19
ENDBRANCH   1  17
BRANCH  10  27
HETATM   27  N6  UNL     1     -31.791   1.556  12.019  1.00  0.00    -0.282 NA
BRANCH  27  28
HETATM   28  C11 UNL     1     -31.899   0.565  10.935  1.00  0.00     0.091 C 
HETATM   29  C12 UNL     1     -32.851  -0.535  11.244  1.00  0.00     0.021 C 
ENDBRANCH  27  28
BRANCH  27  30
HETATM   30  C13 UNL     1     -33.002   1.281  12.815  1.00  0.00     0.091 C 
HETATM   31  C14 UNL     1     -33.777   2.514  13.169  1.00  0.00     0.021 C 
ENDBRANCH  27  30
ENDBRANCH  10  27
TORSDOF 8
ENDMDL
MODEL 5
REMARK VINA RESULT: -5.631657452      0.757      1.366
REMARK  8 active torsions:
REMARK  status: ('A' for Active; 'I' for Inactive)
REMARK    1  A    between atoms: C2_2  and  N1_3 
REMARK    2  A    between atoms: N1_3  and  C3_4 
REMARK       I    between atoms: N1_3  and  C5_6 
REMARK    3  A    between atoms: C5_6  and  C6_8 
REMARK    4  A    between atoms: C6_8  and  N2_9 
REMARK    5  A    between atoms: N2_9  and  C7_11 
REMARK    6  A    between atoms: C10_20  and  N6_21 
REMARK    7  A    between atoms: N6_21  and  C11_22 
REMARK    8  A    between atoms: N6_21  and  C13_24 
ROOT
HETATM    1  C7  UNL     1     -26.084   2.123  12.998  1.00  0.00     0.132 A 
HETATM    2  N3  UNL     1     -24.759   2.087  13.357  1.00  0.00    -0.283 N 
ATOM      3  H3  UNL     1     -23.986   2.419  12.781  1.00  0.00     0.188 HD
HETATM    4  N4  UNL     1     -24.637   1.561  14.557  1.00  0.00    -0.283 N 
ATOM      5  H4  UNL     1     -23.763   1.417  15.062  1.00  0.00     0.188 HD
HETATM    6  C8  UNL     1     -25.878   1.242  15.005  1.00  0.00     0.137 A 
HETATM    7  N5  UNL     1     -26.563   0.718  16.030  1.00  0.00    -0.337 N 
ATOM      8  H5  UNL     1     -26.129   0.375  16.887  1.00  0.00     0.167 HD
HETATM    9  C9  UNL     1     -27.876   0.694  15.806  1.00  0.00     0.083 A 
HETATM   10  C10 UNL     1     -28.956   0.264  16.567  1.00  0.00     0.041 A 
HETATM   11  C15 UNL     1     -30.192   0.410  16.017  1.00  0.00     0.043 A 
HETATM   12  C16 UNL     1     -30.314   0.964  14.758  1.00  0.00     0.092 A 
HETATM   13  N7  UNL     1     -29.260   1.381  14.016  1.00  0.00    -0.358 N 
HETATM   14  C17 UNL     1     -29.540   1.951  12.692  1.00  0.00     0.156 C 
HETATM   15  C18 UNL     1     -28.053   1.249  14.531  1.00  0.00     0.080 A 
HETATM   16  C19 UNL     1     -26.803   1.594  14.026  1.00  0.00     0.084 A 
ENDROOT
BRANCH   1  17
HETATM   17  N2  UNL     1     -26.527   2.581  11.885  1.00  0.00    -0.366 N 
ATOM     18  H2  UNL     1     -27.292   2.079  11.435  1.00  0.00     0.161 HD
BRANCH  17  19
HETATM   19  C6  UNL     1     -26.018   3.748  11.236  1.00  0.00     0.224 C 
BRANCH  19  20
HETATM   20  C5  UNL     1     -26.359   3.729   9.794  1.00  0.00     0.237 C 
HETATM   21  N1  UNL     1     -26.545   4.939   9.066  1.00  0.00    -0.351 N 
HETATM   22  O1  UNL     1     -26.483   2.621   9.212  1.00  0.00    -0.272 OA
BRANCH  21  23
HETATM   23  C2  UNL     1     -26.876   4.879   7.653  1.00  0.00     0.121 C 
HETATM   24  C1  UNL     1     -28.337   5.135   7.441  1.00  0.00     0.026 C 
ENDBRANCH  21  23
BRANCH  21  25
HETATM   25  C3  UNL     1     -26.416   6.217   9.693  1.00  0.00     0.121 C 
HETATM   26  C4  UNL     1     -25.083   6.881   9.427  1.00  0.00     0.026 C 
ENDBRANCH  21  25
ENDBRANCH  19  20
ENDBRANCH  17  19
ENDBRANCH   1  17
BRANCH  10  27
HETATM   27  N6  UNL     1     -28.689  -0.318  17.834  1.00  0.00    -0.282 NA
BRANCH  27  28
HETATM   28  C11 UNL     1     -28.803   0.708  18.885  1.00  0.00     0.091 C 
HETATM   29  C12 UNL     1     -27.638   0.728  19.809  1.00  0.00     0.021 C 
ENDBRANCH  27  28
BRANCH  27  30
HETATM   30  C13 UNL     1     -29.797  -1.233  18.169  1.00  0.00     0.091 C 
HETATM   31  C14 UNL     1     -29.344  -2.507  18.815  1.00  0.00     0.021 C 
ENDBRANCH  27  30
ENDBRANCH  10  27
TORSDOF 8
ENDMDL
