MODEL 1
REMARK VINA RESULT: -6.307719438      0.000      0.000
REMARK  10 active torsions:
REMARK  status: ('A' for Active; 'I' for Inactive)
REMARK    1  A    between atoms: C3_4  and  C4_5 
REMARK    2  A    between atoms: C5_6  and  C6_7 
REMARK    3  A    between atoms: C9_12  and  N3_13 
REMARK    4  A    between atoms: C10_16  and  C11_17 
REMARK    5  A    between atoms: C12_18  and  C13_19 
REMARK    6  A    between atoms: C13_19  and  C14_20 
REMARK    7  A    between atoms: C14_20  and  N4_21 
REMARK    8  A    between atoms: C17_24  and  N5_25 
REMARK    9  A    between atoms: N5_25  and  C19_27 
REMARK   10  A    between atoms: C19_27  and  C20_28 
ROOT
HETATM    1  C1  UNL     1     -28.257   0.237  18.166  1.00  0.00     0.124 C 
HETATM    2  C2  UNL     1     -29.405   0.090  17.773  1.00  0.00    -0.067 C 
HETATM    3  N1  UNL     1     -30.722  -0.066  17.296  1.00  0.00    -0.269 N 
HETATM    4  C3  UNL     1     -31.712  -0.359  18.196  1.00  0.00     0.063 A 
HETATM    5  C8  UNL     1     -32.955  -0.489  17.636  1.00  0.00     0.120 A 
HETATM    6  N2  UNL     1     -33.190  -0.340  16.295  1.00  0.00    -0.348 N 
ATOM      7  H2  UNL     1     -34.138  -0.448  15.932  1.00  0.00     0.167 HD
HETATM    8  C9  UNL     1     -32.194  -0.056  15.459  1.00  0.00     0.136 A 
HETATM    9  C10 UNL     1     -30.935   0.083  15.980  1.00  0.00     0.144 A 
ENDROOT
BRANCH   4  10
HETATM   10  C4  UNL     1     -31.398  -0.504  19.585  1.00  0.00     0.032 C 
HETATM   11  C5  UNL     1     -30.961  -1.434  20.335  1.00  0.00     0.002 C 
BRANCH  11  12
HETATM   12  C6  UNL     1     -30.563  -2.802  20.170  1.00  0.00    -0.010 C 
HETATM   13  C7  UNL     1     -29.420  -3.099  19.538  1.00  0.00     0.011 C 
ENDBRANCH  11  12
ENDBRANCH   4  10
BRANCH   9  14
HETATM   14  C11 UNL     1     -29.847   0.393  15.073  1.00  0.00    -0.044 C 
HETATM   15  C12 UNL     1     -28.925   0.639  14.326  1.00  0.00    -0.098 C 
BRANCH  15  16
HETATM   16  C13 UNL     1     -27.798   0.913  13.432  1.00  0.00     0.114 C 
BRANCH  16  17
HETATM   17  C14 UNL     1     -27.146   2.240  13.728  1.00  0.00     0.139 C 
BRANCH  17  18
HETATM   18  N4  UNL     1     -25.789   2.074  14.210  1.00  0.00    -0.365 N 
HETATM   19  C15 UNL     1     -24.712   2.143  13.376  1.00  0.00     0.092 A 
HETATM   20  C16 UNL     1     -23.431   1.986  13.828  1.00  0.00     0.046 A 
HETATM   21  C17 UNL     1     -23.187   1.750  15.174  1.00  0.00     0.032 A 
HETATM   22  C22 UNL     1     -24.279   1.686  15.986  1.00  0.00     0.046 A 
HETATM   23  C23 UNL     1     -25.588   1.848  15.504  1.00  0.00     0.092 A 
BRANCH  21  24
HETATM   24  N5  UNL     1     -21.865   1.595  15.640  1.00  0.00    -0.382 N 
HETATM   25  C18 UNL     1     -20.901   0.947  14.763  1.00  0.00     0.150 C 
BRANCH  24  26
HETATM   26  C19 UNL     1     -21.411   2.038  16.924  1.00  0.00     0.149 C 
BRANCH  26  27
HETATM   27  C20 UNL     1     -20.151   1.283  17.272  1.00  0.00    -0.018 C 
HETATM   28  C21 UNL     1     -20.004   0.862  18.511  1.00  0.00     0.008 C 
ENDBRANCH  26  27
ENDBRANCH  24  26
ENDBRANCH  21  24
ENDBRANCH  17  18
ENDBRANCH  16  17
ENDBRANCH  15  16
ENDBRANCH   9  14
BRANCH   8  29
HETATM   29  N3  UNL     1     -32.399   0.091  14.173  1.00  0.00    -0.383 N 
ATOM     30  H32 UNL     1     -31.758  -0.324  13.497  1.00  0.00     0.157 HD
ATOM     31  H31 UNL     1     -33.195   0.620  13.817  1.00  0.00     0.157 HD
ENDBRANCH   8  29
TORSDOF 10
ENDMDL
MODEL 2
REMARK VINA RESULT: -6.273124009      2.076      2.598
REMARK  10 active torsions:
REMARK  status: ('A' for Active; 'I' for Inactive)
REMARK    1  A    between atoms: C3_4  and  C4_5 
REMARK    2  A    between atoms: C5_6  and  C6_7 
REMARK    3  A    between atoms: C9_12  and  N3_13 
REMARK    4  A    between atoms: C10_16  and  C11_17 
REMARK    5  A    between atoms: C12_18  and  C13_19 
REMARK    6  A    between atoms: C13_19  and  C14_20 
REMARK    7  A    between atoms: C14_20  and  N4_21 
REMARK    8  A    between atoms: C17_24  and  N5_25 
REMARK    9  A    between atoms: N5_25  and  C19_27 
REMARK   10  A    between atoms: C19_27  and  C20_28 
ROOT
HETATM    1  C1  UNL     1     -28.113   2.242  19.222  1.00  0.00     0.124 C 
HETATM    2  C2  UNL     1     -28.993   1.412  19.391  1.00  0.00    -0.067 C 
HETATM    3  N1  UNL     1     -30.015   0.455  19.559  1.00  0.00    -0.269 N 
HETATM    4  C3  UNL     1     -30.497   0.229  20.821  1.00  0.00     0.063 A 
HETATM    5  C8  UNL     1     -31.487  -0.715  20.880  1.00  0.00     0.120 A 
HETATM    6  N2  UNL     1     -31.955  -1.377  19.775  1.00  0.00    -0.348 N 
ATOM      7  H2  UNL     1     -32.695  -2.072  19.878  1.00  0.00     0.167 HD
HETATM    8  C9  UNL     1     -31.453  -1.123  18.569  1.00  0.00     0.136 A 
HETATM    9  C10 UNL     1     -30.461  -0.184  18.467  1.00  0.00     0.144 A 
ENDROOT
BRANCH   4  10
HETATM   10  C4  UNL     1     -29.962   0.955  21.933  1.00  0.00     0.032 C 
HETATM   11  C5  UNL     1     -28.943   0.857  22.688  1.00  0.00     0.002 C 
BRANCH  11  12
HETATM   12  C6  UNL     1     -27.819  -0.026  22.807  1.00  0.00    -0.010 C 
HETATM   13  C7  UNL     1     -26.777   0.311  23.581  1.00  0.00     0.011 C 
ENDBRANCH  11  12
ENDBRANCH   4  10
BRANCH   9  14
HETATM   14  C11 UNL     1     -29.912   0.095  17.155  1.00  0.00    -0.044 C 
HETATM   15  C12 UNL     1     -29.451   0.349  16.063  1.00  0.00    -0.098 C 
BRANCH  15  16
HETATM   16  C13 UNL     1     -28.883   0.679  14.755  1.00  0.00     0.114 C 
BRANCH  16  17
HETATM   17  C14 UNL     1     -28.209   2.028  14.750  1.00  0.00     0.139 C 
BRANCH  17  18
HETATM   18  N4  UNL     1     -26.774   1.911  14.913  1.00  0.00    -0.365 N 
HETATM   19  C15 UNL     1     -25.934   1.772  13.848  1.00  0.00     0.092 A 
HETATM   20  C16 UNL     1     -24.580   1.660  13.999  1.00  0.00     0.046 A 
HETATM   21  C17 UNL     1     -24.011   1.685  15.265  1.00  0.00     0.032 A 
HETATM   22  C22 UNL     1     -24.871   1.825  16.313  1.00  0.00     0.046 A 
HETATM   23  C23 UNL     1     -26.260   1.937  16.138  1.00  0.00     0.092 A 
BRANCH  21  24
HETATM   24  N5  UNL     1     -22.615   1.577  15.420  1.00  0.00    -0.382 N 
HETATM   25  C18 UNL     1     -21.867   0.847  14.405  1.00  0.00     0.150 C 
BRANCH  24  26
HETATM   26  C19 UNL     1     -21.882   2.141  16.514  1.00  0.00     0.149 C 
BRANCH  26  27
HETATM   27  C20 UNL     1     -20.581   1.389  16.657  1.00  0.00    -0.018 C 
HETATM   28  C21 UNL     1     -20.129   1.160  17.872  1.00  0.00     0.008 C 
ENDBRANCH  26  27
ENDBRANCH  24  26
ENDBRANCH  21  24
ENDBRANCH  17  18
ENDBRANCH  16  17
ENDBRANCH  15  16
ENDBRANCH   9  14
BRANCH   8  29
HETATM   29  N3  UNL     1     -31.888  -1.746  17.501  1.00  0.00    -0.383 N 
ATOM     30  H32 UNL     1     -32.749  -2.293  17.537  1.00  0.00     0.157 HD
ATOM     31  H31 UNL     1     -31.384  -1.703  16.616  1.00  0.00     0.157 HD
ENDBRANCH   8  29
TORSDOF 10
ENDMDL
MODEL 3
REMARK VINA RESULT: -6.153867897      1.058      1.508
REMARK  10 active torsions:
REMARK  status: ('A' for Active; 'I' for Inactive)
REMARK    1  A    between atoms: C3_4  and  C4_5 
REMARK    2  A    between atoms: C5_6  and  C6_7 
REMARK    3  A    between atoms: C9_12  and  N3_13 
REMARK    4  A    between atoms: C10_16  and  C11_17 
REMARK    5  A    between atoms: C12_18  and  C13_19 
REMARK    6  A    between atoms: C13_19  and  C14_20 
REMARK    7  A    between atoms: C14_20  and  N4_21 
REMARK    8  A    between atoms: C17_24  and  N5_25 
REMARK    9  A    between atoms: N5_25  and  C19_27 
REMARK   10  A    between atoms: C19_27  and  C20_28 
ROOT
HETATM    1  C1  UNL     1     -27.153   1.284  18.083  1.00  0.00     0.124 C 
HETATM    2  C2  UNL     1     -28.207   0.783  17.721  1.00  0.00    -0.067 C 
HETATM    3  N1  UNL     1     -29.425   0.225  17.284  1.00  0.00    -0.269 N 
HETATM    4  C3  UNL     1     -30.091  -0.629  18.123  1.00  0.00     0.063 A 
HETATM    5  C8  UNL     1     -31.263  -1.116  17.609  1.00  0.00     0.120 A 
HETATM    6  N2  UNL     1     -31.731  -0.780  16.365  1.00  0.00    -0.348 N 
ATOM      7  H2  UNL     1     -32.612  -1.173  16.033  1.00  0.00     0.167 HD
HETATM    8  C9  UNL     1     -31.047   0.054  15.586  1.00  0.00     0.136 A 
HETATM    9  C10 UNL     1     -29.869   0.564  16.064  1.00  0.00     0.144 A 
ENDROOT
BRANCH   4  10
HETATM   10  C4  UNL     1     -29.546  -0.940  19.409  1.00  0.00     0.032 C 
HETATM   11  C5  UNL     1     -29.269  -1.999  20.058  1.00  0.00     0.002 C 
BRANCH  11  12
HETATM   12  C6  UNL     1     -29.364  -3.411  19.829  1.00  0.00    -0.010 C 
HETATM   13  C7  UNL     1     -29.541  -4.250  20.860  1.00  0.00     0.011 C 
ENDBRANCH  11  12
ENDBRANCH   4  10
BRANCH   9  14
HETATM   14  C11 UNL     1     -29.121   1.473  15.217  1.00  0.00    -0.044 C 
HETATM   15  C12 UNL     1     -28.504   2.223  14.493  1.00  0.00    -0.098 C 
BRANCH  15  16
HETATM   16  C13 UNL     1     -27.776   3.124  13.597  1.00  0.00     0.114 C 
BRANCH  16  17
HETATM   17  C14 UNL     1     -26.759   2.393  12.757  1.00  0.00     0.139 C 
BRANCH  17  18
HETATM   18  N4  UNL     1     -25.527   2.164  13.485  1.00  0.00    -0.365 N 
HETATM   19  C15 UNL     1     -25.513   1.580  14.716  1.00  0.00     0.092 A 
HETATM   20  C16 UNL     1     -24.353   1.363  15.406  1.00  0.00     0.046 A 
HETATM   21  C17 UNL     1     -23.133   1.739  14.860  1.00  0.00     0.032 A 
HETATM   22  C22 UNL     1     -23.173   2.321  13.628  1.00  0.00     0.046 A 
HETATM   23  C23 UNL     1     -24.376   2.536  12.936  1.00  0.00     0.092 A 
BRANCH  21  24
HETATM   24  N5  UNL     1     -21.936   1.509  15.568  1.00  0.00    -0.382 N 
HETATM   25  C18 UNL     1     -20.897   0.721  14.921  1.00  0.00     0.150 C 
BRANCH  24  26
HETATM   26  C19 UNL     1     -21.677   2.005  16.887  1.00  0.00     0.149 C 
BRANCH  26  27
HETATM   27  C20 UNL     1     -20.265   1.632  17.269  1.00  0.00    -0.018 C 
HETATM   28  C21 UNL     1     -20.065   1.097  18.455  1.00  0.00     0.008 C 
ENDBRANCH  26  27
ENDBRANCH  24  26
ENDBRANCH  21  24
ENDBRANCH  17  18
ENDBRANCH  16  17
ENDBRANCH  15  16
ENDBRANCH   9  14
BRANCH   8  29
HETATM   29  N3  UNL     1     -31.479   0.388  14.394  1.00  0.00    -0.383 N 
ATOM     30  H32 UNL     1     -32.332  -0.026  14.020  1.00  0.00     0.157 HD
ATOM     31  H31 UNL     1     -30.978   1.061  13.815  1.00  0.00     0.157 HD
ENDBRANCH   8  29
TORSDOF 10
ENDMDL
MODEL 4
REMARK VINA RESULT: -6.060092534      1.809      2.546
REMARK  10 active torsions:
REMARK  status: ('A' for Active; 'I' for Inactive)
REMARK    1  A    between atoms: C3_4  and  C4_5 
REMARK    2  A    between atoms: C5_6  and  C6_7 
REMARK    3  A    between atoms: C9_12  and  N3_13 
REMARK    4  A    between atoms: C10_16  and  C11_17 
REMARK    5  A    between atoms: C12_18  and  C13_19 
REMARK    6  A    between atoms: C13_19  and  C14_20 
REMARK    7  A    between atoms: C14_20  and  N4_21 
REMARK    8  A    between atoms: C17_24  and  N5_25 
REMARK    9  A    between atoms: N5_25  and  C19_27 
REMARK   10  A    between atoms: C19_27  and  C20_28 
ROOT
HETATM    1  C1  UNL     1     -27.039   0.761  18.898  1.00  0.00     0.124 C 
HETATM    2  C2  UNL     1     -28.125   0.228  19.065  1.00  0.00    -0.067 C 
HETATM    3  N1  UNL     1     -29.387  -0.377  19.232  1.00  0.00    -0.269 N 
HETATM    4  C3  UNL     1     -29.766  -0.762  20.491  1.00  0.00     0.063 A 
HETATM    5  C8  UNL     1     -31.006  -1.337  20.550  1.00  0.00     0.120 A 
HETATM    6  N2  UNL     1     -31.802  -1.513  19.448  1.00  0.00    -0.348 N 
ATOM      7  H2  UNL     1     -32.719  -1.948  19.551  1.00  0.00     0.167 HD
HETATM    8  C9  UNL     1     -31.390  -1.123  18.245  1.00  0.00     0.136 A 
HETATM    9  C10 UNL     1     -30.153  -0.542  18.143  1.00  0.00     0.144 A 
ENDROOT
BRANCH   4  10
HETATM   10  C4  UNL     1     -28.885  -0.551  21.600  1.00  0.00     0.032 C 
HETATM   11  C5  UNL     1     -28.678   0.378  22.444  1.00  0.00     0.002 C 
BRANCH  11  12
HETATM   12  C6  UNL     1     -29.221   1.678  22.712  1.00  0.00    -0.010 C 
HETATM   13  C7  UNL     1     -29.395   2.554  21.713  1.00  0.00     0.011 C 
ENDBRANCH  11  12
ENDBRANCH   4  10
BRANCH   9  14
HETATM   14  C11 UNL     1     -29.701  -0.115  16.833  1.00  0.00    -0.044 C 
HETATM   15  C12 UNL     1     -29.338   0.230  15.730  1.00  0.00    -0.098 C 
BRANCH  15  16
HETATM   16  C13 UNL     1     -28.925   0.640  14.386  1.00  0.00     0.114 C 
BRANCH  16  17
HETATM   17  C14 UNL     1     -28.256   1.992  14.384  1.00  0.00     0.139 C 
BRANCH  17  18
HETATM   18  N4  UNL     1     -26.830   1.884  14.616  1.00  0.00    -0.365 N 
HETATM   19  C15 UNL     1     -25.938   1.759  13.593  1.00  0.00     0.092 A 
HETATM   20  C16 UNL     1     -24.592   1.657  13.809  1.00  0.00     0.046 A 
HETATM   21  C17 UNL     1     -24.086   1.679  15.102  1.00  0.00     0.032 A 
HETATM   22  C22 UNL     1     -24.998   1.805  16.108  1.00  0.00     0.046 A 
HETATM   23  C23 UNL     1     -26.377   1.907  15.866  1.00  0.00     0.092 A 
BRANCH  21  24
HETATM   24  N5  UNL     1     -22.698   1.581  15.324  1.00  0.00    -0.382 N 
HETATM   25  C18 UNL     1     -21.879   0.973  14.285  1.00  0.00     0.150 C 
BRANCH  24  26
HETATM   26  C19 UNL     1     -22.041   2.042  16.511  1.00  0.00     0.149 C 
BRANCH  26  27
HETATM   27  C20 UNL     1     -20.676   1.401  16.581  1.00  0.00    -0.018 C 
HETATM   28  C21 UNL     1     -20.155   1.185  17.770  1.00  0.00     0.008 C 
ENDBRANCH  26  27
ENDBRANCH  24  26
ENDBRANCH  21  24
ENDBRANCH  17  18
ENDBRANCH  16  17
ENDBRANCH  15  16
ENDBRANCH   9  14
BRANCH   8  29
HETATM   29  N3  UNL     1     -32.137  -1.282  17.179  1.00  0.00    -0.383 N 
ATOM     30  H32 UNL     1     -31.834  -1.896  16.424  1.00  0.00     0.157 HD
ATOM     31  H31 UNL     1     -33.030  -0.801  17.078  1.00  0.00     0.157 HD
ENDBRANCH   8  29
TORSDOF 10
ENDMDL
MODEL 5
REMARK VINA RESULT: -5.854930862      2.643      7.557
REMARK  10 active torsions:
REMARK  status: ('A' for Active; 'I' for Inactive)
REMARK    1  A    between atoms: C3_4  and  C4_5 
REMARK    2  A    between atoms: C5_6  and  C6_7 
REMARK    3  A    between atoms: C9_12  and  N3_13 
REMARK    4  A    between atoms: C10_16  and  C11_17 
REMARK    5  A    between atoms: C12_18  and  C13_19 
REMARK    6  A    between atoms: C13_19  and  C14_20 
REMARK    7  A    between atoms: C14_20  and  N4_21 
REMARK    8  A    between atoms: C17_24  and  N5_25 
REMARK    9  A    between atoms: N5_25  and  C19_27 
REMARK   10  A    between atoms: C19_27  and  C20_28 
ROOT
HETATM    1  C1  UNL     1     -27.047   1.307  18.736  1.00  0.00     0.124 C 
HETATM    2  C2  UNL     1     -26.868   1.283  17.528  1.00  0.00    -0.067 C 
HETATM    3  N1  UNL     1     -26.683   1.239  16.130  1.00  0.00    -0.269 N 
HETATM    4  C3  UNL     1     -25.470   1.620  15.620  1.00  0.00     0.063 A 
HETATM    5  C8  UNL     1     -25.389   1.541  14.255  1.00  0.00     0.120 A 
HETATM    6  N2  UNL     1     -26.428   1.118  13.468  1.00  0.00    -0.348 N 
ATOM      7  H2  UNL     1     -26.311   1.078  12.455  1.00  0.00     0.167 HD
HETATM    8  C9  UNL     1     -27.588   0.758  14.012  1.00  0.00     0.136 A 
HETATM    9  C10 UNL     1     -27.710   0.823  15.374  1.00  0.00     0.144 A 
ENDROOT
BRANCH   4  10
HETATM   10  C4  UNL     1     -24.427   2.055  16.499  1.00  0.00     0.032 C 
HETATM   11  C5  UNL     1     -23.160   2.154  16.441  1.00  0.00     0.002 C 
BRANCH  11  12
HETATM   12  C6  UNL     1     -22.140   1.882  15.471  1.00  0.00    -0.010 C 
HETATM   13  C7  UNL     1     -21.002   1.276  15.841  1.00  0.00     0.011 C 
ENDBRANCH  11  12
ENDBRANCH   4  10
BRANCH   9  14
HETATM   14  C11 UNL     1     -28.973   0.432  15.970  1.00  0.00    -0.044 C 
HETATM   15  C12 UNL     1     -30.028   0.087  16.457  1.00  0.00    -0.098 C 
BRANCH  15  16
HETATM   16  C13 UNL     1     -31.297  -0.355  17.037  1.00  0.00     0.114 C 
BRANCH  16  17
HETATM   17  C14 UNL     1     -31.100  -1.395  18.111  1.00  0.00     0.139 C 
BRANCH  17  18
HETATM   18  N4  UNL     1     -30.449  -0.841  19.281  1.00  0.00    -0.365 N 
HETATM   19  C15 UNL     1     -30.893   0.298  19.885  1.00  0.00     0.092 A 
HETATM   20  C16 UNL     1     -30.281   0.824  20.988  1.00  0.00     0.046 A 
HETATM   21  C17 UNL     1     -29.167   0.200  21.535  1.00  0.00     0.032 A 
HETATM   22  C22 UNL     1     -28.742  -0.936  20.914  1.00  0.00     0.046 A 
HETATM   23  C23 UNL     1     -29.384  -1.460  19.780  1.00  0.00     0.092 A 
BRANCH  21  24
HETATM   24  N5  UNL     1     -28.540   0.739  22.676  1.00  0.00    -0.382 N 
HETATM   25  C18 UNL     1     -29.269   0.712  23.936  1.00  0.00     0.150 C 
BRANCH  24  26
HETATM   26  C19 UNL     1     -27.227   1.312  22.675  1.00  0.00     0.149 C 
BRANCH  26  27
HETATM   27  C20 UNL     1     -27.359   2.813  22.769  1.00  0.00    -0.018 C 
HETATM   28  C21 UNL     1     -27.395   3.501  21.647  1.00  0.00     0.008 C 
ENDBRANCH  26  27
ENDBRANCH  24  26
ENDBRANCH  21  24
ENDBRANCH  17  18
ENDBRANCH  16  17
ENDBRANCH  15  16
ENDBRANCH   9  14
BRANCH   8  29
HETATM   29  N3  UNL     1     -28.593   0.350  13.275  1.00  0.00    -0.383 N 
ATOM     30  H32 UNL     1     -29.228   1.025  12.849  1.00  0.00     0.157 HD
ATOM     31  H31 UNL     1     -28.765  -0.641  13.110  1.00  0.00     0.157 HD
ENDBRANCH   8  29
TORSDOF 10
ENDMDL
