MODEL 1
REMARK VINA RESULT: -6.186188356      0.000      0.000
REMARK  6 active torsions:
REMARK  status: ('A' for Active; 'I' for Inactive)
REMARK    1  A    between atoms: C2_2  and  N1_3 
REMARK    2  A    between atoms: N1_3  and  C3_4 
REMARK    3  A    between atoms: N1_3  and  C5_6 
REMARK    4  A    between atoms: C5_6  and  C6_7 
REMARK    5  A    between atoms: C6_7  and  N2_8 
REMARK       I    between atoms: C7_10  and  N4_12 
REMARK    6  A    between atoms: N4_12  and  C8_13 
ROOT
HETATM    1  N2  UNL     1      14.148 -10.003  21.074  1.00  0.00    -0.351 N 
ATOM      2  H2  UNL     1      14.630  -9.671  21.910  1.00  0.00     0.163 HD
HETATM    3  C7  UNL     1      14.740 -10.896  20.313  1.00  0.00     0.265 C 
HETATM    4  N3  UNL     1      13.966 -11.285  19.147  1.00  0.00    -0.049 NA
HETATM    5  N4  UNL     1      15.897 -11.454  20.596  1.00  0.00    -0.354 NA
ENDROOT
BRANCH   1   6
HETATM    6  C6  UNL     1      12.859  -9.481  20.773  1.00  0.00     0.153 C 
BRANCH   6   7
HETATM    7  C5  UNL     1      11.857  -9.556  21.833  1.00  0.00     0.292 C 
BRANCH   7   8
HETATM    8  N1  UNL     1      11.951 -10.576  22.828  1.00  0.00     0.089 N 
BRANCH   8   9
HETATM    9  C2  UNL     1      11.422 -10.012  24.066  1.00  0.00     0.268 C 
HETATM   10  C1  UNL     1      11.912  -8.565  24.231  1.00  0.00     0.037 C 
ENDBRANCH   8   9
BRANCH   8  11
HETATM   11  C3  UNL     1      11.381 -11.828  22.458  1.00  0.00     0.268 C 
HETATM   12  C4  UNL     1      12.475 -12.878  22.239  1.00  0.00     0.037 C 
ENDBRANCH   8  11
ENDBRANCH   7   8
ENDBRANCH   6   7
ENDBRANCH   1   6
BRANCH   5  13
HETATM   13  C8  UNL     1      16.900 -11.953  20.829  1.00  0.00     0.199 A 
HETATM   14  C9  UNL     1      18.055 -11.719  20.037  1.00  0.00     0.154 A 
HETATM   15  N5  UNL     1      19.246 -12.245  20.300  1.00  0.00    -0.364 N 
HETATM   16  C10 UNL     1      20.427 -11.964  19.469  1.00  0.00     0.155 C 
HETATM   17  C11 UNL     1      19.356 -13.041  21.371  1.00  0.00     0.127 A 
HETATM   18  C12 UNL     1      18.271 -13.320  22.198  1.00  0.00     0.097 A 
HETATM   19 BR1  UNL     1      18.461 -14.464  23.708  1.00  0.00    -0.030 Br
HETATM   20  N6  UNL     1      17.078 -12.783  21.920  1.00  0.00    -0.323 N 
ATOM     21  H6  UNL     1      16.283 -12.989  22.524  1.00  0.00     0.169 HD
ENDBRANCH   5  13
TORSDOF 6
ENDMDL
MODEL 2
REMARK VINA RESULT: -6.143065874      2.457      7.167
REMARK  6 active torsions:
REMARK  status: ('A' for Active; 'I' for Inactive)
REMARK    1  A    between atoms: C2_2  and  N1_3 
REMARK    2  A    between atoms: N1_3  and  C3_4 
REMARK    3  A    between atoms: N1_3  and  C5_6 
REMARK    4  A    between atoms: C5_6  and  C6_7 
REMARK    5  A    between atoms: C6_7  and  N2_8 
REMARK       I    between atoms: C7_10  and  N4_12 
REMARK    6  A    between atoms: N4_12  and  C8_13 
ROOT
HETATM    1  N2  UNL     1      15.857 -11.109  20.437  1.00  0.00    -0.351 N 
ATOM      2  H2  UNL     1      16.254 -11.024  21.372  1.00  0.00     0.163 HD
HETATM    3  C7  UNL     1      14.555 -11.006  20.288  1.00  0.00     0.265 C 
HETATM    4  N3  UNL     1      14.103 -11.153  18.915  1.00  0.00    -0.049 NA
HETATM    5  N4  UNL     1      13.722 -10.724  21.266  1.00  0.00    -0.354 NA
ENDROOT
BRANCH   1   6
HETATM    6  C6  UNL     1      16.732 -11.336  19.338  1.00  0.00     0.153 C 
BRANCH   6   7
HETATM    7  C5  UNL     1      17.843 -12.257  19.564  1.00  0.00     0.292 C 
BRANCH   7   8
HETATM    8  N1  UNL     1      18.777 -11.998  20.614  1.00  0.00     0.089 N 
BRANCH   8   9
HETATM    9  C2  UNL     1      18.627 -13.074  21.590  1.00  0.00     0.268 C 
HETATM   10  C1  UNL     1      19.997 -13.432  22.187  1.00  0.00     0.037 C 
ENDBRANCH   8   9
BRANCH   8  11
HETATM   11  C3  UNL     1      20.116 -11.774  20.182  1.00  0.00     0.268 C 
HETATM   12  C4  UNL     1      20.237 -11.978  18.668  1.00  0.00     0.037 C 
ENDBRANCH   8  11
ENDBRANCH   7   8
ENDBRANCH   6   7
ENDBRANCH   1   6
BRANCH   5  13
HETATM   13  C8  UNL     1      12.984 -10.476  22.104  1.00  0.00     0.199 A 
HETATM   14  C9  UNL     1      12.075 -11.441  22.613  1.00  0.00     0.154 A 
HETATM   15  N5  UNL     1      11.233 -11.204  23.612  1.00  0.00    -0.364 N 
HETATM   16  C10 UNL     1      10.319 -12.235  24.127  1.00  0.00     0.155 C 
HETATM   17  C11 UNL     1      11.246  -9.984  24.164  1.00  0.00     0.127 A 
HETATM   18  C12 UNL     1      12.107  -8.982  23.724  1.00  0.00     0.097 A 
HETATM   19 BR1  UNL     1      12.092  -7.256  24.527  1.00  0.00    -0.030 Br
HETATM   20  N6  UNL     1      12.949  -9.237  22.715  1.00  0.00    -0.323 N 
ATOM     21  H6  UNL     1      13.578  -8.503  22.391  1.00  0.00     0.169 HD
ENDBRANCH   5  13
TORSDOF 6
ENDMDL
MODEL 3
REMARK VINA RESULT: -6.089969441      1.127      2.178
REMARK  6 active torsions:
REMARK  status: ('A' for Active; 'I' for Inactive)
REMARK    1  A    between atoms: C2_2  and  N1_3 
REMARK    2  A    between atoms: N1_3  and  C3_4 
REMARK    3  A    between atoms: N1_3  and  C5_6 
REMARK    4  A    between atoms: C5_6  and  C6_7 
REMARK    5  A    between atoms: C6_7  and  N2_8 
REMARK       I    between atoms: C7_10  and  N4_12 
REMARK    6  A    between atoms: N4_12  and  C8_13 
ROOT
HETATM    1  N2  UNL     1      13.664 -12.788  22.020  1.00  0.00    -0.351 N 
ATOM      2  H2  UNL     1      14.004 -12.801  22.981  1.00  0.00     0.163 HD
HETATM    3  C7  UNL     1      14.539 -12.794  21.038  1.00  0.00     0.265 C 
HETATM    4  N3  UNL     1      13.941 -12.764  19.714  1.00  0.00    -0.049 NA
HETATM    5  N4  UNL     1      15.839 -12.888  21.210  1.00  0.00    -0.354 NA
ENDROOT
BRANCH   1   6
HETATM    6  C6  UNL     1      12.261 -12.765  21.787  1.00  0.00     0.153 C 
BRANCH   6   7
HETATM    7  C5  UNL     1      11.482 -11.810  22.571  1.00  0.00     0.292 C 
BRANCH   7   8
HETATM    8  N1  UNL     1      12.025 -10.520  22.862  1.00  0.00     0.089 N 
BRANCH   8   9
HETATM    9  C2  UNL     1      11.974  -9.749  21.623  1.00  0.00     0.268 C 
HETATM   10  C1  UNL     1      13.399  -9.407  21.161  1.00  0.00     0.037 C 
ENDBRANCH   8   9
BRANCH   8  11
HETATM   11  C3  UNL     1      11.448  -9.868  23.988  1.00  0.00     0.268 C 
HETATM   12  C4  UNL     1      12.061  -8.477  24.182  1.00  0.00     0.037 C 
ENDBRANCH   8  11
ENDBRANCH   7   8
ENDBRANCH   6   7
ENDBRANCH   1   6
BRANCH   5  13
HETATM   13  C8  UNL     1      16.972 -12.974  21.343  1.00  0.00     0.199 A 
HETATM   14  C9  UNL     1      17.878 -12.566  20.328  1.00  0.00     0.154 A 
HETATM   15  N5  UNL     1      19.200 -12.612  20.460  1.00  0.00    -0.364 N 
HETATM   16  C10 UNL     1      20.108 -12.161  19.395  1.00  0.00     0.155 C 
HETATM   17  C11 UNL     1      19.697 -13.070  21.615  1.00  0.00     0.127 A 
HETATM   18  C12 UNL     1      18.876 -13.489  22.659  1.00  0.00     0.097 A 
HETATM   19 BR1  UNL     1      19.619 -14.144  24.285  1.00  0.00    -0.030 Br
HETATM   20  N6  UNL     1      17.547 -13.438  22.511  1.00  0.00    -0.323 N 
ATOM     21  H6  UNL     1      16.947 -13.747  23.274  1.00  0.00     0.169 HD
ENDBRANCH   5  13
TORSDOF 6
ENDMDL
MODEL 4
REMARK VINA RESULT: -6.079274341      3.235      6.985
REMARK  6 active torsions:
REMARK  status: ('A' for Active; 'I' for Inactive)
REMARK    1  A    between atoms: C2_2  and  N1_3 
REMARK    2  A    between atoms: N1_3  and  C3_4 
REMARK    3  A    between atoms: N1_3  and  C5_6 
REMARK    4  A    between atoms: C5_6  and  C6_7 
REMARK    5  A    between atoms: C6_7  and  N2_8 
REMARK       I    between atoms: C7_10  and  N4_12 
REMARK    6  A    between atoms: N4_12  and  C8_13 
ROOT
HETATM    1  N2  UNL     1      18.263 -13.225  22.161  1.00  0.00    -0.351 N 
ATOM      2  H2  UNL     1      17.769 -13.967  22.656  1.00  0.00     0.163 HD
HETATM    3  C7  UNL     1      17.575 -12.403  21.399  1.00  0.00     0.265 C 
HETATM    4  N3  UNL     1      18.383 -11.395  20.735  1.00  0.00    -0.049 NA
HETATM    5  N4  UNL     1      16.264 -12.426  21.287  1.00  0.00    -0.354 NA
ENDROOT
BRANCH   1   6
HETATM    6  C6  UNL     1      19.673 -13.116  22.316  1.00  0.00     0.153 C 
BRANCH   6   7
HETATM    7  C5  UNL     1      20.255 -13.765  23.488  1.00  0.00     0.292 C 
BRANCH   7   8
HETATM    8  N1  UNL     1      19.793 -13.418  24.795  1.00  0.00     0.089 N 
BRANCH   8   9
HETATM    9  C2  UNL     1      19.434 -14.665  25.462  1.00  0.00     0.268 C 
HETATM   10  C1  UNL     1      17.919 -14.899  25.352  1.00  0.00     0.037 C 
ENDBRANCH   8   9
BRANCH   8  11
HETATM   11  C3  UNL     1      20.673 -12.581  25.538  1.00  0.00     0.268 C 
HETATM   12  C4  UNL     1      20.766 -13.051  26.994  1.00  0.00     0.037 C 
ENDBRANCH   8  11
ENDBRANCH   7   8
ENDBRANCH   6   7
ENDBRANCH   1   6
BRANCH   5  13
HETATM   13  C8  UNL     1      15.125 -12.429  21.182  1.00  0.00     0.199 A 
HETATM   14  C9  UNL     1      14.436 -13.490  20.536  1.00  0.00     0.154 A 
HETATM   15  N5  UNL     1      13.113 -13.551  20.430  1.00  0.00    -0.364 N 
HETATM   16  C10 UNL     1      12.432 -14.676  19.772  1.00  0.00     0.155 C 
HETATM   17  C11 UNL     1      12.397 -12.553  20.962  1.00  0.00     0.127 A 
HETATM   18  C12 UNL     1      12.997 -11.477  21.612  1.00  0.00     0.097 A 
HETATM   19 BR1  UNL     1      11.947 -10.071  22.350  1.00  0.00    -0.030 Br
HETATM   20  N6  UNL     1      14.330 -11.430  21.710  1.00  0.00    -0.323 N 
ATOM     21  H6  UNL     1      14.769 -10.641  22.184  1.00  0.00     0.169 HD
ENDBRANCH   5  13
TORSDOF 6
ENDMDL
MODEL 5
REMARK VINA RESULT: -6.056652937      1.815      2.998
REMARK  6 active torsions:
REMARK  status: ('A' for Active; 'I' for Inactive)
REMARK    1  A    between atoms: C2_2  and  N1_3 
REMARK    2  A    between atoms: N1_3  and  C3_4 
REMARK    3  A    between atoms: N1_3  and  C5_6 
REMARK    4  A    between atoms: C5_6  and  C6_7 
REMARK    5  A    between atoms: C6_7  and  N2_8 
REMARK       I    between atoms: C7_10  and  N4_12 
REMARK    6  A    between atoms: N4_12  and  C8_13 
ROOT
HETATM    1  N2  UNL     1      13.556 -12.788  22.162  1.00  0.00    -0.351 N 
ATOM      2  H2  UNL     1      13.888 -12.827  23.125  1.00  0.00     0.163 HD
HETATM    3  C7  UNL     1      14.437 -12.809  21.185  1.00  0.00     0.265 C 
HETATM    4  N3  UNL     1      13.850 -12.739  19.858  1.00  0.00    -0.049 NA
HETATM    5  N4  UNL     1      15.732 -12.952  21.365  1.00  0.00    -0.354 NA
ENDROOT
BRANCH   1   6
HETATM    6  C6  UNL     1      12.156 -12.712  21.921  1.00  0.00     0.153 C 
BRANCH   6   7
HETATM    7  C5  UNL     1      11.415 -11.705  22.675  1.00  0.00     0.292 C 
BRANCH   7   8
HETATM    8  N1  UNL     1      12.008 -10.431  22.931  1.00  0.00     0.089 N 
BRANCH   8   9
HETATM    9  C2  UNL     1      12.046  -9.716  21.659  1.00  0.00     0.268 C 
HETATM   10  C1  UNL     1      13.498  -9.363  21.301  1.00  0.00     0.037 C 
ENDBRANCH   8   9
BRANCH   8  11
HETATM   11  C3  UNL     1      11.418  -9.701  24.002  1.00  0.00     0.268 C 
HETATM   12  C4  UNL     1      12.155  -8.375  24.225  1.00  0.00     0.037 C 
ENDBRANCH   8  11
ENDBRANCH   7   8
ENDBRANCH   6   7
ENDBRANCH   1   6
BRANCH   5  13
HETATM   13  C8  UNL     1      16.860 -13.079  21.503  1.00  0.00     0.199 A 
HETATM   14  C9  UNL     1      17.402 -13.838  22.574  1.00  0.00     0.154 A 
HETATM   15  N5  UNL     1      18.704 -14.043  22.746  1.00  0.00    -0.364 N 
HETATM   16  C10 UNL     1      19.229 -14.852  23.856  1.00  0.00     0.155 C 
HETATM   17  C11 UNL     1      19.545 -13.500  21.856  1.00  0.00     0.127 A 
HETATM   18  C12 UNL     1      19.093 -12.744  20.778  1.00  0.00     0.097 A 
HETATM   19 BR1  UNL     1      20.318 -11.980  19.537  1.00  0.00    -0.030 Br
HETATM   20  N6  UNL     1      17.779 -12.546  20.620  1.00  0.00    -0.323 N 
ATOM     21  H6  UNL     1      17.449 -11.989  19.832  1.00  0.00     0.169 HD
ENDBRANCH   5  13
TORSDOF 6
ENDMDL
