MODEL 1
REMARK VINA RESULT: -5.979772110      0.000      0.000
REMARK  9 active torsions:
REMARK  status: ('A' for Active; 'I' for Inactive)
REMARK    1  A    between atoms: N1_2  and  C3_4 
REMARK    2  A    between atoms: C3_4  and  C4_5 
REMARK    3  A    between atoms: C4_5  and  C5_6 
REMARK    4  A    between atoms: C5_6  and  N2_7 
REMARK    5  A    between atoms: N2_7  and  C6_9 
REMARK    6  A    between atoms: C6_9  and  N3_11 
REMARK    7  A    between atoms: N3_11  and  C7_12 
REMARK    8  A    between atoms: C7_12  and  C8_13 
REMARK    9  A    between atoms: N5_16  and  O1_17 
ROOT
HETATM    1  N3  UNL     1      14.097 -10.450  20.981  1.00  0.00    -0.387 NA
ENDROOT
BRANCH   1   2
HETATM    2  C6  UNL     1      14.880 -11.117  20.159  1.00  0.00     0.244 C 
HETATM    3  S1  UNL     1      14.291 -12.450  19.294  1.00  0.00    -0.025 SA
BRANCH   2   4
HETATM    4  N2  UNL     1      16.258 -10.897  19.933  1.00  0.00    -0.356 N 
ATOM      5  H2  UNL     1      16.736 -10.171  20.467  1.00  0.00     0.162 HD
BRANCH   4   6
HETATM    6  C5  UNL     1      17.001 -11.658  18.979  1.00  0.00     0.125 C 
BRANCH   6   7
HETATM    7  C4  UNL     1      18.359 -12.050  19.636  1.00  0.00     0.050 C 
BRANCH   7   8
HETATM    8  C3  UNL     1      18.273 -11.686  21.065  1.00  0.00     0.273 C 
BRANCH   8   9
HETATM    9  N1  UNL     1      18.607 -12.727  22.020  1.00  0.00     0.080 N 
HETATM   10  C1  UNL     1      17.367 -13.501  22.270  1.00  0.00     0.309 C 
HETATM   11  C2  UNL     1      19.613 -13.641  21.474  1.00  0.00     0.309 C 
ENDBRANCH   8   9
ENDBRANCH   7   8
ENDBRANCH   6   7
ENDBRANCH   4   6
ENDBRANCH   2   4
ENDBRANCH   1   2
BRANCH   1  12
HETATM   12  C7  UNL     1      13.396  -9.846  21.714  1.00  0.00     0.218 C 
BRANCH  12  13
HETATM   13  C8  UNL     1      12.430 -10.182  22.734  1.00  0.00     0.098 A 
HETATM   14  N4  UNL     1      11.761 -11.358  22.823  1.00  0.00    -0.271 N 
HETATM   15  N5  UNL     1      10.888 -11.331  23.785  1.00  0.00    -0.173 N 
ATOM     16  H4  UNL     1      11.923 -12.160  22.214  1.00  0.00     0.189 HD
HETATM   17  C9  UNL     1      10.946 -10.141  24.371  1.00  0.00     0.165 A 
HETATM   18  C10 UNL     1      11.924  -9.376  23.726  1.00  0.00     0.061 A 
HETATM   19 BR1  UNL     1      12.435  -7.623  24.250  1.00  0.00    -0.047 Br
BRANCH  15  20
HETATM   20  O1  UNL     1       9.990 -12.337  24.194  1.00  0.00    -0.268 OA
ATOM     21  H1  UNL     1       9.920 -12.767  25.038  1.00  0.00     0.247 HD
ENDBRANCH  15  20
ENDBRANCH  12  13
ENDBRANCH   1  12
TORSDOF 9
ENDMDL
MODEL 2
REMARK VINA RESULT: -5.897178949      2.135      2.311
REMARK  9 active torsions:
REMARK  status: ('A' for Active; 'I' for Inactive)
REMARK    1  A    between atoms: N1_2  and  C3_4 
REMARK    2  A    between atoms: C3_4  and  C4_5 
REMARK    3  A    between atoms: C4_5  and  C5_6 
REMARK    4  A    between atoms: C5_6  and  N2_7 
REMARK    5  A    between atoms: N2_7  and  C6_9 
REMARK    6  A    between atoms: C6_9  and  N3_11 
REMARK    7  A    between atoms: N3_11  and  C7_12 
REMARK    8  A    between atoms: C7_12  and  C8_13 
REMARK    9  A    between atoms: N5_16  and  O1_17 
ROOT
HETATM    1  N3  UNL     1      15.016 -10.702  20.346  1.00  0.00    -0.387 NA
ENDROOT
BRANCH   1   2
HETATM    2  C6  UNL     1      16.009 -11.332  19.756  1.00  0.00     0.244 C 
HETATM    3  S1  UNL     1      15.737 -12.281  18.379  1.00  0.00    -0.025 SA
BRANCH   2   4
HETATM    4  N2  UNL     1      17.356 -11.381  20.183  1.00  0.00    -0.356 N 
ATOM      5  H2  UNL     1      17.610 -10.940  21.067  1.00  0.00     0.162 HD
BRANCH   4   6
HETATM    6  C5  UNL     1      18.372 -12.030  19.416  1.00  0.00     0.125 C 
BRANCH   6   7
HETATM    7  C4  UNL     1      19.689 -12.003  20.248  1.00  0.00     0.050 C 
BRANCH   7   8
HETATM    8  C3  UNL     1      19.733 -13.251  21.037  1.00  0.00     0.273 C 
BRANCH   8   9
HETATM    9  N1  UNL     1      19.505 -13.125  22.465  1.00  0.00     0.080 N 
HETATM   10  C1  UNL     1      18.289 -13.912  22.782  1.00  0.00     0.309 C 
HETATM   11  C2  UNL     1      20.622 -13.682  23.229  1.00  0.00     0.309 C 
ENDBRANCH   8   9
ENDBRANCH   7   8
ENDBRANCH   6   7
ENDBRANCH   4   6
ENDBRANCH   2   4
ENDBRANCH   1   2
BRANCH   1  12
HETATM   12  C7  UNL     1      14.119 -10.143  20.874  1.00  0.00     0.218 C 
BRANCH  12  13
HETATM   13  C8  UNL     1      12.983 -10.536  21.674  1.00  0.00     0.098 A 
HETATM   14  N4  UNL     1      12.370  -9.758  22.600  1.00  0.00    -0.271 N 
HETATM   15  N5  UNL     1      11.443 -10.418  23.228  1.00  0.00    -0.173 N 
ATOM     16  H4  UNL     1      12.606  -8.782  22.779  1.00  0.00     0.189 HD
HETATM   17  C9  UNL     1      11.404 -11.653  22.743  1.00  0.00     0.165 A 
HETATM   18  C10 UNL     1      12.376 -11.767  21.743  1.00  0.00     0.061 A 
HETATM   19 BR1  UNL     1      12.658 -13.324  20.693  1.00  0.00    -0.047 Br
BRANCH  15  20
HETATM   20  O1  UNL     1      10.592  -9.979  24.263  1.00  0.00    -0.268 OA
ATOM     21  H1  UNL     1      10.511 -10.309  25.150  1.00  0.00     0.247 HD
ENDBRANCH  15  20
ENDBRANCH  12  13
ENDBRANCH   1  12
TORSDOF 9
ENDMDL
MODEL 3
REMARK VINA RESULT: -5.857025699      2.250      3.678
REMARK  9 active torsions:
REMARK  status: ('A' for Active; 'I' for Inactive)
REMARK    1  A    between atoms: N1_2  and  C3_4 
REMARK    2  A    between atoms: C3_4  and  C4_5 
REMARK    3  A    between atoms: C4_5  and  C5_6 
REMARK    4  A    between atoms: C5_6  and  N2_7 
REMARK    5  A    between atoms: N2_7  and  C6_9 
REMARK    6  A    between atoms: C6_9  and  N3_11 
REMARK    7  A    between atoms: N3_11  and  C7_12 
REMARK    8  A    between atoms: C7_12  and  C8_13 
REMARK    9  A    between atoms: N5_16  and  O1_17 
ROOT
HETATM    1  N3  UNL     1      14.304 -10.559  21.128  1.00  0.00    -0.387 NA
ENDROOT
BRANCH   1   2
HETATM    2  C6  UNL     1      15.317 -11.189  20.572  1.00  0.00     0.244 C 
HETATM    3  S1  UNL     1      16.109 -12.445  21.389  1.00  0.00    -0.025 SA
BRANCH   2   4
HETATM    4  N2  UNL     1      15.919 -10.896  19.327  1.00  0.00    -0.356 N 
ATOM      5  H2  UNL     1      15.844  -9.950  18.952  1.00  0.00     0.162 HD
BRANCH   4   6
HETATM    6  C5  UNL     1      16.629 -11.884  18.576  1.00  0.00     0.125 C 
BRANCH   6   7
HETATM    7  C4  UNL     1      16.077 -11.862  17.119  1.00  0.00     0.050 C 
BRANCH   7   8
HETATM    8  C3  UNL     1      17.037 -11.094  16.300  1.00  0.00     0.273 C 
BRANCH   8   9
HETATM    9  N1  UNL     1      16.673 -10.869  14.913  1.00  0.00     0.080 N 
HETATM   10  C1  UNL     1      16.626 -12.197  14.255  1.00  0.00     0.309 C 
HETATM   11  C2  UNL     1      15.344 -10.261  14.809  1.00  0.00     0.309 C 
ENDBRANCH   8   9
ENDBRANCH   7   8
ENDBRANCH   6   7
ENDBRANCH   4   6
ENDBRANCH   2   4
ENDBRANCH   1   2
BRANCH   1  12
HETATM   12  C7  UNL     1      13.399  -9.987  21.628  1.00  0.00     0.218 C 
BRANCH  12  13
HETATM   13  C8  UNL     1      12.424 -10.287  22.650  1.00  0.00     0.098 A 
HETATM   14  N4  UNL     1      11.722 -11.441  22.749  1.00  0.00    -0.271 N 
HETATM   15  N5  UNL     1      10.849 -11.380  23.710  1.00  0.00    -0.173 N 
ATOM     16  H4  UNL     1      11.861 -12.253  22.147  1.00  0.00     0.189 HD
HETATM   17  C9  UNL     1      10.941 -10.188  24.285  1.00  0.00     0.165 A 
HETATM   18  C10 UNL     1      11.942  -9.457  23.634  1.00  0.00     0.061 A 
HETATM   19 BR1  UNL     1      12.502  -7.715  24.142  1.00  0.00    -0.047 Br
BRANCH  15  20
HETATM   20  O1  UNL     1       9.923 -12.357  24.128  1.00  0.00    -0.268 OA
ATOM     21  H1  UNL     1       9.966 -13.301  24.029  1.00  0.00     0.247 HD
ENDBRANCH  15  20
ENDBRANCH  12  13
ENDBRANCH   1  12
TORSDOF 9
ENDMDL
MODEL 4
REMARK VINA RESULT: -5.835185117      2.307      2.649
REMARK  9 active torsions:
REMARK  status: ('A' for Active; 'I' for Inactive)
REMARK    1  A    between atoms: N1_2  and  C3_4 
REMARK    2  A    between atoms: C3_4  and  C4_5 
REMARK    3  A    between atoms: C4_5  and  C5_6 
REMARK    4  A    between atoms: C5_6  and  N2_7 
REMARK    5  A    between atoms: N2_7  and  C6_9 
REMARK    6  A    between atoms: C6_9  and  N3_11 
REMARK    7  A    between atoms: N3_11  and  C7_12 
REMARK    8  A    between atoms: C7_12  and  C8_13 
REMARK    9  A    between atoms: N5_16  and  O1_17 
ROOT
HETATM    1  N3  UNL     1      15.119 -10.713  20.379  1.00  0.00    -0.387 NA
ENDROOT
BRANCH   1   2
HETATM    2  C6  UNL     1      16.276 -11.244  20.046  1.00  0.00     0.244 C 
HETATM    3  S1  UNL     1      16.517 -11.898  18.501  1.00  0.00    -0.025 SA
BRANCH   2   4
HETATM    4  N2  UNL     1      17.404 -11.415  20.881  1.00  0.00    -0.356 N 
ATOM      5  H2  UNL     1      17.281 -11.364  21.893  1.00  0.00     0.162 HD
BRANCH   4   6
HETATM    6  C5  UNL     1      18.710 -11.656  20.354  1.00  0.00     0.125 C 
BRANCH   6   7
HETATM    7  C4  UNL     1      19.249 -12.969  20.997  1.00  0.00     0.050 C 
BRANCH   7   8
HETATM    8  C3  UNL     1      18.493 -13.185  22.247  1.00  0.00     0.273 C 
BRANCH   8   9
HETATM    9  N1  UNL     1      19.074 -14.107  23.205  1.00  0.00     0.080 N 
HETATM   10  C1  UNL     1      20.341 -13.499  23.680  1.00  0.00     0.309 C 
HETATM   11  C2  UNL     1      18.194 -14.291  24.362  1.00  0.00     0.309 C 
ENDBRANCH   8   9
ENDBRANCH   7   8
ENDBRANCH   6   7
ENDBRANCH   4   6
ENDBRANCH   2   4
ENDBRANCH   1   2
BRANCH   1  12
HETATM   12  C7  UNL     1      14.079 -10.242  20.682  1.00  0.00     0.218 C 
BRANCH  12  13
HETATM   13  C8  UNL     1      12.972 -10.635  21.521  1.00  0.00     0.098 A 
HETATM   14  N4  UNL     1      12.367  -9.846  22.442  1.00  0.00    -0.271 N 
HETATM   15  N5  UNL     1      11.469 -10.506  23.111  1.00  0.00    -0.173 N 
ATOM     16  H4  UNL     1      12.587  -8.861  22.589  1.00  0.00     0.189 HD
HETATM   17  C9  UNL     1      11.443 -11.754  22.660  1.00  0.00     0.165 A 
HETATM   18  C10 UNL     1      12.391 -11.877  21.638  1.00  0.00     0.061 A 
HETATM   19 BR1  UNL     1      12.678 -13.455  20.623  1.00  0.00    -0.047 Br
BRANCH  15  20
HETATM   20  O1  UNL     1      10.635 -10.056  24.155  1.00  0.00    -0.268 OA
ATOM     21  H1  UNL     1      10.740 -10.168  25.092  1.00  0.00     0.247 HD
ENDBRANCH  15  20
ENDBRANCH  12  13
ENDBRANCH   1  12
TORSDOF 9
ENDMDL
MODEL 5
REMARK VINA RESULT: -5.825715145      2.272      2.615
REMARK  9 active torsions:
REMARK  status: ('A' for Active; 'I' for Inactive)
REMARK    1  A    between atoms: N1_2  and  C3_4 
REMARK    2  A    between atoms: C3_4  and  C4_5 
REMARK    3  A    between atoms: C4_5  and  C5_6 
REMARK    4  A    between atoms: C5_6  and  N2_7 
REMARK    5  A    between atoms: N2_7  and  C6_9 
REMARK    6  A    between atoms: C6_9  and  N3_11 
REMARK    7  A    between atoms: N3_11  and  C7_12 
REMARK    8  A    between atoms: C7_12  and  C8_13 
REMARK    9  A    between atoms: N5_16  and  O1_17 
ROOT
HETATM    1  N3  UNL     1      15.055 -10.702  20.305  1.00  0.00    -0.387 NA
ENDROOT
BRANCH   1   2
HETATM    2  C6  UNL     1      16.244 -11.178  20.004  1.00  0.00     0.244 C 
HETATM    3  S1  UNL     1      16.516 -11.953  18.521  1.00  0.00    -0.025 SA
BRANCH   2   4
HETATM    4  N2  UNL     1      17.389 -11.190  20.832  1.00  0.00    -0.356 N 
ATOM      5  H2  UNL     1      17.330 -10.775  21.762  1.00  0.00     0.162 HD
BRANCH   4   6
HETATM    6  C5  UNL     1      18.628 -11.765  20.408  1.00  0.00     0.125 C 
BRANCH   6   7
HETATM    7  C4  UNL     1      19.091 -12.765  21.509  1.00  0.00     0.050 C 
BRANCH   7   8
HETATM    8  C3  UNL     1      18.681 -14.115  21.072  1.00  0.00     0.273 C 
BRANCH   8   9
HETATM    9  N1  UNL     1      17.712 -14.801  21.907  1.00  0.00     0.080 N 
HETATM   10  C1  UNL     1      17.742 -14.145  23.236  1.00  0.00     0.309 C 
HETATM   11  C2  UNL     1      16.359 -14.668  21.363  1.00  0.00     0.309 C 
ENDBRANCH   8   9
ENDBRANCH   7   8
ENDBRANCH   6   7
ENDBRANCH   4   6
ENDBRANCH   2   4
ENDBRANCH   1   2
BRANCH   1  12
HETATM   12  C7  UNL     1      13.991 -10.270  20.582  1.00  0.00     0.218 C 
BRANCH  12  13
HETATM   13  C8  UNL     1      12.914 -10.659  21.462  1.00  0.00     0.098 A 
HETATM   14  N4  UNL     1      12.318  -9.854  22.375  1.00  0.00    -0.271 N 
HETATM   15  N5  UNL     1      11.452 -10.511  23.087  1.00  0.00    -0.173 N 
ATOM     16  H4  UNL     1      12.523  -8.862  22.489  1.00  0.00     0.189 HD
HETATM   17  C9  UNL     1      11.438 -11.772  22.673  1.00  0.00     0.165 A 
HETATM   18  C10 UNL     1      12.362 -11.907  21.630  1.00  0.00     0.061 A 
HETATM   19 BR1  UNL     1      12.652 -13.509  20.654  1.00  0.00    -0.047 Br
BRANCH  15  20
HETATM   20  O1  UNL     1      10.637 -10.047  24.140  1.00  0.00    -0.268 OA
ATOM     21  H1  UNL     1      10.701 -10.231  25.069  1.00  0.00     0.247 HD
ENDBRANCH  15  20
ENDBRANCH  12  13
ENDBRANCH   1  12
TORSDOF 9
ENDMDL
