MODEL 1
REMARK VINA RESULT: -5.807929143      0.000      0.000
REMARK  6 active torsions:
REMARK  status: ('A' for Active; 'I' for Inactive)
REMARK    1  A    between atoms: N1_2  and  C3_4 
REMARK    2  A    between atoms: N1_2  and  C5_8 
REMARK    3  A    between atoms: C3_4  and  C4_5 
REMARK    4  A    between atoms: C4_5  and  O1_6 
REMARK    5  A    between atoms: C5_8  and  C6_9 
REMARK    6  A    between atoms: C6_9  and  N2_10 
ROOT
HETATM    1  C5  UNL     1      15.578 -12.606  20.498  1.00  0.00     0.158 C 
HETATM    2  C7  UNL     1      15.993 -12.741  21.935  1.00  0.00     0.079 C 
HETATM    3  C8  UNL     1      17.126 -13.636  21.491  1.00  0.00     0.071 C 
HETATM    4  C9  UNL     1      16.589 -13.649  20.102  1.00  0.00     0.079 C 
HETATM    5  O2  UNL     1      17.114 -14.842  22.177  1.00  0.00    -0.373 OA
HETATM    6  C10 UNL     1      18.401 -15.076  22.645  1.00  0.00     0.137 C 
HETATM    7  C11 UNL     1      19.299 -15.236  21.457  1.00  0.00     0.034 C 
HETATM    8  C12 UNL     1      19.470 -13.824  20.870  1.00  0.00     0.011 C 
HETATM    9  C13 UNL     1      18.483 -13.043  21.704  1.00  0.00     0.037 C 
HETATM   10  C14 UNL     1      18.792 -13.652  23.085  1.00  0.00     0.093 C 
HETATM   11 BR1  UNL     1      20.656 -13.568  23.496  1.00  0.00    -0.088 Br
ENDROOT
BRANCH   1  12
HETATM   12  N1  UNL     1      14.198 -12.941  20.290  1.00  0.00    -0.062 N 
HETATM   13  C1  UNL     1      13.451 -11.723  20.056  1.00  0.00     0.273 C 
HETATM   14  C2  UNL     1      13.965 -13.842  19.206  1.00  0.00     0.273 C 
BRANCH  12  15
HETATM   15  C3  UNL     1      13.680 -13.529  21.509  1.00  0.00     0.263 C 
BRANCH  15  16
HETATM   16  C4  UNL     1      12.987 -14.850  21.258  1.00  0.00     0.192 C 
BRANCH  16  17
HETATM   17  O1  UNL     1      13.075 -15.563  22.477  1.00  0.00    -0.399 OA
ATOM     18  H1  UNL     1      13.682 -16.275  22.313  1.00  0.00     0.209 HD
ENDBRANCH  16  17
ENDBRANCH  15  16
ENDBRANCH  12  15
ENDBRANCH   1  12
BRANCH   1  19
HETATM   19  C6  UNL     1      15.940 -11.276  19.922  1.00  0.00     0.269 C 
BRANCH  19  20
HETATM   20  N2  UNL     1      16.606 -11.349  18.639  1.00  0.00    -0.077 N 
ATOM     21  H23 UNL     1      17.161 -12.203  18.573  1.00  0.00     0.274 HD
ATOM     22  H22 UNL     1      15.930 -11.524  17.896  1.00  0.00     0.274 HD
ATOM     23  H21 UNL     1      17.177 -10.533  18.419  1.00  0.00     0.274 HD
ENDBRANCH  19  20
ENDBRANCH   1  19
TORSDOF 6
ENDMDL
MODEL 2
REMARK VINA RESULT: -5.777022332      1.677      2.180
REMARK  6 active torsions:
REMARK  status: ('A' for Active; 'I' for Inactive)
REMARK    1  A    between atoms: N1_2  and  C3_4 
REMARK    2  A    between atoms: N1_2  and  C5_8 
REMARK    3  A    between atoms: C3_4  and  C4_5 
REMARK    4  A    between atoms: C4_5  and  O1_6 
REMARK    5  A    between atoms: C5_8  and  C6_9 
REMARK    6  A    between atoms: C6_9  and  N2_10 
ROOT
HETATM    1  C5  UNL     1      15.830 -12.435  20.355  1.00  0.00     0.158 C 
HETATM    2  C7  UNL     1      16.279 -12.346  21.785  1.00  0.00     0.079 C 
HETATM    3  C8  UNL     1      17.221 -13.499  21.528  1.00  0.00     0.071 C 
HETATM    4  C9  UNL     1      16.628 -13.700  20.177  1.00  0.00     0.079 C 
HETATM    5  O2  UNL     1      17.031 -14.519  22.451  1.00  0.00    -0.373 OA
HETATM    6  C10 UNL     1      18.278 -14.877  22.947  1.00  0.00     0.137 C 
HETATM    7  C11 UNL     1      19.081 -15.433  21.812  1.00  0.00     0.034 C 
HETATM    8  C12 UNL     1      19.467 -14.223  20.942  1.00  0.00     0.011 C 
HETATM    9  C13 UNL     1      18.667 -13.127  21.602  1.00  0.00     0.037 C 
HETATM   10  C14 UNL     1      18.928 -13.486  23.078  1.00  0.00     0.093 C 
HETATM   11 BR1  UNL     1      20.795 -13.652  23.448  1.00  0.00    -0.088 Br
ENDROOT
BRANCH   1  12
HETATM   12  N1  UNL     1      14.405 -12.554  20.232  1.00  0.00    -0.062 N 
HETATM   13  C1  UNL     1      14.100 -13.730  19.445  1.00  0.00     0.273 C 
HETATM   14  C2  UNL     1      13.709 -12.638  21.477  1.00  0.00     0.273 C 
BRANCH  12  15
HETATM   15  C3  UNL     1      13.912 -11.410  19.494  1.00  0.00     0.263 C 
BRANCH  15  16
HETATM   16  C4  UNL     1      13.122 -10.461  20.368  1.00  0.00     0.192 C 
BRANCH  16  17
HETATM   17  O1  UNL     1      12.934  -9.294  19.590  1.00  0.00    -0.399 OA
ATOM     18  H1  UNL     1      13.797  -8.905  19.502  1.00  0.00     0.209 HD
ENDBRANCH  16  17
ENDBRANCH  15  16
ENDBRANCH  12  15
ENDBRANCH   1  12
BRANCH   1  19
HETATM   19  C6  UNL     1      16.390 -11.336  19.511  1.00  0.00     0.269 C 
BRANCH  19  20
HETATM   20  N2  UNL     1      17.214 -11.795  18.414  1.00  0.00    -0.077 N 
ATOM     21  H23 UNL     1      17.438 -11.022  17.787  1.00  0.00     0.274 HD
ATOM     22  H22 UNL     1      18.151 -12.027  18.744  1.00  0.00     0.274 HD
ATOM     23  H21 UNL     1      16.816 -12.575  17.891  1.00  0.00     0.274 HD
ENDBRANCH  19  20
ENDBRANCH   1  19
TORSDOF 6
ENDMDL
MODEL 3
REMARK VINA RESULT: -5.690337864      4.589      7.340
REMARK  6 active torsions:
REMARK  status: ('A' for Active; 'I' for Inactive)
REMARK    1  A    between atoms: N1_2  and  C3_4 
REMARK    2  A    between atoms: N1_2  and  C5_8 
REMARK    3  A    between atoms: C3_4  and  C4_5 
REMARK    4  A    between atoms: C4_5  and  O1_6 
REMARK    5  A    between atoms: C5_8  and  C6_9 
REMARK    6  A    between atoms: C6_9  and  N2_10 
ROOT
HETATM    1  C5  UNL     1      20.950 -14.416  24.758  1.00  0.00     0.158 C 
HETATM    2  C7  UNL     1      21.232 -13.560  23.558  1.00  0.00     0.079 C 
HETATM    3  C8  UNL     1      19.966 -14.088  22.924  1.00  0.00     0.071 C 
HETATM    4  C9  UNL     1      19.806 -15.071  24.031  1.00  0.00     0.079 C 
HETATM    5  O2  UNL     1      20.215 -14.606  21.660  1.00  0.00    -0.373 OA
HETATM    6  C10 UNL     1      19.273 -14.069  20.791  1.00  0.00     0.137 C 
HETATM    7  C11 UNL     1      17.922 -14.552  21.224  1.00  0.00     0.034 C 
HETATM    8  C12 UNL     1      17.592 -13.769  22.507  1.00  0.00     0.011 C 
HETATM    9  C13 UNL     1      18.898 -13.055  22.754  1.00  0.00     0.037 C 
HETATM   10  C14 UNL     1      19.218 -12.620  21.311  1.00  0.00     0.093 C 
HETATM   11 BR1  UNL     1      17.758 -11.679  20.514  1.00  0.00    -0.088 Br
ENDROOT
BRANCH   1  12
HETATM   12  N1  UNL     1      22.058 -15.262  25.102  1.00  0.00    -0.062 N 
HETATM   13  C1  UNL     1      22.163 -15.332  26.545  1.00  0.00     0.273 C 
HETATM   14  C2  UNL     1      21.973 -16.589  24.580  1.00  0.00     0.273 C 
BRANCH  12  15
HETATM   15  C3  UNL     1      23.275 -14.643  24.618  1.00  0.00     0.263 C 
BRANCH  15  16
HETATM   16  C4  UNL     1      24.299 -15.665  24.172  1.00  0.00     0.192 C 
BRANCH  16  17
HETATM   17  O1  UNL     1      25.558 -15.051  24.368  1.00  0.00    -0.399 OA
ATOM     18  H1  UNL     1      26.101 -15.347  23.647  1.00  0.00     0.209 HD
ENDBRANCH  16  17
ENDBRANCH  15  16
ENDBRANCH  12  15
ENDBRANCH   1  12
BRANCH   1  19
HETATM   19  C6  UNL     1      20.450 -13.623  25.922  1.00  0.00     0.269 C 
BRANCH  19  20
HETATM   20  N2  UNL     1      20.795 -12.219  25.872  1.00  0.00    -0.077 N 
ATOM     21  H23 UNL     1      21.146 -11.905  26.777  1.00  0.00     0.274 HD
ATOM     22  H22 UNL     1      21.630 -12.076  25.304  1.00  0.00     0.274 HD
ATOM     23  H21 UNL     1      20.038 -11.614  25.554  1.00  0.00     0.274 HD
ENDBRANCH  19  20
ENDBRANCH   1  19
TORSDOF 6
ENDMDL
MODEL 4
REMARK VINA RESULT: -5.559544310      2.125      3.415
REMARK  6 active torsions:
REMARK  status: ('A' for Active; 'I' for Inactive)
REMARK    1  A    between atoms: N1_2  and  C3_4 
REMARK    2  A    between atoms: N1_2  and  C5_8 
REMARK    3  A    between atoms: C3_4  and  C4_5 
REMARK    4  A    between atoms: C4_5  and  O1_6 
REMARK    5  A    between atoms: C5_8  and  C6_9 
REMARK    6  A    between atoms: C6_9  and  N2_10 
ROOT
HETATM    1  C5  UNL     1      17.327 -13.976  21.401  1.00  0.00     0.158 C 
HETATM    2  C7  UNL     1      18.820 -14.127  21.365  1.00  0.00     0.079 C 
HETATM    3  C8  UNL     1      18.841 -13.965  22.867  1.00  0.00     0.071 C 
HETATM    4  C9  UNL     1      17.391 -13.625  22.864  1.00  0.00     0.079 C 
HETATM    5  O2  UNL     1      19.718 -12.961  23.252  1.00  0.00    -0.373 OA
HETATM    6  C10 UNL     1      20.520 -13.467  24.268  1.00  0.00     0.137 C 
HETATM    7  C11 UNL     1      19.638 -13.776  25.438  1.00  0.00     0.034 C 
HETATM    8  C12 UNL     1      18.856 -15.042  25.047  1.00  0.00     0.011 C 
HETATM    9  C13 UNL     1      19.262 -15.198  23.602  1.00  0.00     0.037 C 
HETATM   10  C14 UNL     1      20.766 -14.891  23.735  1.00  0.00     0.093 C 
HETATM   11 BR1  UNL     1      21.595 -15.972  25.075  1.00  0.00    -0.088 Br
ENDROOT
BRANCH   1  12
HETATM   12  N1  UNL     1      16.856 -12.949  20.516  1.00  0.00    -0.062 N 
HETATM   13  C1  UNL     1      17.996 -12.252  19.960  1.00  0.00     0.273 C 
HETATM   14  C2  UNL     1      16.036 -13.421  19.446  1.00  0.00     0.273 C 
BRANCH  12  15
HETATM   15  C3  UNL     1      16.106 -11.983  21.293  1.00  0.00     0.263 C 
BRANCH  15  16
HETATM   16  C4  UNL     1      14.613 -12.106  21.073  1.00  0.00     0.192 C 
BRANCH  16  17
HETATM   17  O1  UNL     1      14.100 -12.677  22.261  1.00  0.00    -0.399 OA
ATOM     18  H1  UNL     1      14.072 -11.968  22.893  1.00  0.00     0.209 HD
ENDBRANCH  16  17
ENDBRANCH  15  16
ENDBRANCH  12  15
ENDBRANCH   1  12
BRANCH   1  19
HETATM   19  C6  UNL     1      16.616 -15.276  21.203  1.00  0.00     0.269 C 
BRANCH  19  20
HETATM   20  N2  UNL     1      15.594 -15.547  22.190  1.00  0.00    -0.077 N 
ATOM     21  H23 UNL     1      15.962 -15.413  23.132  1.00  0.00     0.274 HD
ATOM     22  H22 UNL     1      14.882 -14.818  22.177  1.00  0.00     0.274 HD
ATOM     23  H21 UNL     1      15.164 -16.468  22.103  1.00  0.00     0.274 HD
ENDBRANCH  19  20
ENDBRANCH   1  19
TORSDOF 6
ENDMDL
MODEL 5
REMARK VINA RESULT: -5.520889484      4.486      7.241
REMARK  6 active torsions:
REMARK  status: ('A' for Active; 'I' for Inactive)
REMARK    1  A    between atoms: N1_2  and  C3_4 
REMARK    2  A    between atoms: N1_2  and  C5_8 
REMARK    3  A    between atoms: C3_4  and  C4_5 
REMARK    4  A    between atoms: C4_5  and  O1_6 
REMARK    5  A    between atoms: C5_8  and  C6_9 
REMARK    6  A    between atoms: C6_9  and  N2_10 
ROOT
HETATM    1  C5  UNL     1      20.636 -14.507  24.772  1.00  0.00     0.158 C 
HETATM    2  C7  UNL     1      20.252 -13.131  24.311  1.00  0.00     0.079 C 
HETATM    3  C8  UNL     1      19.980 -13.701  22.938  1.00  0.00     0.071 C 
HETATM    4  C9  UNL     1      20.546 -15.013  23.356  1.00  0.00     0.079 C 
HETATM    5  O2  UNL     1      20.674 -13.005  21.958  1.00  0.00    -0.373 OA
HETATM    6  C10 UNL     1      19.776 -12.696  20.944  1.00  0.00     0.137 C 
HETATM    7  C11 UNL     1      19.303 -13.983  20.342  1.00  0.00     0.034 C 
HETATM    8  C12 UNL     1      18.347 -14.602  21.377  1.00  0.00     0.011 C 
HETATM    9  C13 UNL     1      18.538 -13.662  22.543  1.00  0.00     0.037 C 
HETATM   10  C14 UNL     1      18.538 -12.322  21.782  1.00  0.00     0.093 C 
HETATM   11 BR1  UNL     1      17.001 -12.143  20.661  1.00  0.00    -0.088 Br
ENDROOT
BRANCH   1  12
HETATM   12  N1  UNL     1      21.934 -14.541  25.383  1.00  0.00    -0.062 N 
HETATM   13  C1  UNL     1      21.774 -14.670  26.816  1.00  0.00     0.273 C 
HETATM   14  C2  UNL     1      22.780 -15.593  24.915  1.00  0.00     0.273 C 
BRANCH  12  15
HETATM   15  C3  UNL     1      22.587 -13.271  25.142  1.00  0.00     0.263 C 
BRANCH  15  16
HETATM   16  C4  UNL     1      23.739 -13.394  24.168  1.00  0.00     0.192 C 
BRANCH  16  17
HETATM   17  O1  UNL     1      24.673 -12.405  24.556  1.00  0.00    -0.399 OA
ATOM     18  H1  UNL     1      25.046 -12.713  25.373  1.00  0.00     0.209 HD
ENDBRANCH  16  17
ENDBRANCH  15  16
ENDBRANCH  12  15
ENDBRANCH   1  12
BRANCH   1  19
HETATM   19  C6  UNL     1      19.582 -15.138  25.624  1.00  0.00     0.269 C 
BRANCH  19  20
HETATM   20  N2  UNL     1      19.067 -16.385  25.101  1.00  0.00    -0.077 N 
ATOM     21  H23 UNL     1      19.068 -17.104  25.825  1.00  0.00     0.274 HD
ATOM     22  H22 UNL     1      18.064 -16.312  24.930  1.00  0.00     0.274 HD
ATOM     23  H21 UNL     1      19.549 -16.717  24.266  1.00  0.00     0.274 HD
ENDBRANCH  19  20
ENDBRANCH   1  19
TORSDOF 6
ENDMDL
