MODEL 1
REMARK VINA RESULT: -7.277990629      0.000      0.000
REMARK  6 active torsions:
REMARK  status: ('A' for Active; 'I' for Inactive)
REMARK    1  A    between atoms: N1_1  and  N2_4 
REMARK    2  A    between atoms: C1_6  and  C2_7 
REMARK    3  A    between atoms: C1_6  and  C9_16 
REMARK    4  A    between atoms: C2_7  and  C3_8 
REMARK    5  A    between atoms: C3_8  and  N3_9 
REMARK    6  A    between atoms: C9_16  and  N4_17 
ROOT
HETATM    1  N2  UNL     1      12.925 -14.121  21.742  1.00  0.00    -0.314 N 
ATOM      2  H2  UNL     1      11.921 -14.044  21.584  1.00  0.00     0.185 HD
HETATM    3  C1  UNL     1      13.516 -13.052  21.501  1.00  0.00     0.022 C 
ENDROOT
BRANCH   3   4
HETATM    4  C2  UNL     1      14.960 -12.868  21.641  1.00  0.00     0.076 C 
BRANCH   4   5
HETATM    5  C3  UNL     1      15.624 -12.032  20.601  1.00  0.00     0.133 C 
BRANCH   5   6
HETATM    6  N3  UNL     1      17.086 -12.243  20.615  1.00  0.00    -0.365 N 
HETATM    7  C4  UNL     1      17.827 -11.976  19.521  1.00  0.00     0.090 A 
HETATM    8  C5  UNL     1      19.197 -12.167  19.512  1.00  0.00     0.019 A 
HETATM    9  C6  UNL     1      19.839 -12.640  20.633  1.00  0.00     0.022 A 
HETATM   10  C7  UNL     1      19.068 -12.909  21.747  1.00  0.00     0.026 A 
HETATM   11 BR1  UNL     1      19.923 -13.564  23.314  1.00  0.00    -0.050 Br
HETATM   12  C8  UNL     1      17.696 -12.706  21.720  1.00  0.00     0.109 A 
ENDBRANCH   5   6
ENDBRANCH   4   5
ENDBRANCH   3   4
BRANCH   3  13
HETATM   13  C9  UNL     1      12.708 -11.875  21.052  1.00  0.00     0.181 C 
BRANCH  13  14
HETATM   14  N4  UNL     1      12.313 -11.009  22.140  1.00  0.00    -0.361 N 
HETATM   15  C10 UNL     1      11.425 -11.356  23.088  1.00  0.00     0.090 A 
HETATM   16  C11 UNL     1      11.058 -10.516  24.123  1.00  0.00     0.017 A 
HETATM   17  C12 UNL     1      11.616  -9.256  24.210  1.00  0.00     0.003 A 
HETATM   18  C13 UNL     1      12.522  -8.893  23.251  1.00  0.00     0.017 A 
HETATM   19  C14 UNL     1      12.851  -9.770  22.240  1.00  0.00     0.090 A 
ENDBRANCH  13  14
ENDBRANCH   3  13
BRANCH   1  20
HETATM   20  N1  UNL     1      13.277 -15.358  22.161  1.00  0.00    -0.345 N 
ATOM     21  H12 UNL     1      14.264 -15.531  21.972  1.00  0.00     0.176 HD
ATOM     22  H11 UNL     1      12.808 -16.145  22.610  1.00  0.00     0.176 HD
ENDBRANCH   1  20
TORSDOF 6
ENDMDL
MODEL 2
REMARK VINA RESULT: -7.257276370      0.033      1.067
REMARK  6 active torsions:
REMARK  status: ('A' for Active; 'I' for Inactive)
REMARK    1  A    between atoms: N1_1  and  N2_4 
REMARK    2  A    between atoms: C1_6  and  C2_7 
REMARK    3  A    between atoms: C1_6  and  C9_16 
REMARK    4  A    between atoms: C2_7  and  C3_8 
REMARK    5  A    between atoms: C3_8  and  N3_9 
REMARK    6  A    between atoms: C9_16  and  N4_17 
ROOT
HETATM    1  N2  UNL     1      12.914 -14.127  21.741  1.00  0.00    -0.314 N 
ATOM      2  H2  UNL     1      11.909 -14.066  21.573  1.00  0.00     0.185 HD
HETATM    3  C1  UNL     1      13.489 -13.048  21.504  1.00  0.00     0.022 C 
ENDROOT
BRANCH   3   4
HETATM    4  C2  UNL     1      14.928 -12.841  21.657  1.00  0.00     0.076 C 
BRANCH   4   5
HETATM    5  C3  UNL     1      15.594 -12.023  20.603  1.00  0.00     0.133 C 
BRANCH   5   6
HETATM    6  N3  UNL     1      17.056 -12.236  20.621  1.00  0.00    -0.365 N 
HETATM    7  C4  UNL     1      17.801 -11.968  19.530  1.00  0.00     0.090 A 
HETATM    8  C5  UNL     1      19.170 -12.161  19.525  1.00  0.00     0.019 A 
HETATM    9  C6  UNL     1      19.808 -12.637  20.647  1.00  0.00     0.022 A 
HETATM   10  C7  UNL     1      19.033 -12.908  21.757  1.00  0.00     0.026 A 
HETATM   11 BR1  UNL     1      19.883 -13.568  23.326  1.00  0.00    -0.050 Br
HETATM   12  C8  UNL     1      17.662 -12.703  21.727  1.00  0.00     0.109 A 
ENDBRANCH   5   6
ENDBRANCH   4   5
ENDBRANCH   3   4
BRANCH   3  13
HETATM   13  C9  UNL     1      12.666 -11.885  21.047  1.00  0.00     0.181 C 
BRANCH  13  14
HETATM   14  N4  UNL     1      12.326 -10.975  22.118  1.00  0.00    -0.361 N 
HETATM   15  C10 UNL     1      12.850  -9.743  22.249  1.00  0.00     0.090 A 
HETATM   16  C11 UNL     1      12.513  -8.886  23.280  1.00  0.00     0.017 A 
HETATM   17  C12 UNL     1      11.598  -9.288  24.233  1.00  0.00     0.003 A 
HETATM   18  C13 UNL     1      11.059 -10.539  24.108  1.00  0.00     0.017 A 
HETATM   19  C14 UNL     1      11.430 -11.354  23.061  1.00  0.00     0.090 A 
ENDBRANCH  13  14
ENDBRANCH   3  13
BRANCH   1  20
HETATM   20  N1  UNL     1      13.281 -15.358  22.163  1.00  0.00    -0.345 N 
ATOM     21  H12 UNL     1      13.431 -15.978  21.367  1.00  0.00     0.176 HD
ATOM     22  H11 UNL     1      13.443 -15.810  23.063  1.00  0.00     0.176 HD
ENDBRANCH   1  20
TORSDOF 6
ENDMDL
MODEL 3
REMARK VINA RESULT: -7.006476287      2.658      7.028
REMARK  6 active torsions:
REMARK  status: ('A' for Active; 'I' for Inactive)
REMARK    1  A    between atoms: N1_1  and  N2_4 
REMARK    2  A    between atoms: C1_6  and  C2_7 
REMARK    3  A    between atoms: C1_6  and  C9_16 
REMARK    4  A    between atoms: C2_7  and  C3_8 
REMARK    5  A    between atoms: C3_8  and  N3_9 
REMARK    6  A    between atoms: C9_16  and  N4_17 
ROOT
HETATM    1  N2  UNL     1      15.367 -10.195  20.109  1.00  0.00    -0.314 N 
ATOM      2  H2  UNL     1      16.102  -9.984  19.434  1.00  0.00     0.185 HD
HETATM    3  C1  UNL     1      15.196 -11.421  20.242  1.00  0.00     0.022 C 
ENDROOT
BRANCH   3   4
HETATM    4  C2  UNL     1      14.208 -12.014  21.142  1.00  0.00     0.076 C 
BRANCH   4   5
HETATM    5  C3  UNL     1      12.789 -11.614  20.923  1.00  0.00     0.133 C 
BRANCH   5   6
HETATM    6  N3  UNL     1      12.176 -11.148  22.184  1.00  0.00    -0.365 N 
HETATM    7  C4  UNL     1      11.403 -11.975  22.916  1.00  0.00     0.090 A 
HETATM    8  C5  UNL     1      10.820 -11.560  24.099  1.00  0.00     0.019 A 
HETATM    9  C6  UNL     1      11.019 -10.278  24.559  1.00  0.00     0.022 A 
HETATM   10  C7  UNL     1      11.813  -9.442  23.799  1.00  0.00     0.026 A 
HETATM   11 BR1  UNL     1      12.108  -7.663  24.405  1.00  0.00    -0.050 Br
HETATM   12  C8  UNL     1      12.382  -9.892  22.617  1.00  0.00     0.109 A 
ENDBRANCH   5   6
ENDBRANCH   4   5
ENDBRANCH   3   4
BRANCH   3  13
HETATM   13  C9  UNL     1      16.055 -12.352  19.446  1.00  0.00     0.181 C 
BRANCH  13  14
HETATM   14  N4  UNL     1      17.378 -12.522  20.006  1.00  0.00    -0.361 N 
HETATM   15  C10 UNL     1      17.620 -13.125  21.183  1.00  0.00     0.090 A 
HETATM   16  C11 UNL     1      18.891 -13.279  21.704  1.00  0.00     0.017 A 
HETATM   17  C12 UNL     1      19.980 -12.802  21.003  1.00  0.00     0.003 A 
HETATM   18  C13 UNL     1      19.745 -12.189  19.803  1.00  0.00     0.017 A 
HETATM   19  C14 UNL     1      18.456 -12.060  19.330  1.00  0.00     0.090 A 
ENDBRANCH  13  14
ENDBRANCH   3  13
BRANCH   1  20
HETATM   20  N1  UNL     1      14.825  -9.071  20.631  1.00  0.00    -0.345 N 
ATOM     21  H12 UNL     1      14.077  -8.723  20.031  1.00  0.00     0.176 HD
ATOM     22  H11 UNL     1      14.976  -8.497  21.461  1.00  0.00     0.176 HD
ENDBRANCH   1  20
TORSDOF 6
ENDMDL
MODEL 4
REMARK VINA RESULT: -6.892351384      2.644      6.658
REMARK  6 active torsions:
REMARK  status: ('A' for Active; 'I' for Inactive)
REMARK    1  A    between atoms: N1_1  and  N2_4 
REMARK    2  A    between atoms: C1_6  and  C2_7 
REMARK    3  A    between atoms: C1_6  and  C9_16 
REMARK    4  A    between atoms: C2_7  and  C3_8 
REMARK    5  A    between atoms: C3_8  and  N3_9 
REMARK    6  A    between atoms: C9_16  and  N4_17 
ROOT
HETATM    1  N2  UNL     1      15.332 -13.727  18.999  1.00  0.00    -0.314 N 
ATOM      2  H2  UNL     1      16.275 -13.709  18.612  1.00  0.00     0.185 HD
HETATM    3  C1  UNL     1      15.055 -12.670  19.596  1.00  0.00     0.022 C 
ENDROOT
BRANCH   3   4
HETATM    4  C2  UNL     1      13.772 -12.414  20.249  1.00  0.00     0.076 C 
BRANCH   4   5
HETATM    5  C3  UNL     1      13.377 -10.983  20.393  1.00  0.00     0.133 C 
BRANCH   5   6
HETATM    6  N3  UNL     1      12.624 -10.772  21.647  1.00  0.00    -0.365 N 
HETATM    7  C4  UNL     1      11.830 -11.743  22.140  1.00  0.00     0.090 A 
HETATM    8  C5  UNL     1      11.116 -11.566  23.312  1.00  0.00     0.019 A 
HETATM    9  C6  UNL     1      11.203 -10.381  24.005  1.00  0.00     0.022 A 
HETATM   10  C7  UNL     1      12.020  -9.395  23.488  1.00  0.00     0.026 A 
HETATM   11 BR1  UNL     1      12.164  -7.744  24.422  1.00  0.00    -0.050 Br
HETATM   12  C8  UNL     1      12.722  -9.607  22.311  1.00  0.00     0.109 A 
ENDBRANCH   5   6
ENDBRANCH   4   5
ENDBRANCH   3   4
BRANCH   3  13
HETATM   13  C9  UNL     1      16.085 -11.585  19.642  1.00  0.00     0.181 C 
BRANCH  13  14
HETATM   14  N4  UNL     1      17.357 -12.033  20.165  1.00  0.00    -0.361 N 
HETATM   15  C10 UNL     1      17.536 -12.475  21.421  1.00  0.00     0.090 A 
HETATM   16  C11 UNL     1      18.760 -12.900  21.905  1.00  0.00     0.017 A 
HETATM   17  C12 UNL     1      19.865 -12.880  21.078  1.00  0.00     0.003 A 
HETATM   18  C13 UNL     1      19.694 -12.433  19.797  1.00  0.00     0.017 A 
HETATM   19  C14 UNL     1      18.451 -12.020  19.366  1.00  0.00     0.090 A 
ENDBRANCH  13  14
ENDBRANCH   3  13
BRANCH   1  20
HETATM   20  N1  UNL     1      14.700 -14.893  18.734  1.00  0.00    -0.345 N 
ATOM     21  H12 UNL     1      14.756 -15.112  17.740  1.00  0.00     0.176 HD
ATOM     22  H11 UNL     1      14.192 -15.595  19.274  1.00  0.00     0.176 HD
ENDBRANCH   1  20
TORSDOF 6
ENDMDL
MODEL 5
REMARK VINA RESULT: -6.881601449      1.292      1.716
REMARK  6 active torsions:
REMARK  status: ('A' for Active; 'I' for Inactive)
REMARK    1  A    between atoms: N1_1  and  N2_4 
REMARK    2  A    between atoms: C1_6  and  C2_7 
REMARK    3  A    between atoms: C1_6  and  C9_16 
REMARK    4  A    between atoms: C2_7  and  C3_8 
REMARK    5  A    between atoms: C3_8  and  N3_9 
REMARK    6  A    between atoms: C9_16  and  N4_17 
ROOT
HETATM    1  N2  UNL     1      12.803 -14.460  21.837  1.00  0.00    -0.314 N 
ATOM      2  H2  UNL     1      11.800 -14.416  22.020  1.00  0.00     0.185 HD
HETATM    3  C1  UNL     1      13.208 -13.453  21.228  1.00  0.00     0.022 C 
ENDROOT
BRANCH   3   4
HETATM    4  C2  UNL     1      14.600 -13.243  20.833  1.00  0.00     0.076 C 
BRANCH   4   5
HETATM    5  C3  UNL     1      15.474 -12.559  21.829  1.00  0.00     0.133 C 
BRANCH   5   6
HETATM    6  N3  UNL     1      16.876 -13.004  21.687  1.00  0.00    -0.365 N 
HETATM    7  C4  UNL     1      17.369 -13.979  22.477  1.00  0.00     0.090 A 
HETATM    8  C5  UNL     1      18.678 -14.409  22.361  1.00  0.00     0.019 A 
HETATM    9  C6  UNL     1      19.514 -13.844  21.426  1.00  0.00     0.022 A 
HETATM   10  C7  UNL     1      18.997 -12.847  20.624  1.00  0.00     0.026 A 
HETATM   11 BR1  UNL     1      20.126 -12.044  19.321  1.00  0.00    -0.050 Br
HETATM   12  C8  UNL     1      17.679 -12.440  20.768  1.00  0.00     0.109 A 
ENDBRANCH   5   6
ENDBRANCH   4   5
ENDBRANCH   3   4
BRANCH   3  13
HETATM   13  C9  UNL     1      12.222 -12.381  20.884  1.00  0.00     0.181 C 
BRANCH  13  14
HETATM   14  N4  UNL     1      12.023 -11.429  21.953  1.00  0.00    -0.361 N 
HETATM   15  C10 UNL     1      11.267 -11.669  23.039  1.00  0.00     0.090 A 
HETATM   16  C11 UNL     1      11.087 -10.747  24.053  1.00  0.00     0.017 A 
HETATM   17  C12 UNL     1      11.703  -9.513  23.972  1.00  0.00     0.003 A 
HETATM   18  C13 UNL     1      12.475  -9.259  22.872  1.00  0.00     0.017 A 
HETATM   19  C14 UNL     1      12.620 -10.215  21.889  1.00  0.00     0.090 A 
ENDBRANCH  13  14
ENDBRANCH   3  13
BRANCH   1  20
HETATM   20  N1  UNL     1      13.354 -15.597  22.319  1.00  0.00    -0.345 N 
ATOM     21  H12 UNL     1      13.093 -16.394  21.737  1.00  0.00     0.176 HD
ATOM     22  H11 UNL     1      13.954 -15.850  23.104  1.00  0.00     0.176 HD
ENDBRANCH   1  20
TORSDOF 6
ENDMDL
