MODEL 1
REMARK VINA RESULT: -6.986314432      0.000      0.000
REMARK  5 active torsions:
REMARK  status: ('A' for Active; 'I' for Inactive)
REMARK    1  A    between atoms: C2_4  and  C3_5 
REMARK    2  A    between atoms: C3_5  and  O1_6 
REMARK    3  A    between atoms: O1_6  and  C4_7 
REMARK    4  A    between atoms: C8_13  and  C9_14 
REMARK    5  A    between atoms: N3_15  and  N4_17 
ROOT
HETATM    1  C4  UNL     1      16.326 -12.116  20.226  1.00  0.00     0.088 A 
HETATM    2  C5  UNL     1      15.691 -10.902  20.111  1.00  0.00     0.068 A 
HETATM    3  C6  UNL     1      14.416 -10.680  20.624  1.00  0.00     0.046 A 
HETATM    4  N2  UNL     1      13.603  -9.620  20.642  1.00  0.00    -0.364 N 
ATOM      5  H2  UNL     1      13.821  -8.710  20.236  1.00  0.00     0.165 HD
HETATM    6  C7  UNL     1      12.453  -9.927  21.274  1.00  0.00     0.102 A 
HETATM    7  C8  UNL     1      12.491 -11.211  21.686  1.00  0.00     0.009 A 
HETATM    8  C10 UNL     1      13.753 -11.694  21.269  1.00  0.00     0.005 A 
HETATM    9  C11 UNL     1      14.375 -12.911  21.389  1.00  0.00     0.036 A 
HETATM   10  C12 UNL     1      15.638 -13.120  20.879  1.00  0.00     0.045 A 
HETATM   11 BR1  UNL     1      16.391 -14.862  21.116  1.00  0.00    -0.048 Br
ENDROOT
BRANCH   7  12
HETATM   12  C9  UNL     1      11.540 -12.030  22.399  1.00  0.00     0.122 C 
HETATM   13  N3  UNL     1      10.800 -11.591  23.315  1.00  0.00    -0.297 N 
ATOM     14  H3  UNL     1      10.186 -12.300  23.716  1.00  0.00     0.187 HD
BRANCH  13  15
HETATM   15  N4  UNL     1      10.650 -10.368  23.879  1.00  0.00    -0.250 N 
HETATM   16  N5  UNL     1      11.361 -10.028  24.871  1.00  0.00    -0.331 N 
ATOM     17  H52 UNL     1      12.046 -10.690  25.235  1.00  0.00     0.178 HD
ATOM     18  H51 UNL     1      11.249  -9.107  25.297  1.00  0.00     0.178 HD
ATOM     19  H4  UNL     1       9.960  -9.717  23.504  1.00  0.00     0.207 HD
ENDBRANCH  13  15
ENDBRANCH   7  12
BRANCH   1  20
HETATM   20  O1  UNL     1      17.582 -12.397  19.742  1.00  0.00    -0.345 OA
BRANCH  20  21
HETATM   21  C3  UNL     1      18.801 -11.951  20.245  1.00  0.00     0.219 C 
BRANCH  21  22
HETATM   22  C2  UNL     1      19.867 -12.973  20.294  1.00  0.00     0.081 C 
HETATM   23  N1  UNL     1      20.149 -13.561  21.415  1.00  0.00    -0.404 N 
HETATM   24  C1  UNL     1      19.462 -13.258  22.628  1.00  0.00     0.145 C 
ATOM     25  H1  UNL     1      20.888 -14.264  21.430  1.00  0.00     0.158 HD
ENDBRANCH  21  22
ENDBRANCH  20  21
ENDBRANCH   1  20
TORSDOF 5
ENDMDL
MODEL 2
REMARK VINA RESULT: -6.863658079      2.636      3.169
REMARK  5 active torsions:
REMARK  status: ('A' for Active; 'I' for Inactive)
REMARK    1  A    between atoms: C2_4  and  C3_5 
REMARK    2  A    between atoms: C3_5  and  O1_6 
REMARK    3  A    between atoms: O1_6  and  C4_7 
REMARK    4  A    between atoms: C8_13  and  C9_14 
REMARK    5  A    between atoms: N3_15  and  N4_17 
ROOT
HETATM    1  C4  UNL     1      15.472 -11.943  19.758  1.00  0.00     0.088 A 
HETATM    2  C5  UNL     1      15.230 -10.732  20.364  1.00  0.00     0.068 A 
HETATM    3  C6  UNL     1      14.115 -10.516  21.170  1.00  0.00     0.046 A 
HETATM    4  N2  UNL     1      13.665  -9.460  21.854  1.00  0.00    -0.364 N 
ATOM      5  H2  UNL     1      14.124  -8.550  21.892  1.00  0.00     0.165 HD
HETATM    6  C7  UNL     1      12.516  -9.772  22.487  1.00  0.00     0.102 A 
HETATM    7  C8  UNL     1      12.188 -11.054  22.225  1.00  0.00     0.009 A 
HETATM    8  C10 UNL     1      13.216 -11.531  21.380  1.00  0.00     0.005 A 
HETATM    9  C11 UNL     1      13.445 -12.744  20.780  1.00  0.00     0.036 A 
HETATM   10  C12 UNL     1      14.552 -12.949  19.985  1.00  0.00     0.045 A 
HETATM   11 BR1  UNL     1      14.754 -14.685  19.210  1.00  0.00    -0.048 Br
ENDROOT
BRANCH   7  12
HETATM   12  C9  UNL     1      11.078 -11.876  22.643  1.00  0.00     0.122 C 
HETATM   13  N3  UNL     1      10.529 -11.774  23.769  1.00  0.00    -0.297 N 
ATOM     14  H3  UNL     1       9.760 -12.429  23.907  1.00  0.00     0.187 HD
BRANCH  13  15
HETATM   15  N4  UNL     1      10.750 -10.971  24.839  1.00  0.00    -0.250 N 
HETATM   16  N5  UNL     1      10.741 -11.449  26.013  1.00  0.00    -0.331 N 
ATOM     17  H52 UNL     1      10.565 -12.447  26.136  1.00  0.00     0.178 HD
ATOM     18  H51 UNL     1      10.907 -10.846  26.818  1.00  0.00     0.178 HD
ATOM     19  H4  UNL     1      10.924  -9.975  24.699  1.00  0.00     0.207 HD
ENDBRANCH  13  15
ENDBRANCH   7  12
BRANCH   1  20
HETATM   20  O1  UNL     1      16.552 -12.219  18.953  1.00  0.00    -0.345 OA
BRANCH  20  21
HETATM   21  C3  UNL     1      16.862 -11.638  17.727  1.00  0.00     0.219 C 
BRANCH  21  22
HETATM   22  C2  UNL     1      15.749 -11.596  16.757  1.00  0.00     0.081 C 
HETATM   23  N1  UNL     1      15.833 -10.841  15.706  1.00  0.00    -0.404 N 
HETATM   24  C1  UNL     1      16.978 -10.033  15.439  1.00  0.00     0.145 C 
ATOM     25  H1  UNL     1      15.055 -10.825  15.047  1.00  0.00     0.158 HD
ENDBRANCH  21  22
ENDBRANCH  20  21
ENDBRANCH   1  20
TORSDOF 5
ENDMDL
MODEL 3
REMARK VINA RESULT: -6.808176414      3.625      8.549
REMARK  5 active torsions:
REMARK  status: ('A' for Active; 'I' for Inactive)
REMARK    1  A    between atoms: C2_4  and  C3_5 
REMARK    2  A    between atoms: C3_5  and  O1_6 
REMARK    3  A    between atoms: O1_6  and  C4_7 
REMARK    4  A    between atoms: C8_13  and  C9_14 
REMARK    5  A    between atoms: N3_15  and  N4_17 
ROOT
HETATM    1  C4  UNL     1      18.777 -14.191  21.773  1.00  0.00     0.088 A 
HETATM    2  C5  UNL     1      18.835 -14.884  22.959  1.00  0.00     0.068 A 
HETATM    3  C6  UNL     1      19.873 -14.708  23.871  1.00  0.00     0.046 A 
HETATM    4  N2  UNL     1      20.153 -15.245  25.062  1.00  0.00    -0.364 N 
ATOM      5  H2  UNL     1      19.582 -15.945  25.536  1.00  0.00     0.165 HD
HETATM    6  C7  UNL     1      21.299 -14.728  25.547  1.00  0.00     0.102 A 
HETATM    7  C8  UNL     1      21.798 -13.831  24.671  1.00  0.00     0.009 A 
HETATM    8  C10 UNL     1      20.881 -13.818  23.595  1.00  0.00     0.005 A 
HETATM    9  C11 UNL     1      20.836 -13.122  22.414  1.00  0.00     0.036 A 
HETATM   10  C12 UNL     1      19.804 -13.302  21.518  1.00  0.00     0.045 A 
HETATM   11 BR1  UNL     1      19.860 -12.268  19.911  1.00  0.00    -0.048 Br
ENDROOT
BRANCH   7  12
HETATM   12  C9  UNL     1      22.981 -13.004  24.697  1.00  0.00     0.122 C 
HETATM   13  N3  UNL     1      24.095 -13.379  24.253  1.00  0.00    -0.297 N 
ATOM     14  H3  UNL     1      24.828 -12.676  24.348  1.00  0.00     0.187 HD
BRANCH  13  15
HETATM   15  N4  UNL     1      24.524 -14.527  23.673  1.00  0.00    -0.250 N 
HETATM   16  N5  UNL     1      25.522 -15.149  24.144  1.00  0.00    -0.331 N 
ATOM     17  H52 UNL     1      25.995 -14.771  24.965  1.00  0.00     0.178 HD
ATOM     18  H51 UNL     1      25.845 -16.013  23.707  1.00  0.00     0.178 HD
ATOM     19  H4  UNL     1      24.040 -14.891  22.852  1.00  0.00     0.207 HD
ENDBRANCH  13  15
ENDBRANCH   7  12
BRANCH   1  20
HETATM   20  O1  UNL     1      17.781 -14.320  20.834  1.00  0.00    -0.345 OA
BRANCH  20  21
HETATM   21  C3  UNL     1      16.463 -13.884  20.934  1.00  0.00     0.219 C 
BRANCH  21  22
HETATM   22  C2  UNL     1      16.278 -12.629  21.692  1.00  0.00     0.081 C 
HETATM   23  N1  UNL     1      16.162 -11.502  21.061  1.00  0.00    -0.404 N 
HETATM   24  C1  UNL     1      16.207 -11.418  19.637  1.00  0.00     0.145 C 
ATOM     25  H1  UNL     1      16.035 -10.646  21.600  1.00  0.00     0.158 HD
ENDBRANCH  21  22
ENDBRANCH  20  21
ENDBRANCH   1  20
TORSDOF 5
ENDMDL
MODEL 4
REMARK VINA RESULT: -6.754852274      1.548      1.766
REMARK  5 active torsions:
REMARK  status: ('A' for Active; 'I' for Inactive)
REMARK    1  A    between atoms: C2_4  and  C3_5 
REMARK    2  A    between atoms: C3_5  and  O1_6 
REMARK    3  A    between atoms: O1_6  and  C4_7 
REMARK    4  A    between atoms: C8_13  and  C9_14 
REMARK    5  A    between atoms: N3_15  and  N4_17 
ROOT
HETATM    1  C4  UNL     1      14.985 -11.717  19.841  1.00  0.00     0.088 A 
HETATM    2  C5  UNL     1      14.758 -10.552  20.536  1.00  0.00     0.068 A 
HETATM    3  C6  UNL     1      13.682 -10.407  21.409  1.00  0.00     0.046 A 
HETATM    4  N2  UNL     1      13.254  -9.405  22.182  1.00  0.00    -0.364 N 
ATOM      5  H2  UNL     1      13.702  -8.492  22.257  1.00  0.00     0.165 HD
HETATM    6  C7  UNL     1      12.142  -9.776  22.848  1.00  0.00     0.102 A 
HETATM    7  C8  UNL     1      11.818 -11.043  22.519  1.00  0.00     0.009 A 
HETATM    8  C10 UNL     1      12.808 -11.448  21.595  1.00  0.00     0.005 A 
HETATM    9  C11 UNL     1      13.023 -12.615  20.906  1.00  0.00     0.036 A 
HETATM   10  C12 UNL     1      14.090 -12.750  20.045  1.00  0.00     0.045 A 
HETATM   11 BR1  UNL     1      14.276 -14.429  19.149  1.00  0.00    -0.048 Br
ENDROOT
BRANCH   7  12
HETATM   12  C9  UNL     1      10.740 -11.909  22.937  1.00  0.00     0.122 C 
HETATM   13  N3  UNL     1      10.327 -11.974  24.122  1.00  0.00    -0.297 N 
ATOM     14  H3  UNL     1       9.561 -12.636  24.248  1.00  0.00     0.187 HD
BRANCH  13  15
HETATM   15  N4  UNL     1      10.690 -11.346  25.267  1.00  0.00    -0.250 N 
HETATM   16  N5  UNL     1      10.682 -11.969  26.370  1.00  0.00    -0.331 N 
ATOM     17  H52 UNL     1      10.397 -12.949  26.380  1.00  0.00     0.178 HD
ATOM     18  H51 UNL     1      10.955 -11.496  27.232  1.00  0.00     0.178 HD
ATOM     19  H4  UNL     1      10.972 -10.366  25.240  1.00  0.00     0.207 HD
ENDBRANCH  13  15
ENDBRANCH   7  12
BRANCH   1  20
HETATM   20  O1  UNL     1      16.027 -11.922  18.967  1.00  0.00    -0.345 OA
BRANCH  20  21
HETATM   21  C3  UNL     1      17.389 -11.844  19.243  1.00  0.00     0.219 C 
BRANCH  21  22
HETATM   22  C2  UNL     1      17.828 -12.601  20.434  1.00  0.00     0.081 C 
HETATM   23  N1  UNL     1      19.092 -12.704  20.706  1.00  0.00    -0.404 N 
HETATM   24  C1  UNL     1      20.098 -12.107  19.889  1.00  0.00     0.145 C 
ATOM     25  H1  UNL     1      19.377 -13.230  21.532  1.00  0.00     0.158 HD
ENDBRANCH  21  22
ENDBRANCH  20  21
ENDBRANCH   1  20
TORSDOF 5
ENDMDL
MODEL 5
REMARK VINA RESULT: -6.746268071      3.126      7.640
REMARK  5 active torsions:
REMARK  status: ('A' for Active; 'I' for Inactive)
REMARK    1  A    between atoms: C2_4  and  C3_5 
REMARK    2  A    between atoms: C3_5  and  O1_6 
REMARK    3  A    between atoms: O1_6  and  C4_7 
REMARK    4  A    between atoms: C8_13  and  C9_14 
REMARK    5  A    between atoms: N3_15  and  N4_17 
ROOT
HETATM    1  C4  UNL     1      18.023 -13.544  21.523  1.00  0.00     0.088 A 
HETATM    2  C5  UNL     1      17.647 -14.038  22.750  1.00  0.00     0.068 A 
HETATM    3  C6  UNL     1      18.497 -14.010  23.852  1.00  0.00     0.046 A 
HETATM    4  N2  UNL     1      18.374 -14.415  25.119  1.00  0.00    -0.364 N 
ATOM      5  H2  UNL     1      17.543 -14.856  25.514  1.00  0.00     0.165 HD
HETATM    6  C7  UNL     1      19.508 -14.158  25.802  1.00  0.00     0.102 A 
HETATM    7  C8  UNL     1      20.406 -13.572  24.983  1.00  0.00     0.009 A 
HETATM    8  C10 UNL     1      19.756 -13.477  23.731  1.00  0.00     0.005 A 
HETATM    9  C11 UNL     1      20.144 -12.982  22.512  1.00  0.00     0.036 A 
HETATM   10  C12 UNL     1      19.295 -13.012  21.427  1.00  0.00     0.045 A 
HETATM   11 BR1  UNL     1      19.958 -12.289  19.785  1.00  0.00    -0.048 Br
ENDROOT
BRANCH   7  12
HETATM   12  C9  UNL     1      21.753 -13.099  25.200  1.00  0.00     0.122 C 
HETATM   13  N3  UNL     1      22.690 -13.840  25.589  1.00  0.00    -0.297 N 
ATOM     14  H3  UNL     1      23.578 -13.350  25.694  1.00  0.00     0.187 HD
BRANCH  13  15
HETATM   15  N4  UNL     1      22.764 -15.158  25.899  1.00  0.00    -0.250 N 
HETATM   16  N5  UNL     1      22.712 -15.536  27.108  1.00  0.00    -0.331 N 
ATOM     17  H52 UNL     1      22.614 -14.832  27.840  1.00  0.00     0.178 HD
ATOM     18  H51 UNL     1      22.767 -16.528  27.341  1.00  0.00     0.178 HD
ATOM     19  H4  UNL     1      22.861 -15.849  25.155  1.00  0.00     0.207 HD
ENDBRANCH  13  15
ENDBRANCH   7  12
BRANCH   1  20
HETATM   20  O1  UNL     1      17.231 -13.542  20.399  1.00  0.00    -0.345 OA
BRANCH  20  21
HETATM   21  C3  UNL     1      16.069 -12.805  20.184  1.00  0.00     0.219 C 
BRANCH  21  22
HETATM   22  C2  UNL     1      16.284 -11.377  19.875  1.00  0.00     0.081 C 
HETATM   23  N1  UNL     1      15.453 -10.485  20.319  1.00  0.00    -0.404 N 
HETATM   24  C1  UNL     1      14.318 -10.831  21.111  1.00  0.00     0.145 C 
ATOM     25  H1  UNL     1      15.618  -9.504  20.095  1.00  0.00     0.158 HD
ENDBRANCH  21  22
ENDBRANCH  20  21
ENDBRANCH   1  20
TORSDOF 5
ENDMDL
