MODEL 1
REMARK VINA RESULT: -7.864061818      0.000      0.000
REMARK  6 active torsions:
REMARK  status: ('A' for Active; 'I' for Inactive)
REMARK    1  A    between atoms: N3_16  and  C11_17 
REMARK    2  A    between atoms: C11_17  and  C12_18 
REMARK    3  A    between atoms: C12_18  and  C13_19 
REMARK    4  A    between atoms: C13_19  and  C14_20 
REMARK    5  A    between atoms: C14_20  and  N4_21 
REMARK    6  A    between atoms: C16_25  and  C17_26 
ROOT
HETATM    1  C1  UNL     1      14.611 -12.846  21.767  1.00  0.00     0.150 C 
HETATM    2  N1  UNL     1      15.888 -12.763  21.266  1.00  0.00    -0.378 N 
HETATM    3  C2  UNL     1      16.153 -12.164  20.014  1.00  0.00     0.094 A 
HETATM    4  C3  UNL     1      17.545 -12.283  20.036  1.00  0.00    -0.020 A 
HETATM    5  C4  UNL     1      18.473 -11.879  19.127  1.00  0.00     0.052 A 
HETATM    6  C5  UNL     1      19.862 -12.107  19.423  1.00  0.00     0.117 A 
HETATM    7  F1  UNL     1      20.782 -11.724  18.568  1.00  0.00    -0.206 F 
HETATM    8  C6  UNL     1      20.285 -12.718  20.596  1.00  0.00     0.049 A 
HETATM    9  C7  UNL     1      19.224 -13.036  21.346  1.00  0.00    -0.025 A 
HETATM   10  C8  UNL     1      17.950 -12.840  21.094  1.00  0.00     0.087 A 
HETATM   11  C9  UNL     1      17.316 -13.495  22.511  1.00  0.00     0.115 A 
HETATM   12  N2  UNL     1      17.080 -14.094  23.719  1.00  0.00    -0.327 N 
ATOM     13  H2  UNL     1      16.135 -14.221  24.084  1.00  0.00     0.165 HD
HETATM   14  C10 UNL     1      18.173 -14.508  24.399  1.00  0.00     0.320 A 
HETATM   15  O1  UNL     1      18.363 -15.040  25.414  1.00  0.00    -0.247 OA
HETATM   16  N3  UNL     1      19.050 -14.063  23.426  1.00  0.00    -0.317 N 
HETATM   17  C16 UNL     1      18.565 -13.543  22.470  1.00  0.00     0.110 A 
HETATM   18  C17 UNL     1      16.842 -13.211  22.016  1.00  0.00     0.112 A 
ENDROOT
BRANCH  16  19
HETATM   19  C11 UNL     1      20.478 -14.240  23.583  1.00  0.00     0.129 C 
BRANCH  19  20
HETATM   20  C12 UNL     1      20.919 -13.232  24.575  1.00  0.00     0.022 C 
BRANCH  20  21
HETATM   21  C13 UNL     1      22.338 -13.247  24.937  1.00  0.00     0.021 C 
BRANCH  21  22
HETATM   22  C14 UNL     1      23.285 -13.396  23.774  1.00  0.00     0.120 C 
BRANCH  22  23
HETATM   23  N4  UNL     1      24.463 -14.086  24.305  1.00  0.00    -0.388 N 
HETATM   24  C15 UNL     1      24.662 -15.353  24.023  1.00  0.00     0.185 C 
HETATM   25  N5  UNL     1      23.763 -16.096  23.207  1.00  0.00    -0.097 NA
ATOM     26  H4  UNL     1      25.128 -13.583  24.893  1.00  0.00     0.159 HD
ENDBRANCH  22  23
ENDBRANCH  21  22
ENDBRANCH  20  21
ENDBRANCH  19  20
ENDBRANCH  16  19
TORSDOF 6
ENDMDL
MODEL 2
REMARK VINA RESULT: -7.827559322      3.445      6.840
REMARK  6 active torsions:
REMARK  status: ('A' for Active; 'I' for Inactive)
REMARK    1  A    between atoms: N3_16  and  C11_17 
REMARK    2  A    between atoms: C11_17  and  C12_18 
REMARK    3  A    between atoms: C12_18  and  C13_19 
REMARK    4  A    between atoms: C13_19  and  C14_20 
REMARK    5  A    between atoms: C14_20  and  N4_21 
REMARK    6  A    between atoms: C16_25  and  C17_26 
ROOT
HETATM    1  C1  UNL     1      17.054 -16.678  22.941  1.00  0.00     0.150 C 
HETATM    2  N1  UNL     1      17.545 -15.602  22.241  1.00  0.00    -0.378 N 
HETATM    3  C2  UNL     1      18.932 -15.417  22.049  1.00  0.00     0.094 A 
HETATM    4  C3  UNL     1      18.863 -14.270  21.254  1.00  0.00    -0.020 A 
HETATM    5  C4  UNL     1      19.858 -13.544  20.676  1.00  0.00     0.052 A 
HETATM    6  C5  UNL     1      19.495 -12.408  19.872  1.00  0.00     0.117 A 
HETATM    7  F1  UNL     1      20.432 -11.691  19.297  1.00  0.00    -0.206 F 
HETATM    8  C6  UNL     1      18.174 -12.030  19.667  1.00  0.00     0.049 A 
HETATM    9  C7  UNL     1      17.360 -12.867  20.319  1.00  0.00    -0.025 A 
HETATM   10  C8  UNL     1      17.670 -13.907  21.058  1.00  0.00     0.087 A 
HETATM   11  C9  UNL     1      16.109 -14.390  21.469  1.00  0.00     0.115 A 
HETATM   12  N2  UNL     1      14.762 -14.541  21.657  1.00  0.00    -0.327 N 
ATOM     13  H2  UNL     1      14.376 -15.299  22.223  1.00  0.00     0.165 HD
HETATM   14  C10 UNL     1      13.971 -13.628  21.049  1.00  0.00     0.320 A 
HETATM   15  O1  UNL     1      12.828 -13.436  20.984  1.00  0.00    -0.247 OA
HETATM   16  N3  UNL     1      15.042 -12.949  20.493  1.00  0.00    -0.317 N 
HETATM   17  C16 UNL     1      16.127 -13.379  20.733  1.00  0.00     0.110 A 
HETATM   18  C17 UNL     1      16.677 -14.795  21.722  1.00  0.00     0.112 A 
ENDROOT
BRANCH  16  19
HETATM   19  C11 UNL     1      14.826 -11.775  19.674  1.00  0.00     0.129 C 
BRANCH  19  20
HETATM   20  C12 UNL     1      14.741 -10.626  20.605  1.00  0.00     0.022 C 
BRANCH  20  21
HETATM   21  C13 UNL     1      13.444  -9.951  20.694  1.00  0.00     0.021 C 
BRANCH  21  22
HETATM   22  C14 UNL     1      12.933  -9.746  22.097  1.00  0.00     0.120 C 
BRANCH  22  23
HETATM   23  N4  UNL     1      12.054 -10.885  22.371  1.00  0.00    -0.388 N 
HETATM   24  C15 UNL     1      11.319 -10.897  23.459  1.00  0.00     0.185 C 
HETATM   25  N5  UNL     1      11.342  -9.829  24.399  1.00  0.00    -0.097 NA
ATOM     26  H4  UNL     1      12.013 -11.668  21.718  1.00  0.00     0.159 HD
ENDBRANCH  22  23
ENDBRANCH  21  22
ENDBRANCH  20  21
ENDBRANCH  19  20
ENDBRANCH  16  19
TORSDOF 6
ENDMDL
MODEL 3
REMARK VINA RESULT: -7.694205328      1.467      1.569
REMARK  6 active torsions:
REMARK  status: ('A' for Active; 'I' for Inactive)
REMARK    1  A    between atoms: N3_16  and  C11_17 
REMARK    2  A    between atoms: C11_17  and  C12_18 
REMARK    3  A    between atoms: C12_18  and  C13_19 
REMARK    4  A    between atoms: C13_19  and  C14_20 
REMARK    5  A    between atoms: C14_20  and  N4_21 
REMARK    6  A    between atoms: C16_25  and  C17_26 
ROOT
HETATM    1  C1  UNL     1      14.542 -13.258  21.493  1.00  0.00     0.150 C 
HETATM    2  N1  UNL     1      15.841 -13.063  21.088  1.00  0.00    -0.378 N 
HETATM    3  C2  UNL     1      16.145 -12.468  19.844  1.00  0.00     0.094 A 
HETATM    4  C3  UNL     1      17.537 -12.452  19.975  1.00  0.00    -0.020 A 
HETATM    5  C4  UNL     1      18.490 -11.980  19.127  1.00  0.00     0.052 A 
HETATM    6  C5  UNL     1      19.867 -12.067  19.533  1.00  0.00     0.117 A 
HETATM    7  F1  UNL     1      20.811 -11.616  18.741  1.00  0.00    -0.206 F 
HETATM    8  C6  UNL     1      20.253 -12.610  20.752  1.00  0.00     0.049 A 
HETATM    9  C7  UNL     1      19.172 -13.013  21.428  1.00  0.00    -0.025 A 
HETATM   10  C8  UNL     1      17.908 -12.945  21.075  1.00  0.00     0.087 A 
HETATM   11  C9  UNL     1      17.230 -13.628  22.458  1.00  0.00     0.115 A 
HETATM   12  N2  UNL     1      16.958 -14.222  23.661  1.00  0.00    -0.327 N 
ATOM     13  H2  UNL     1      16.004 -14.431  23.958  1.00  0.00     0.165 HD
HETATM   14  C10 UNL     1      18.029 -14.515  24.434  1.00  0.00     0.320 A 
HETATM   15  O1  UNL     1      18.189 -15.005  25.475  1.00  0.00    -0.247 OA
HETATM   16  N3  UNL     1      18.934 -14.008  23.518  1.00  0.00    -0.317 N 
HETATM   17  C16 UNL     1      18.477 -13.557  22.513  1.00  0.00     0.110 A 
HETATM   18  C17 UNL     1      16.772 -13.401  21.921  1.00  0.00     0.112 A 
ENDROOT
BRANCH  16  19
HETATM   19  C11 UNL     1      20.355 -14.044  23.787  1.00  0.00     0.129 C 
BRANCH  19  20
HETATM   20  C12 UNL     1      20.637 -12.914  24.703  1.00  0.00     0.022 C 
BRANCH  20  21
HETATM   21  C13 UNL     1      21.765 -13.082  25.622  1.00  0.00     0.021 C 
BRANCH  21  22
HETATM   22  C14 UNL     1      21.443 -13.836  26.886  1.00  0.00     0.120 C 
BRANCH  22  23
HETATM   23  N4  UNL     1      22.539 -14.792  27.069  1.00  0.00    -0.388 N 
HETATM   24  C15 UNL     1      22.333 -16.071  26.857  1.00  0.00     0.185 C 
HETATM   25  N5  UNL     1      21.066 -16.575  26.448  1.00  0.00    -0.097 NA
ATOM     26  H4  UNL     1      23.460 -14.464  27.361  1.00  0.00     0.159 HD
ENDBRANCH  22  23
ENDBRANCH  21  22
ENDBRANCH  20  21
ENDBRANCH  19  20
ENDBRANCH  16  19
TORSDOF 6
ENDMDL
MODEL 4
REMARK VINA RESULT: -7.541616837      2.852      6.658
REMARK  6 active torsions:
REMARK  status: ('A' for Active; 'I' for Inactive)
REMARK    1  A    between atoms: N3_16  and  C11_17 
REMARK    2  A    between atoms: C11_17  and  C12_18 
REMARK    3  A    between atoms: C12_18  and  C13_19 
REMARK    4  A    between atoms: C13_19  and  C14_20 
REMARK    5  A    between atoms: C14_20  and  N4_21 
REMARK    6  A    between atoms: C16_25  and  C17_26 
ROOT
HETATM    1  C1  UNL     1      17.910 -15.698  24.176  1.00  0.00     0.150 C 
HETATM    2  N1  UNL     1      18.285 -14.818  23.189  1.00  0.00    -0.378 N 
HETATM    3  C2  UNL     1      19.617 -14.360  23.074  1.00  0.00     0.094 A 
HETATM    4  C3  UNL     1      19.455 -13.588  21.920  1.00  0.00    -0.020 A 
HETATM    5  C4  UNL     1      20.365 -12.862  21.218  1.00  0.00     0.052 A 
HETATM    6  C5  UNL     1      19.923 -12.177  20.033  1.00  0.00     0.117 A 
HETATM    7  F1  UNL     1      20.779 -11.472  19.330  1.00  0.00    -0.206 F 
HETATM    8  C6  UNL     1      18.610 -12.234  19.583  1.00  0.00     0.049 A 
HETATM    9  C7  UNL     1      17.884 -12.993  20.410  1.00  0.00    -0.025 A 
HETATM   10  C8  UNL     1      18.266 -13.624  21.497  1.00  0.00     0.087 A 
HETATM   11  C9  UNL     1      16.790 -14.327  21.905  1.00  0.00     0.115 A 
HETATM   12  N2  UNL     1      15.491 -14.746  22.007  1.00  0.00    -0.327 N 
ATOM     13  H2  UNL     1      15.176 -15.352  22.766  1.00  0.00     0.165 HD
HETATM   14  C10 UNL     1      14.649 -14.310  21.042  1.00  0.00     0.320 A 
HETATM   15  O1  UNL     1      13.520 -14.446  20.806  1.00  0.00    -0.247 OA
HETATM   16  N3  UNL     1      15.638 -13.600  20.384  1.00  0.00    -0.317 N 
HETATM   17  C16 UNL     1      16.729 -13.639  20.863  1.00  0.00     0.110 A 
HETATM   18  C17 UNL     1      17.376 -14.470  22.337  1.00  0.00     0.112 A 
ENDROOT
BRANCH  16  19
HETATM   19  C11 UNL     1      15.333 -12.849  19.185  1.00  0.00     0.129 C 
BRANCH  19  20
HETATM   20  C12 UNL     1      14.994 -11.476  19.625  1.00  0.00     0.022 C 
BRANCH  20  21
HETATM   21  C13 UNL     1      13.571 -11.135  19.671  1.00  0.00     0.021 C 
BRANCH  21  22
HETATM   22  C14 UNL     1      13.057 -10.745  21.033  1.00  0.00     0.120 C 
BRANCH  22  23
HETATM   23  N4  UNL     1      12.087 -11.778  21.404  1.00  0.00    -0.388 N 
HETATM   24  C15 UNL     1      11.491 -11.726  22.573  1.00  0.00     0.185 C 
HETATM   25  N5  UNL     1      11.754 -10.687  23.510  1.00  0.00    -0.097 NA
ATOM     26  H4  UNL     1      11.875 -12.537  20.756  1.00  0.00     0.159 HD
ENDBRANCH  22  23
ENDBRANCH  21  22
ENDBRANCH  20  21
ENDBRANCH  19  20
ENDBRANCH  16  19
TORSDOF 6
ENDMDL
MODEL 5
REMARK VINA RESULT: -7.493767905      1.173      1.321
REMARK  6 active torsions:
REMARK  status: ('A' for Active; 'I' for Inactive)
REMARK    1  A    between atoms: N3_16  and  C11_17 
REMARK    2  A    between atoms: C11_17  and  C12_18 
REMARK    3  A    between atoms: C12_18  and  C13_19 
REMARK    4  A    between atoms: C13_19  and  C14_20 
REMARK    5  A    between atoms: C14_20  and  N4_21 
REMARK    6  A    between atoms: C16_25  and  C17_26 
ROOT
HETATM    1  C1  UNL     1      14.524 -14.238  20.448  1.00  0.00     0.150 C 
HETATM    2  N1  UNL     1      15.834 -13.825  20.423  1.00  0.00    -0.378 N 
HETATM    3  C2  UNL     1      16.314 -12.949  19.424  1.00  0.00     0.094 A 
HETATM    4  C3  UNL     1      17.621 -12.814  19.899  1.00  0.00    -0.020 A 
HETATM    5  C4  UNL     1      18.656 -12.074  19.417  1.00  0.00     0.052 A 
HETATM    6  C5  UNL     1      19.903 -12.099  20.132  1.00  0.00     0.117 A 
HETATM    7  F1  UNL     1      20.919 -11.392  19.696  1.00  0.00    -0.206 F 
HETATM    8  C6  UNL     1      20.086 -12.845  21.289  1.00  0.00     0.049 A 
HETATM    9  C7  UNL     1      18.956 -13.495  21.589  1.00  0.00    -0.025 A 
HETATM   10  C8  UNL     1      17.809 -13.488  20.949  1.00  0.00     0.087 A 
HETATM   11  C9  UNL     1      16.952 -14.518  21.971  1.00  0.00     0.115 A 
HETATM   12  N2  UNL     1      16.513 -15.380  22.940  1.00  0.00    -0.327 N 
ATOM     13  H2  UNL     1      15.561 -15.747  22.945  1.00  0.00     0.165 HD
HETATM   14  C10 UNL     1      17.416 -15.715  23.890  1.00  0.00     0.320 A 
HETATM   15  O1  UNL     1      17.412 -16.395  24.831  1.00  0.00    -0.247 OA
HETATM   16  N3  UNL     1      18.413 -14.931  23.336  1.00  0.00    -0.317 N 
HETATM   17  C16 UNL     1      18.129 -14.328  22.348  1.00  0.00     0.110 A 
HETATM   18  C17 UNL     1      16.596 -14.232  21.386  1.00  0.00     0.112 A 
ENDROOT
BRANCH  16  19
HETATM   19  C11 UNL     1      19.726 -14.873  23.942  1.00  0.00     0.129 C 
BRANCH  19  20
HETATM   20  C12 UNL     1      19.639 -13.879  25.037  1.00  0.00     0.022 C 
BRANCH  20  21
HETATM   21  C13 UNL     1      20.792 -12.993  25.210  1.00  0.00     0.021 C 
BRANCH  21  22
HETATM   22  C14 UNL     1      22.042 -13.672  25.709  1.00  0.00     0.120 C 
BRANCH  22  23
HETATM   23  N4  UNL     1      23.143 -13.105  24.927  1.00  0.00    -0.388 N 
HETATM   24  C15 UNL     1      23.754 -13.842  24.028  1.00  0.00     0.185 C 
HETATM   25  N5  UNL     1      23.382 -15.192  23.778  1.00  0.00    -0.097 NA
ATOM     26  H4  UNL     1      23.434 -12.139  25.079  1.00  0.00     0.159 HD
ENDBRANCH  22  23
ENDBRANCH  21  22
ENDBRANCH  20  21
ENDBRANCH  19  20
ENDBRANCH  16  19
TORSDOF 6
ENDMDL
