MODEL 1
REMARK VINA RESULT: -7.580363090      0.000      0.000
REMARK  9 active torsions:
REMARK  status: ('A' for Active; 'I' for Inactive)
REMARK    1  A    between atoms: C2_2  and  C3_3 
REMARK    2  A    between atoms: C5_8  and  C6_9 
REMARK    3  A    between atoms: C6_9  and  C7_10 
REMARK    4  A    between atoms: C7_10  and  C8_11 
REMARK    5  A    between atoms: C8_11  and  C9_12 
REMARK    6  A    between atoms: C10_13  and  C11_14 
REMARK    7  A    between atoms: C11_14  and  N2_15 
REMARK    8  A    between atoms: C17_29  and  C18_30 
REMARK    9  A    between atoms: C18_30  and  N6_31 
ROOT
HETATM    1  C3  UNL     1      31.280  -0.949  19.155  1.00  0.00     0.135 C 
HETATM    2  C4  UNL     1      30.614  -2.047  18.487  1.00  0.00     0.228 C 
HETATM    3  O1  UNL     1      31.394  -3.039  18.253  1.00  0.00    -0.273 OA
HETATM    4  N1  UNL     1      29.281  -2.198  18.062  1.00  0.00    -0.354 N 
ATOM      5  H1  UNL     1      29.160  -2.672  17.167  1.00  0.00     0.162 HD
HETATM    6  C5  UNL     1      28.086  -1.788  18.692  1.00  0.00     0.110 C 
HETATM    7  C16 UNL     1      28.209  -0.546  19.531  1.00  0.00     0.258 C 
HETATM    8  N5  UNL     1      29.246  -0.667  20.536  1.00  0.00    -0.063 N 
ATOM      9  H51 UNL     1      29.384  -1.632  20.835  1.00  0.00     0.278 HD
ATOM     10  H52 UNL     1      28.962  -0.276  21.434  1.00  0.00     0.278 HD
HETATM   11  C17 UNL     1      30.468  -0.065  20.036  1.00  0.00     0.241 C 
ENDROOT
BRANCH   6  12
HETATM   12  C6  UNL     1      26.980  -1.581  17.709  1.00  0.00     0.028 C 
BRANCH  12  13
HETATM   13  C7  UNL     1      27.314  -2.127  16.362  1.00  0.00     0.014 C 
BRANCH  13  14
HETATM   14  C8  UNL     1      26.653  -1.179  15.341  1.00  0.00     0.094 C 
BRANCH  14  15
HETATM   15  C9  UNL     1      25.311  -1.638  14.992  1.00  0.00    -0.105 C 
HETATM   16  C10 UNL     1      24.191  -1.999  14.695  1.00  0.00    -0.086 C 
BRANCH  16  17
HETATM   17  C11 UNL     1      22.832  -2.424  14.310  1.00  0.00     0.223 C 
BRANCH  17  18
HETATM   18  N2  UNL     1      21.968  -2.084  15.417  1.00  0.00    -0.329 N 
HETATM   19  C12 UNL     1      20.922  -1.330  15.356  1.00  0.00     0.141 A 
HETATM   20  C13 UNL     1      20.299  -1.210  16.670  1.00  0.00     0.116 A 
HETATM   21  N3  UNL     1      19.228  -0.535  17.002  1.00  0.00    -0.384 N 
HETATM   22  N4  UNL     1      21.081  -1.981  17.568  1.00  0.00    -0.328 N 
ATOM     23  H32 UNL     1      18.666   0.019  16.357  1.00  0.00     0.157 HD
ATOM     24  H31 UNL     1      18.793  -0.451  17.920  1.00  0.00     0.157 HD
HETATM   25  C14 UNL     1      22.139  -2.530  16.756  1.00  0.00     0.100 A 
ATOM     26  H4  UNL     1      20.929  -2.116  18.568  1.00  0.00     0.169 HD
HETATM   27  C15 UNL     1      23.081  -3.311  17.228  1.00  0.00     0.064 C 
ENDBRANCH  17  18
ENDBRANCH  16  17
ENDBRANCH  14  15
ENDBRANCH  13  14
ENDBRANCH  12  13
ENDBRANCH   6  12
BRANCH   1  28
HETATM   28  C2  UNL     1      31.983  -0.126  18.092  1.00  0.00    -0.021 C 
HETATM   29  C1  UNL     1      31.284   0.639  17.265  1.00  0.00     0.008 C 
ENDBRANCH   1  28
BRANCH  11  30
HETATM   30  C18 UNL     1      31.226   0.681  21.065  1.00  0.00     0.102 C 
BRANCH  30  31
HETATM   31  N6  UNL     1      30.980   2.045  21.280  1.00  0.00    -0.345 N 
HETATM   32  C19 UNL     1      29.817   2.702  21.096  1.00  0.00     0.095 A 
HETATM   33  C20 UNL     1      29.600   4.023  21.312  1.00  0.00     0.018 A 
HETATM   34  C21 UNL     1      30.644   4.794  21.760  1.00  0.00     0.003 A 
HETATM   35  C22 UNL     1      31.845   4.173  21.962  1.00  0.00     0.018 A 
HETATM   36  C23 UNL     1      32.012   2.811  21.723  1.00  0.00     0.095 A 
ENDBRANCH  30  31
ENDBRANCH  11  30
TORSDOF 9
ENDMDL
MODEL 2
REMARK VINA RESULT: -7.432900411      2.181      9.052
REMARK  9 active torsions:
REMARK  status: ('A' for Active; 'I' for Inactive)
REMARK    1  A    between atoms: C2_2  and  C3_3 
REMARK    2  A    between atoms: C5_8  and  C6_9 
REMARK    3  A    between atoms: C6_9  and  C7_10 
REMARK    4  A    between atoms: C7_10  and  C8_11 
REMARK    5  A    between atoms: C8_11  and  C9_12 
REMARK    6  A    between atoms: C10_13  and  C11_14 
REMARK    7  A    between atoms: C11_14  and  N2_15 
REMARK    8  A    between atoms: C17_29  and  C18_30 
REMARK    9  A    between atoms: C18_30  and  N6_31 
ROOT
HETATM    1  C3  UNL     1      26.076  -1.560  13.635  1.00  0.00     0.135 C 
HETATM    2  C4  UNL     1      27.282  -1.008  14.216  1.00  0.00     0.228 C 
HETATM    3  O1  UNL     1      27.806  -0.082  13.499  1.00  0.00    -0.273 OA
HETATM    4  N1  UNL     1      27.957  -1.318  15.412  1.00  0.00    -0.354 N 
ATOM      5  H1  UNL     1      28.975  -1.307  15.353  1.00  0.00     0.162 HD
HETATM    6  C5  UNL     1      27.431  -1.642  16.681  1.00  0.00     0.110 C 
HETATM    7  C16 UNL     1      26.107  -2.353  16.653  1.00  0.00     0.258 C 
HETATM    8  N5  UNL     1      25.106  -1.613  15.910  1.00  0.00    -0.063 N 
ATOM      9  H51 UNL     1      25.268  -0.606  15.942  1.00  0.00     0.278 HD
ATOM     10  H52 UNL     1      24.195  -1.627  16.369  1.00  0.00     0.278 HD
HETATM   11  C17 UNL     1      25.047  -2.120  14.552  1.00  0.00     0.241 C 
ENDROOT
BRANCH   6  12
HETATM   12  C6  UNL     1      28.385  -2.462  17.487  1.00  0.00     0.028 C 
BRANCH  12  13
HETATM   13  C7  UNL     1      27.681  -3.399  18.410  1.00  0.00     0.014 C 
BRANCH  13  14
HETATM   14  C8  UNL     1      28.492  -3.394  19.722  1.00  0.00     0.094 C 
BRANCH  14  15
HETATM   15  C9  UNL     1      28.625  -2.039  20.251  1.00  0.00    -0.105 C 
HETATM   16  C10 UNL     1      28.758  -0.916  20.693  1.00  0.00    -0.086 C 
BRANCH  16  17
HETATM   17  C11 UNL     1      28.940   0.452  21.214  1.00  0.00     0.223 C 
BRANCH  17  18
HETATM   18  N2  UNL     1      29.768   1.148  20.255  1.00  0.00    -0.329 N 
HETATM   19  C12 UNL     1      30.454   0.599  19.311  1.00  0.00     0.141 A 
HETATM   20  C13 UNL     1      31.167   1.612  18.539  1.00  0.00     0.116 A 
HETATM   21  N3  UNL     1      31.958   1.442  17.510  1.00  0.00    -0.384 N 
HETATM   22  N4  UNL     1      30.845   2.868  19.114  1.00  0.00    -0.328 N 
ATOM     23  H32 UNL     1      32.189   0.539  17.097  1.00  0.00     0.157 HD
ATOM     24  H31 UNL     1      32.455   2.150  16.971  1.00  0.00     0.157 HD
HETATM   25  C14 UNL     1      29.954   2.556  20.204  1.00  0.00     0.100 A 
ATOM     26  H4  UNL     1      31.172   3.789  18.821  1.00  0.00     0.169 HD
HETATM   27  C15 UNL     1      29.430   3.464  20.991  1.00  0.00     0.064 C 
ENDBRANCH  17  18
ENDBRANCH  16  17
ENDBRANCH  14  15
ENDBRANCH  13  14
ENDBRANCH  12  13
ENDBRANCH   6  12
BRANCH   1  28
HETATM   28  C2  UNL     1      26.496  -2.604  12.618  1.00  0.00    -0.021 C 
HETATM   29  C1  UNL     1      27.076  -3.729  13.013  1.00  0.00     0.008 C 
ENDBRANCH   1  28
BRANCH  11  30
HETATM   30  C18 UNL     1      23.673  -2.188  14.004  1.00  0.00     0.102 C 
BRANCH  30  31
HETATM   31  N6  UNL     1      22.566  -1.952  14.832  1.00  0.00    -0.345 N 
HETATM   32  C19 UNL     1      22.069  -2.769  15.782  1.00  0.00     0.095 A 
HETATM   33  C20 UNL     1      20.997  -2.519  16.573  1.00  0.00     0.018 A 
HETATM   34  C21 UNL     1      20.329  -1.329  16.417  1.00  0.00     0.003 A 
HETATM   35  C22 UNL     1      20.795  -0.466  15.465  1.00  0.00     0.018 A 
HETATM   36  C23 UNL     1      21.903  -0.774  14.679  1.00  0.00     0.095 A 
ENDBRANCH  30  31
ENDBRANCH  11  30
TORSDOF 9
ENDMDL
MODEL 3
REMARK VINA RESULT: -7.419601357      2.281      9.964
REMARK  9 active torsions:
REMARK  status: ('A' for Active; 'I' for Inactive)
REMARK    1  A    between atoms: C2_2  and  C3_3 
REMARK    2  A    between atoms: C5_8  and  C6_9 
REMARK    3  A    between atoms: C6_9  and  C7_10 
REMARK    4  A    between atoms: C7_10  and  C8_11 
REMARK    5  A    between atoms: C8_11  and  C9_12 
REMARK    6  A    between atoms: C10_13  and  C11_14 
REMARK    7  A    between atoms: C11_14  and  N2_15 
REMARK    8  A    between atoms: C17_29  and  C18_30 
REMARK    9  A    between atoms: C18_30  and  N6_31 
ROOT
HETATM    1  C3  UNL     1      26.292  -1.522  13.794  1.00  0.00     0.135 C 
HETATM    2  C4  UNL     1      27.396  -0.775  14.355  1.00  0.00     0.228 C 
HETATM    3  O1  UNL     1      27.840   0.135  13.566  1.00  0.00    -0.273 OA
HETATM    4  N1  UNL     1      28.048  -0.883  15.599  1.00  0.00    -0.354 N 
ATOM      5  H1  UNL     1      29.060  -0.753  15.573  1.00  0.00     0.162 HD
HETATM    6  C5  UNL     1      27.507  -1.144  16.876  1.00  0.00     0.110 C 
HETATM    7  C16 UNL     1      26.279  -2.011  16.876  1.00  0.00     0.258 C 
HETATM    8  N5  UNL     1      25.232  -1.473  16.029  1.00  0.00    -0.063 N 
ATOM      9  H51 UNL     1      25.272  -0.456  15.963  1.00  0.00     0.278 HD
ATOM     10  H52 UNL     1      24.309  -1.554  16.456  1.00  0.00     0.278 HD
HETATM   11  C17 UNL     1      25.295  -2.112  14.728  1.00  0.00     0.241 C 
ENDROOT
BRANCH   6  12
HETATM   12  C6  UNL     1      28.514  -1.760  17.792  1.00  0.00     0.028 C 
BRANCH  12  13
HETATM   13  C7  UNL     1      28.878  -0.853  18.919  1.00  0.00     0.014 C 
BRANCH  13  14
HETATM   14  C8  UNL     1      29.244   0.501  18.277  1.00  0.00     0.094 C 
BRANCH  14  15
HETATM   15  C9  UNL     1      29.331   1.553  19.286  1.00  0.00    -0.105 C 
HETATM   16  C10 UNL     1      29.423   2.432  20.118  1.00  0.00    -0.086 C 
BRANCH  16  17
HETATM   17  C11 UNL     1      29.548   3.517  21.110  1.00  0.00     0.223 C 
BRANCH  17  18
HETATM   18  N2  UNL     1      30.932   3.534  21.526  1.00  0.00    -0.329 N 
HETATM   19  C12 UNL     1      31.743   2.532  21.493  1.00  0.00     0.141 A 
HETATM   20  C13 UNL     1      33.059   2.921  21.990  1.00  0.00     0.116 A 
HETATM   21  N3  UNL     1      34.134   2.183  22.107  1.00  0.00    -0.384 N 
HETATM   22  N4  UNL     1      32.977   4.293  22.340  1.00  0.00    -0.328 N 
ATOM     23  H32 UNL     1      34.193   1.197  21.855  1.00  0.00     0.157 HD
ATOM     24  H31 UNL     1      35.053   2.455  22.454  1.00  0.00     0.157 HD
HETATM   25  C14 UNL     1      31.618   4.669  22.039  1.00  0.00     0.100 A 
ATOM     26  H4  UNL     1      33.717   4.883  22.722  1.00  0.00     0.169 HD
HETATM   27  C15 UNL     1      31.144   5.876  22.228  1.00  0.00     0.064 C 
ENDBRANCH  17  18
ENDBRANCH  16  17
ENDBRANCH  14  15
ENDBRANCH  13  14
ENDBRANCH  12  13
ENDBRANCH   6  12
BRANCH   1  28
HETATM   28  C2  UNL     1      26.877  -2.601  12.903  1.00  0.00    -0.021 C 
HETATM   29  C1  UNL     1      27.447  -3.674  13.434  1.00  0.00     0.008 C 
ENDBRANCH   1  28
BRANCH  11  30
HETATM   30  C18 UNL     1      23.965  -2.400  14.144  1.00  0.00     0.102 C 
BRANCH  30  31
HETATM   31  N6  UNL     1      22.796  -2.100  14.858  1.00  0.00    -0.345 N 
HETATM   32  C19 UNL     1      22.228  -2.832  15.838  1.00  0.00     0.095 A 
HETATM   33  C20 UNL     1      21.097  -2.521  16.518  1.00  0.00     0.018 A 
HETATM   34  C21 UNL     1      20.440  -1.357  16.202  1.00  0.00     0.003 A 
HETATM   35  C22 UNL     1      20.977  -0.580  15.213  1.00  0.00     0.018 A 
HETATM   36  C23 UNL     1      22.144  -0.948  14.548  1.00  0.00     0.095 A 
ENDBRANCH  30  31
ENDBRANCH  11  30
TORSDOF 9
ENDMDL
MODEL 4
REMARK VINA RESULT: -7.338895676      2.216      9.509
REMARK  9 active torsions:
REMARK  status: ('A' for Active; 'I' for Inactive)
REMARK    1  A    between atoms: C2_2  and  C3_3 
REMARK    2  A    between atoms: C5_8  and  C6_9 
REMARK    3  A    between atoms: C6_9  and  C7_10 
REMARK    4  A    between atoms: C7_10  and  C8_11 
REMARK    5  A    between atoms: C8_11  and  C9_12 
REMARK    6  A    between atoms: C10_13  and  C11_14 
REMARK    7  A    between atoms: C11_14  and  N2_15 
REMARK    8  A    between atoms: C17_29  and  C18_30 
REMARK    9  A    between atoms: C18_30  and  N6_31 
ROOT
HETATM    1  C3  UNL     1      26.048  -2.184  13.363  1.00  0.00     0.135 C 
HETATM    2  C4  UNL     1      27.328  -1.617  13.731  1.00  0.00     0.228 C 
HETATM    3  O1  UNL     1      27.941  -1.076  12.742  1.00  0.00    -0.273 OA
HETATM    4  N1  UNL     1      27.994  -1.566  14.971  1.00  0.00    -0.354 N 
ATOM      5  H1  UNL     1      29.003  -1.702  14.929  1.00  0.00     0.162 HD
HETATM    6  C5  UNL     1      27.468  -1.353  16.263  1.00  0.00     0.110 C 
HETATM    7  C16 UNL     1      26.067  -1.858  16.466  1.00  0.00     0.258 C 
HETATM    8  N5  UNL     1      25.143  -1.309  15.493  1.00  0.00    -0.063 N 
ATOM      9  H51 UNL     1      25.427  -0.385  15.169  1.00  0.00     0.278 HD
ATOM     10  H52 UNL     1      24.250  -1.047  15.912  1.00  0.00     0.278 HD
HETATM   11  C17 UNL     1      24.984  -2.251  14.401  1.00  0.00     0.241 C 
ENDROOT
BRANCH   6  12
HETATM   12  C6  UNL     1      28.337  -1.947  17.323  1.00  0.00     0.028 C 
BRANCH  12  13
HETATM   13  C7  UNL     1      29.783  -1.662  17.091  1.00  0.00     0.014 C 
BRANCH  13  14
HETATM   14  C8  UNL     1      29.934  -0.129  17.170  1.00  0.00     0.094 C 
BRANCH  14  15
HETATM   15  C9  UNL     1      29.667   0.354  18.523  1.00  0.00    -0.105 C 
HETATM   16  C10 UNL     1      29.433   0.737  19.651  1.00  0.00    -0.086 C 
BRANCH  16  17
HETATM   17  C11 UNL     1      29.155   1.177  21.031  1.00  0.00     0.223 C 
BRANCH  17  18
HETATM   18  N2  UNL     1      29.980   2.341  21.263  1.00  0.00    -0.329 N 
HETATM   19  C12 UNL     1      29.562   3.558  21.353  1.00  0.00     0.141 A 
HETATM   20  C13 UNL     1      30.677   4.468  21.591  1.00  0.00     0.116 A 
HETATM   21  N3  UNL     1      30.648   5.768  21.738  1.00  0.00    -0.384 N 
HETATM   22  N4  UNL     1      31.852   3.674  21.640  1.00  0.00    -0.328 N 
ATOM     23  H32 UNL     1      29.803   6.339  21.703  1.00  0.00     0.157 HD
ATOM     24  H31 UNL     1      31.427   6.404  21.904  1.00  0.00     0.157 HD
HETATM   25  C14 UNL     1      31.392   2.324  21.430  1.00  0.00     0.100 A 
ATOM     26  H4  UNL     1      32.811   3.990  21.790  1.00  0.00     0.169 HD
HETATM   27  C15 UNL     1      32.190   1.284  21.405  1.00  0.00     0.064 C 
ENDBRANCH  17  18
ENDBRANCH  16  17
ENDBRANCH  14  15
ENDBRANCH  13  14
ENDBRANCH  12  13
ENDBRANCH   6  12
BRANCH   1  28
HETATM   28  C2  UNL     1      26.308  -3.563  12.789  1.00  0.00    -0.021 C 
HETATM   29  C1  UNL     1      26.101  -3.804  11.501  1.00  0.00     0.008 C 
ENDBRANCH   1  28
BRANCH  11  30
HETATM   30  C18 UNL     1      23.597  -2.338  13.890  1.00  0.00     0.102 C 
BRANCH  30  31
HETATM   31  N6  UNL     1      22.515  -1.981  14.708  1.00  0.00    -0.345 N 
HETATM   32  C19 UNL     1      21.771  -0.860  14.634  1.00  0.00     0.095 A 
HETATM   33  C20 UNL     1      20.726  -0.536  15.435  1.00  0.00     0.018 A 
HETATM   34  C21 UNL     1      20.365  -1.413  16.428  1.00  0.00     0.003 A 
HETATM   35  C22 UNL     1      21.090  -2.566  16.544  1.00  0.00     0.018 A 
HETATM   36  C23 UNL     1      22.155  -2.848  15.692  1.00  0.00     0.095 A 
ENDBRANCH  30  31
ENDBRANCH  11  30
TORSDOF 9
ENDMDL
MODEL 5
REMARK VINA RESULT: -7.283316627      2.180      9.684
REMARK  9 active torsions:
REMARK  status: ('A' for Active; 'I' for Inactive)
REMARK    1  A    between atoms: C2_2  and  C3_3 
REMARK    2  A    between atoms: C5_8  and  C6_9 
REMARK    3  A    between atoms: C6_9  and  C7_10 
REMARK    4  A    between atoms: C7_10  and  C8_11 
REMARK    5  A    between atoms: C8_11  and  C9_12 
REMARK    6  A    between atoms: C10_13  and  C11_14 
REMARK    7  A    between atoms: C11_14  and  N2_15 
REMARK    8  A    between atoms: C17_29  and  C18_30 
REMARK    9  A    between atoms: C18_30  and  N6_31 
ROOT
HETATM    1  C3  UNL     1      26.091  -1.541  13.679  1.00  0.00     0.135 C 
HETATM    2  C4  UNL     1      27.250  -0.890  14.251  1.00  0.00     0.228 C 
HETATM    3  O1  UNL     1      27.723   0.041  13.504  1.00  0.00    -0.273 OA
HETATM    4  N1  UNL     1      27.927  -1.107  15.466  1.00  0.00    -0.354 N 
ATOM      5  H1  UNL     1      28.943  -1.031  15.419  1.00  0.00     0.162 HD
HETATM    6  C5  UNL     1      27.406  -1.416  16.741  1.00  0.00     0.110 C 
HETATM    7  C16 UNL     1      26.131  -2.213  16.726  1.00  0.00     0.258 C 
HETATM    8  N5  UNL     1      25.094  -1.569  15.943  1.00  0.00    -0.063 N 
ATOM      9  H51 UNL     1      25.189  -0.554  15.937  1.00  0.00     0.278 HD
ATOM     10  H52 UNL     1      24.180  -1.626  16.392  1.00  0.00     0.278 HD
HETATM   11  C17 UNL     1      25.087  -2.132  14.606  1.00  0.00     0.241 C 
ENDROOT
BRANCH   6  12
HETATM   12  C6  UNL     1      28.400  -2.139  17.590  1.00  0.00     0.028 C 
BRANCH  12  13
HETATM   13  C7  UNL     1      28.208  -1.860  19.043  1.00  0.00     0.014 C 
BRANCH  13  14
HETATM   14  C8  UNL     1      28.155  -0.324  19.178  1.00  0.00     0.094 C 
BRANCH  14  15
HETATM   15  C9  UNL     1      29.399   0.196  19.739  1.00  0.00    -0.105 C 
HETATM   16  C10 UNL     1      30.443   0.610  20.199  1.00  0.00    -0.086 C 
BRANCH  16  17
HETATM   17  C11 UNL     1      31.726   1.104  20.735  1.00  0.00     0.223 C 
BRANCH  17  18
HETATM   18  N2  UNL     1      31.485   2.453  21.195  1.00  0.00    -0.329 N 
HETATM   19  C12 UNL     1      30.468   3.185  20.888  1.00  0.00     0.141 A 
HETATM   20  C13 UNL     1      30.560   4.489  21.537  1.00  0.00     0.116 A 
HETATM   21  N3  UNL     1      29.722   5.492  21.466  1.00  0.00    -0.384 N 
HETATM   22  N4  UNL     1      31.762   4.489  22.290  1.00  0.00    -0.328 N 
ATOM     23  H32 UNL     1      28.858   5.491  20.924  1.00  0.00     0.157 HD
ATOM     24  H31 UNL     1      29.787   6.403  21.919  1.00  0.00     0.157 HD
HETATM   25  C14 UNL     1      32.339   3.187  22.062  1.00  0.00     0.100 A 
ATOM     26  H4  UNL     1      32.136   5.244  22.865  1.00  0.00     0.169 HD
HETATM   27  C15 UNL     1      33.471   2.795  22.595  1.00  0.00     0.064 C 
ENDBRANCH  17  18
ENDBRANCH  16  17
ENDBRANCH  14  15
ENDBRANCH  13  14
ENDBRANCH  12  13
ENDBRANCH   6  12
BRANCH   1  28
HETATM   28  C2  UNL     1      26.592  -2.595  12.709  1.00  0.00    -0.021 C 
HETATM   29  C1  UNL     1      27.132  -3.718  13.160  1.00  0.00     0.008 C 
ENDBRANCH   1  28
BRANCH  11  30
HETATM   30  C18 UNL     1      23.729  -2.311  14.045  1.00  0.00     0.102 C 
BRANCH  30  31
HETATM   31  N6  UNL     1      22.599  -1.933  14.786  1.00  0.00    -0.345 N 
HETATM   32  C19 UNL     1      21.902  -0.785  14.680  1.00  0.00     0.095 A 
HETATM   33  C20 UNL     1      20.810  -0.440  15.406  1.00  0.00     0.018 A 
HETATM   34  C21 UNL     1      20.343  -1.323  16.349  1.00  0.00     0.003 A 
HETATM   35  C22 UNL     1      21.018  -2.503  16.494  1.00  0.00     0.018 A 
HETATM   36  C23 UNL     1      22.135  -2.806  15.720  1.00  0.00     0.095 A 
ENDBRANCH  30  31
ENDBRANCH  11  30
TORSDOF 9
ENDMDL
