MODEL 1
REMARK VINA RESULT: -6.695600604      0.000      0.000
REMARK  14 active torsions:
REMARK  status: ('A' for Active; 'I' for Inactive)
REMARK    1  A    between atoms: C2_2  and  C3_3 
REMARK    2  A    between atoms: C3_3  and  C4_4 
REMARK    3  A    between atoms: C4_4  and  C5_5 
REMARK    4  A    between atoms: C5_5  and  C6_6 
REMARK    5  A    between atoms: C6_6  and  C7_7 
REMARK    6  A    between atoms: C10_10  and  C11_11 
REMARK    7  A    between atoms: C11_11  and  N1_12 
REMARK    8  A    between atoms: C13_16  and  C14_17 
REMARK    9  A    between atoms: C15_18  and  C16_19 
REMARK   10  A    between atoms: C17_20  and  C18_21 
REMARK   11  A    between atoms: C18_21  and  O1_22 
REMARK   12  A    between atoms: C21_26  and  N3_27 
REMARK   13  A    between atoms: N3_27  and  N4_29 
REMARK   14  A    between atoms: C22_36  and  N7_37 
ROOT
HETATM    1  C7  UNL     1      24.586  -1.836  15.382  1.00  0.00    -0.015 C 
HETATM    2  C8  UNL     1      25.011  -2.353  16.574  1.00  0.00     0.011 C 
HETATM    3  C9  UNL     1      26.294  -2.776  16.923  1.00  0.00     0.013 C 
HETATM    4  C10 UNL     1      27.506  -2.233  16.475  1.00  0.00     0.006 C 
HETATM    5  C21 UNL     1      27.674  -1.641  15.251  1.00  0.00     0.130 C 
HETATM    6  N6  UNL     1      26.735  -1.139  14.404  1.00  0.00    -0.327 N 
ATOM      7  H6  UNL     1      27.079  -0.471  13.713  1.00  0.00     0.169 HD
HETATM    8  C22 UNL     1      25.428  -1.398  14.350  1.00  0.00     0.106 C 
ENDROOT
BRANCH   4   9
HETATM    9  C11 UNL     1      28.648  -2.286  17.380  1.00  0.00     0.172 C 
BRANCH   9  10
HETATM   10  N1  UNL     1      28.531  -1.451  18.551  1.00  0.00    -0.340 N 
HETATM   11  C12 UNL     1      27.790  -1.641  19.648  1.00  0.00     0.184 A 
HETATM   12  N2  UNL     1      27.967  -0.589  20.499  1.00  0.00    -0.344 N 
HETATM   13  C13 UNL     1      28.832   0.275  19.928  1.00  0.00     0.111 A 
ATOM     14  H2  UNL     1      27.522  -0.475  21.409  1.00  0.00     0.167 HD
HETATM   15  C19 UNL     1      29.167  -0.285  18.716  1.00  0.00     0.044 A 
HETATM   16  C20 UNL     1      30.114   0.349  17.767  1.00  0.00     0.071 C 
BRANCH  13  17
HETATM   17  C14 UNL     1      29.327   1.520  20.430  1.00  0.00    -0.033 C 
HETATM   18  C15 UNL     1      29.762   2.561  20.860  1.00  0.00    -0.008 C 
BRANCH  18  19
HETATM   19  C16 UNL     1      30.299   3.769  21.364  1.00  0.00    -0.013 C 
HETATM   20  C17 UNL     1      30.775   4.786  21.805  1.00  0.00    -0.067 C 
BRANCH  20  21
HETATM   21  C18 UNL     1      31.377   6.012  22.332  1.00  0.00     0.258 C 
BRANCH  21  22
HETATM   22  O1  UNL     1      30.797   7.162  21.799  1.00  0.00    -0.389 OA
ATOM     23  H1  UNL     1      29.848   7.119  21.789  1.00  0.00     0.210 HD
ENDBRANCH  21  22
ENDBRANCH  20  21
ENDBRANCH  18  19
ENDBRANCH  13  17
ENDBRANCH   9  10
ENDBRANCH   4   9
BRANCH   5  24
HETATM   24  N3  UNL     1      28.890  -1.550  14.832  1.00  0.00    -0.271 N 
ATOM     25  H3  UNL     1      29.496  -2.356  14.988  1.00  0.00     0.190 HD
BRANCH  24  26
HETATM   26  N4  UNL     1      29.444  -0.466  14.193  1.00  0.00    -0.248 N 
HETATM   27  N5  UNL     1      30.692  -0.237  14.224  1.00  0.00    -0.331 N 
ATOM     28  H52 UNL     1      31.286  -0.886  14.741  1.00  0.00     0.178 HD
ATOM     29  H51 UNL     1      31.103   0.566  13.750  1.00  0.00     0.178 HD
ATOM     30  H4  UNL     1      28.835   0.172  13.679  1.00  0.00     0.207 HD
ENDBRANCH  24  26
ENDBRANCH   5  24
BRANCH   1  31
HETATM   31  C6  UNL     1      23.155  -1.665  15.089  1.00  0.00     0.042 C 
BRANCH  31  32
HETATM   32  C5  UNL     1      22.259  -2.782  15.465  1.00  0.00     0.005 C 
BRANCH  32  33
HETATM   33  C4  UNL     1      21.181  -2.447  16.422  1.00  0.00     0.000 C 
BRANCH  33  34
HETATM   34  C3  UNL     1      20.422  -1.182  16.060  1.00  0.00    -0.000 C 
BRANCH  34  35
HETATM   35  C2  UNL     1      19.640  -0.656  17.259  1.00  0.00    -0.005 C 
HETATM   36  C1  UNL     1      20.011  -1.358  18.523  1.00  0.00     0.005 C 
ENDBRANCH  34  35
ENDBRANCH  33  34
ENDBRANCH  32  33
ENDBRANCH  31  32
ENDBRANCH   1  31
BRANCH   8  37
HETATM   37  N7  UNL     1      24.822  -1.236  13.223  1.00  0.00    -0.385 N 
ATOM     38  H72 UNL     1      24.169  -1.959  12.920  1.00  0.00     0.157 HD
ATOM     39  H71 UNL     1      25.075  -0.372  12.744  1.00  0.00     0.157 HD
ENDBRANCH   8  37
TORSDOF 14
ENDMDL
MODEL 2
REMARK VINA RESULT: -6.384989988      3.537      8.483
REMARK  14 active torsions:
REMARK  status: ('A' for Active; 'I' for Inactive)
REMARK    1  A    between atoms: C2_2  and  C3_3 
REMARK    2  A    between atoms: C3_3  and  C4_4 
REMARK    3  A    between atoms: C4_4  and  C5_5 
REMARK    4  A    between atoms: C5_5  and  C6_6 
REMARK    5  A    between atoms: C6_6  and  C7_7 
REMARK    6  A    between atoms: C10_10  and  C11_11 
REMARK    7  A    between atoms: C11_11  and  N1_12 
REMARK    8  A    between atoms: C13_16  and  C14_17 
REMARK    9  A    between atoms: C15_18  and  C16_19 
REMARK   10  A    between atoms: C17_20  and  C18_21 
REMARK   11  A    between atoms: C18_21  and  O1_22 
REMARK   12  A    between atoms: C21_26  and  N3_27 
REMARK   13  A    between atoms: N3_27  and  N4_29 
REMARK   14  A    between atoms: C22_36  and  N7_37 
ROOT
HETATM    1  C7  UNL     1      32.095   0.020  18.146  1.00  0.00    -0.015 C 
HETATM    2  C8  UNL     1      30.843  -0.215  17.649  1.00  0.00     0.011 C 
HETATM    3  C9  UNL     1      30.431  -0.225  16.317  1.00  0.00     0.013 C 
HETATM    4  C10 UNL     1      31.187  -0.633  15.209  1.00  0.00     0.006 C 
HETATM    5  C21 UNL     1      32.551  -0.531  15.133  1.00  0.00     0.130 C 
HETATM    6  N6  UNL     1      33.458  -0.383  16.136  1.00  0.00    -0.327 N 
ATOM      7  H6  UNL     1      34.417  -0.645  15.903  1.00  0.00     0.169 HD
HETATM    8  C22 UNL     1      33.269   0.055  17.381  1.00  0.00     0.106 C 
ENDROOT
BRANCH   4   9
HETATM    9  C11 UNL     1      30.473  -1.219  14.081  1.00  0.00     0.172 C 
BRANCH   9  10
HETATM   10  N1  UNL     1      29.266  -1.926  14.431  1.00  0.00    -0.340 N 
HETATM   11  C12 UNL     1      29.119  -3.197  14.819  1.00  0.00     0.184 A 
HETATM   12  N2  UNL     1      27.795  -3.454  15.030  1.00  0.00    -0.344 N 
HETATM   13  C13 UNL     1      27.100  -2.328  14.769  1.00  0.00     0.111 A 
ATOM     14  H2  UNL     1      27.400  -4.344  15.332  1.00  0.00     0.167 HD
HETATM   15  C19 UNL     1      28.038  -1.392  14.398  1.00  0.00     0.044 A 
HETATM   16  C20 UNL     1      27.689   0.003  14.032  1.00  0.00     0.071 C 
BRANCH  13  17
HETATM   17  C14 UNL     1      25.689  -2.100  14.845  1.00  0.00    -0.033 C 
HETATM   18  C15 UNL     1      24.503  -1.892  14.921  1.00  0.00    -0.008 C 
BRANCH  18  19
HETATM   19  C16 UNL     1      23.118  -1.620  15.019  1.00  0.00    -0.013 C 
HETATM   20  C17 UNL     1      21.941  -1.365  15.096  1.00  0.00    -0.067 C 
BRANCH  20  21
HETATM   21  C18 UNL     1      20.515  -1.041  15.166  1.00  0.00     0.258 C 
BRANCH  21  22
HETATM   22  O1  UNL     1      20.278   0.198  15.758  1.00  0.00    -0.389 OA
ATOM     23  H1  UNL     1      19.351   0.395  15.829  1.00  0.00     0.210 HD
ENDBRANCH  21  22
ENDBRANCH  20  21
ENDBRANCH  18  19
ENDBRANCH  13  17
ENDBRANCH   9  10
ENDBRANCH   4   9
BRANCH   5  24
HETATM   24  N3  UNL     1      33.054  -0.571  13.946  1.00  0.00    -0.271 N 
ATOM     25  H3  UNL     1      33.062  -1.477  13.477  1.00  0.00     0.190 HD
BRANCH  24  26
HETATM   26  N4  UNL     1      33.580   0.495  13.255  1.00  0.00    -0.248 N 
HETATM   27  N5  UNL     1      32.841   1.389  12.741  1.00  0.00    -0.331 N 
ATOM     28  H52 UNL     1      31.831   1.301  12.854  1.00  0.00     0.178 HD
ATOM     29  H51 UNL     1      33.231   2.180  12.229  1.00  0.00     0.178 HD
ATOM     30  H4  UNL     1      34.593   0.569  13.153  1.00  0.00     0.207 HD
ENDBRANCH  24  26
ENDBRANCH   5  24
BRANCH   1  31
HETATM   31  C6  UNL     1      32.319   0.236  19.583  1.00  0.00     0.042 C 
BRANCH  31  32
HETATM   32  C5  UNL     1      31.291  -0.295  20.506  1.00  0.00     0.005 C 
BRANCH  32  33
HETATM   33  C4  UNL     1      30.791   0.654  21.525  1.00  0.00     0.000 C 
BRANCH  33  34
HETATM   34  C3  UNL     1      29.381   1.149  21.250  1.00  0.00    -0.000 C 
BRANCH  34  35
HETATM   35  C2  UNL     1      29.384   2.636  20.910  1.00  0.00    -0.005 C 
HETATM   36  C1  UNL     1      29.397   2.875  19.436  1.00  0.00     0.005 C 
ENDBRANCH  34  35
ENDBRANCH  33  34
ENDBRANCH  32  33
ENDBRANCH  31  32
ENDBRANCH   1  31
BRANCH   8  37
HETATM   37  N7  UNL     1      34.271   0.584  17.998  1.00  0.00    -0.385 N 
ATOM     38  H72 UNL     1      34.268   1.594  18.141  1.00  0.00     0.157 HD
ATOM     39  H71 UNL     1      34.980  -0.093  18.282  1.00  0.00     0.157 HD
ENDBRANCH   8  37
TORSDOF 14
ENDMDL
MODEL 3
REMARK VINA RESULT: -6.192363094      0.828      1.010
REMARK  14 active torsions:
REMARK  status: ('A' for Active; 'I' for Inactive)
REMARK    1  A    between atoms: C2_2  and  C3_3 
REMARK    2  A    between atoms: C3_3  and  C4_4 
REMARK    3  A    between atoms: C4_4  and  C5_5 
REMARK    4  A    between atoms: C5_5  and  C6_6 
REMARK    5  A    between atoms: C6_6  and  C7_7 
REMARK    6  A    between atoms: C10_10  and  C11_11 
REMARK    7  A    between atoms: C11_11  and  N1_12 
REMARK    8  A    between atoms: C13_16  and  C14_17 
REMARK    9  A    between atoms: C15_18  and  C16_19 
REMARK   10  A    between atoms: C17_20  and  C18_21 
REMARK   11  A    between atoms: C18_21  and  O1_22 
REMARK   12  A    between atoms: C21_26  and  N3_27 
REMARK   13  A    between atoms: N3_27  and  N4_29 
REMARK   14  A    between atoms: C22_36  and  N7_37 
ROOT
HETATM    1  C7  UNL     1      25.411  -2.006  14.622  1.00  0.00    -0.015 C 
HETATM    2  C8  UNL     1      25.633  -2.152  15.963  1.00  0.00     0.011 C 
HETATM    3  C9  UNL     1      26.805  -2.549  16.606  1.00  0.00     0.013 C 
HETATM    4  C10 UNL     1      28.118  -2.280  16.194  1.00  0.00     0.006 C 
HETATM    5  C21 UNL     1      28.494  -2.124  14.886  1.00  0.00     0.130 C 
HETATM    6  N6  UNL     1      27.725  -1.840  13.800  1.00  0.00    -0.327 N 
ATOM      7  H6  UNL     1      28.225  -1.457  12.996  1.00  0.00     0.169 HD
HETATM    8  C22 UNL     1      26.410  -1.991  13.639  1.00  0.00     0.106 C 
ENDROOT
BRANCH   4   9
HETATM    9  C11 UNL     1      29.137  -2.139  17.228  1.00  0.00     0.172 C 
BRANCH   9  10
HETATM   10  N1  UNL     1      28.796  -1.228  18.293  1.00  0.00    -0.340 N 
HETATM   11  C12 UNL     1      27.734  -1.245  19.105  1.00  0.00     0.184 A 
HETATM   12  N2  UNL     1      27.800  -0.180  19.956  1.00  0.00    -0.344 N 
HETATM   13  C13 UNL     1      28.921   0.516  19.673  1.00  0.00     0.111 A 
ATOM     14  H2  UNL     1      27.120   0.050  20.680  1.00  0.00     0.167 HD
HETATM   15  C19 UNL     1      29.522  -0.156  18.635  1.00  0.00     0.044 A 
HETATM   16  C20 UNL     1      30.801   0.279  18.021  1.00  0.00     0.071 C 
BRANCH  13  17
HETATM   17  C14 UNL     1      29.423   1.706  20.290  1.00  0.00    -0.033 C 
HETATM   18  C15 UNL     1      29.849   2.718  20.791  1.00  0.00    -0.008 C 
BRANCH  18  19
HETATM   19  C16 UNL     1      30.346   3.918  21.353  1.00  0.00    -0.013 C 
HETATM   20  C17 UNL     1      30.792   4.931  21.832  1.00  0.00    -0.067 C 
BRANCH  20  21
HETATM   21  C18 UNL     1      31.354   6.160  22.395  1.00  0.00     0.258 C 
BRANCH  21  22
HETATM   22  O1  UNL     1      30.871   7.305  21.764  1.00  0.00    -0.389 OA
ATOM     23  H1  UNL     1      29.926   7.389  21.836  1.00  0.00     0.210 HD
ENDBRANCH  21  22
ENDBRANCH  20  21
ENDBRANCH  18  19
ENDBRANCH  13  17
ENDBRANCH   9  10
ENDBRANCH   4   9
BRANCH   5  24
HETATM   24  N3  UNL     1      29.750  -2.274  14.639  1.00  0.00    -0.271 N 
ATOM     25  H3  UNL     1      30.193  -3.124  14.989  1.00  0.00     0.190 HD
BRANCH  24  26
HETATM   26  N4  UNL     1      30.548  -1.393  13.947  1.00  0.00    -0.248 N 
HETATM   27  N5  UNL     1      30.870  -0.263  14.427  1.00  0.00    -0.331 N 
ATOM     28  H52 UNL     1      30.519  -0.017  15.353  1.00  0.00     0.178 HD
ATOM     29  H51 UNL     1      31.461   0.390  13.913  1.00  0.00     0.178 HD
ATOM     30  H4  UNL     1      30.890  -1.655  13.022  1.00  0.00     0.207 HD
ENDBRANCH  24  26
ENDBRANCH   5  24
BRANCH   1  31
HETATM   31  C6  UNL     1      24.053  -1.817  14.087  1.00  0.00     0.042 C 
BRANCH  31  32
HETATM   32  C5  UNL     1      22.966  -1.642  15.075  1.00  0.00     0.005 C 
BRANCH  32  33
HETATM   33  C4  UNL     1      21.833  -0.794  14.642  1.00  0.00     0.000 C 
BRANCH  33  34
HETATM   34  C3  UNL     1      20.639  -0.852  15.580  1.00  0.00    -0.000 C 
BRANCH  34  35
HETATM   35  C2  UNL     1      20.844  -1.916  16.653  1.00  0.00    -0.005 C 
HETATM   36  C1  UNL     1      20.192  -1.544  17.945  1.00  0.00     0.005 C 
ENDBRANCH  34  35
ENDBRANCH  33  34
ENDBRANCH  32  33
ENDBRANCH  31  32
ENDBRANCH   1  31
BRANCH   8  37
HETATM   37  N7  UNL     1      25.957  -2.144  12.441  1.00  0.00    -0.385 N 
ATOM     38  H72 UNL     1      25.542  -1.336  11.977  1.00  0.00     0.157 HD
ATOM     39  H71 UNL     1      26.068  -3.093  12.081  1.00  0.00     0.157 HD
ENDBRANCH   8  37
TORSDOF 14
ENDMDL
MODEL 4
REMARK VINA RESULT: -6.168561726      4.686      9.010
REMARK  14 active torsions:
REMARK  status: ('A' for Active; 'I' for Inactive)
REMARK    1  A    between atoms: C2_2  and  C3_3 
REMARK    2  A    between atoms: C3_3  and  C4_4 
REMARK    3  A    between atoms: C4_4  and  C5_5 
REMARK    4  A    between atoms: C5_5  and  C6_6 
REMARK    5  A    between atoms: C6_6  and  C7_7 
REMARK    6  A    between atoms: C10_10  and  C11_11 
REMARK    7  A    between atoms: C11_11  and  N1_12 
REMARK    8  A    between atoms: C13_16  and  C14_17 
REMARK    9  A    between atoms: C15_18  and  C16_19 
REMARK   10  A    between atoms: C17_20  and  C18_21 
REMARK   11  A    between atoms: C18_21  and  O1_22 
REMARK   12  A    between atoms: C21_26  and  N3_27 
REMARK   13  A    between atoms: N3_27  and  N4_29 
REMARK   14  A    between atoms: C22_36  and  N7_37 
ROOT
HETATM    1  C7  UNL     1      29.061   0.730  20.015  1.00  0.00    -0.015 C 
HETATM    2  C8  UNL     1      29.626   0.808  18.772  1.00  0.00     0.011 C 
HETATM    3  C9  UNL     1      29.670  -0.172  17.781  1.00  0.00     0.013 C 
HETATM    4  C10 UNL     1      28.691  -1.141  17.517  1.00  0.00     0.006 C 
HETATM    5  C21 UNL     1      27.861  -1.670  18.469  1.00  0.00     0.130 C 
HETATM    6  N6  UNL     1      27.540  -1.179  19.697  1.00  0.00    -0.327 N 
ATOM      7  H6  UNL     1      26.681  -1.548  20.106  1.00  0.00     0.169 HD
HETATM    8  C22 UNL     1      28.192  -0.284  20.440  1.00  0.00     0.106 C 
ENDROOT
BRANCH   4   9
HETATM    9  C11 UNL     1      28.541  -1.593  16.139  1.00  0.00     0.172 C 
BRANCH   9  10
HETATM   10  N1  UNL     1      29.764  -1.618  15.374  1.00  0.00    -0.340 N 
HETATM   11  C12 UNL     1      30.887  -2.306  15.606  1.00  0.00     0.184 A 
HETATM   12  N2  UNL     1      31.802  -2.015  14.637  1.00  0.00    -0.344 N 
HETATM   13  C13 UNL     1      31.246  -1.130  13.783  1.00  0.00     0.111 A 
ATOM     14  H2  UNL     1      32.744  -2.399  14.569  1.00  0.00     0.167 HD
HETATM   15  C19 UNL     1      29.978  -0.900  14.264  1.00  0.00     0.044 A 
HETATM   16  C20 UNL     1      29.016   0.017  13.604  1.00  0.00     0.071 C 
BRANCH  13  17
HETATM   17  C14 UNL     1      31.810  -0.529  12.613  1.00  0.00    -0.033 C 
HETATM   18  C15 UNL     1      32.270  -0.030  11.614  1.00  0.00    -0.008 C 
BRANCH  18  19
HETATM   19  C16 UNL     1      32.785   0.548  10.431  1.00  0.00    -0.013 C 
HETATM   20  C17 UNL     1      33.215   1.064   9.428  1.00  0.00    -0.067 C 
BRANCH  20  21
HETATM   21  C18 UNL     1      33.745   1.710   8.227  1.00  0.00     0.258 C 
BRANCH  21  22
HETATM   22  O1  UNL     1      32.819   1.744   7.186  1.00  0.00    -0.389 OA
ATOM     23  H1  UNL     1      32.293   2.535   7.193  1.00  0.00     0.210 HD
ENDBRANCH  21  22
ENDBRANCH  20  21
ENDBRANCH  18  19
ENDBRANCH  13  17
ENDBRANCH   9  10
ENDBRANCH   4   9
BRANCH   5  24
HETATM   24  N3  UNL     1      27.306  -2.794  18.171  1.00  0.00    -0.271 N 
ATOM     25  H3  UNL     1      27.928  -3.577  17.964  1.00  0.00     0.190 HD
BRANCH  24  26
HETATM   26  N4  UNL     1      25.954  -3.036  18.105  1.00  0.00    -0.248 N 
HETATM   27  N5  UNL     1      25.191  -2.367  17.344  1.00  0.00    -0.331 N 
ATOM     28  H52 UNL     1      25.608  -1.633  16.770  1.00  0.00     0.178 HD
ATOM     29  H51 UNL     1      24.188  -2.547  17.295  1.00  0.00     0.178 HD
ATOM     30  H4  UNL     1      25.553  -3.774  18.686  1.00  0.00     0.207 HD
ENDBRANCH  24  26
ENDBRANCH   5  24
BRANCH   1  31
HETATM   31  C6  UNL     1      29.310   1.761  21.034  1.00  0.00     0.042 C 
BRANCH  31  32
HETATM   32  C5  UNL     1      29.316   3.167  20.573  1.00  0.00     0.005 C 
BRANCH  32  33
HETATM   33  C4  UNL     1      30.098   4.112  21.401  1.00  0.00     0.000 C 
BRANCH  33  34
HETATM   34  C3  UNL     1      31.486   3.603  21.751  1.00  0.00    -0.000 C 
BRANCH  34  35
HETATM   35  C2  UNL     1      32.344   4.722  22.333  1.00  0.00    -0.005 C 
HETATM   36  C1  UNL     1      31.576   5.992  22.495  1.00  0.00     0.005 C 
ENDBRANCH  34  35
ENDBRANCH  33  34
ENDBRANCH  32  33
ENDBRANCH  31  32
ENDBRANCH   1  31
BRANCH   8  37
HETATM   37  N7  UNL     1      28.027  -0.320  21.719  1.00  0.00    -0.385 N 
ATOM     38  H72 UNL     1      28.539  -1.025  22.250  1.00  0.00     0.157 HD
ATOM     39  H71 UNL     1      27.378   0.386  22.067  1.00  0.00     0.157 HD
ENDBRANCH   8  37
TORSDOF 14
ENDMDL
MODEL 5
REMARK VINA RESULT: -6.017016139      2.018      3.308
REMARK  14 active torsions:
REMARK  status: ('A' for Active; 'I' for Inactive)
REMARK    1  A    between atoms: C2_2  and  C3_3 
REMARK    2  A    between atoms: C3_3  and  C4_4 
REMARK    3  A    between atoms: C4_4  and  C5_5 
REMARK    4  A    between atoms: C5_5  and  C6_6 
REMARK    5  A    between atoms: C6_6  and  C7_7 
REMARK    6  A    between atoms: C10_10  and  C11_11 
REMARK    7  A    between atoms: C11_11  and  N1_12 
REMARK    8  A    between atoms: C13_16  and  C14_17 
REMARK    9  A    between atoms: C15_18  and  C16_19 
REMARK   10  A    between atoms: C17_20  and  C18_21 
REMARK   11  A    between atoms: C18_21  and  O1_22 
REMARK   12  A    between atoms: C21_26  and  N3_27 
REMARK   13  A    between atoms: N3_27  and  N4_29 
REMARK   14  A    between atoms: C22_36  and  N7_37 
ROOT
HETATM    1  C7  UNL     1      24.173  -2.405  16.038  1.00  0.00    -0.015 C 
HETATM    2  C8  UNL     1      25.345  -1.939  15.509  1.00  0.00     0.011 C 
HETATM    3  C9  UNL     1      26.578  -1.787  16.143  1.00  0.00     0.013 C 
HETATM    4  C10 UNL     1      27.103  -2.598  17.159  1.00  0.00     0.006 C 
HETATM    5  C21 UNL     1      26.338  -3.265  18.078  1.00  0.00     0.130 C 
HETATM    6  N6  UNL     1      25.018  -3.590  18.023  1.00  0.00    -0.327 N 
ATOM      7  H6  UNL     1      24.725  -4.346  18.643  1.00  0.00     0.169 HD
HETATM    8  C22 UNL     1      24.053  -3.058  17.272  1.00  0.00     0.106 C 
ENDROOT
BRANCH   4   9
HETATM    9  C11 UNL     1      28.552  -2.752  17.222  1.00  0.00     0.172 C 
BRANCH   9  10
HETATM   10  N1  UNL     1      29.290  -1.513  17.276  1.00  0.00    -0.340 N 
HETATM   11  C12 UNL     1      30.017  -0.926  16.319  1.00  0.00     0.184 A 
HETATM   12  N2  UNL     1      30.560   0.226  16.809  1.00  0.00    -0.344 N 
HETATM   13  C13 UNL     1      30.168   0.364  18.093  1.00  0.00     0.111 A 
ATOM     14  H2  UNL     1      31.158   0.871  16.294  1.00  0.00     0.167 HD
HETATM   15  C19 UNL     1      29.379  -0.731  18.359  1.00  0.00     0.044 A 
HETATM   16  C20 UNL     1      28.732  -0.963  19.674  1.00  0.00     0.071 C 
BRANCH  13  17
HETATM   17  C14 UNL     1      30.478   1.406  19.023  1.00  0.00    -0.033 C 
HETATM   18  C15 UNL     1      30.725   2.279  19.821  1.00  0.00    -0.008 C 
BRANCH  18  19
HETATM   19  C16 UNL     1      30.997   3.288  20.774  1.00  0.00    -0.013 C 
HETATM   20  C17 UNL     1      31.253   4.144  21.584  1.00  0.00    -0.067 C 
BRANCH  20  21
HETATM   21  C18 UNL     1      31.583   5.193  22.551  1.00  0.00     0.258 C 
BRANCH  21  22
HETATM   22  O1  UNL     1      32.287   4.704  23.649  1.00  0.00    -0.389 OA
ATOM     23  H1  UNL     1      31.762   4.125  24.190  1.00  0.00     0.210 HD
ENDBRANCH  21  22
ENDBRANCH  20  21
ENDBRANCH  18  19
ENDBRANCH  13  17
ENDBRANCH   9  10
ENDBRANCH   4   9
BRANCH   5  24
HETATM   24  N3  UNL     1      26.945  -3.634  19.154  1.00  0.00    -0.271 N 
ATOM     25  H3  UNL     1      27.963  -3.689  19.117  1.00  0.00     0.190 HD
BRANCH  24  26
HETATM   26  N4  UNL     1      26.345  -3.962  20.347  1.00  0.00    -0.248 N 
HETATM   27  N5  UNL     1      26.701  -3.430  21.443  1.00  0.00    -0.331 N 
ATOM     28  H52 UNL     1      27.454  -2.742  21.420  1.00  0.00     0.178 HD
ATOM     29  H51 UNL     1      26.256  -3.672  22.328  1.00  0.00     0.178 HD
ATOM     30  H4  UNL     1      25.593  -4.651  20.352  1.00  0.00     0.207 HD
ENDBRANCH  24  26
ENDBRANCH   5  24
BRANCH   1  31
HETATM   31  C6  UNL     1      22.901  -2.275  15.311  1.00  0.00     0.042 C 
BRANCH  31  32
HETATM   32  C5  UNL     1      22.618  -0.963  14.689  1.00  0.00     0.005 C 
BRANCH  32  33
HETATM   33  C4  UNL     1      21.312  -0.357  15.031  1.00  0.00     0.000 C 
BRANCH  33  34
HETATM   34  C3  UNL     1      20.404  -1.284  15.824  1.00  0.00    -0.000 C 
BRANCH  34  35
HETATM   35  C2  UNL     1      19.805  -0.560  17.025  1.00  0.00    -0.005 C 
HETATM   36  C1  UNL     1      19.912  -1.365  18.278  1.00  0.00     0.005 C 
ENDBRANCH  34  35
ENDBRANCH  33  34
ENDBRANCH  32  33
ENDBRANCH  31  32
ENDBRANCH   1  31
BRANCH   8  37
HETATM   37  N7  UNL     1      22.838  -3.135  17.698  1.00  0.00    -0.385 N 
ATOM     38  H72 UNL     1      22.396  -2.285  18.049  1.00  0.00     0.157 HD
ATOM     39  H71 UNL     1      22.442  -4.074  17.636  1.00  0.00     0.157 HD
ENDBRANCH   8  37
TORSDOF 14
ENDMDL
