MODEL 1
REMARK VINA RESULT: -8.459890110      0.000      0.000
REMARK  9 active torsions:
REMARK  status: ('A' for Active; 'I' for Inactive)
REMARK    1  A    between atoms: C3_3  and  C4_4 
REMARK    2  A    between atoms: C4_4  and  C5_5 
REMARK    3  A    between atoms: C5_5  and  C6_6 
REMARK    4  A    between atoms: C6_6  and  C7_7 
REMARK    5  A    between atoms: C7_7  and  N1_8 
REMARK    6  A    between atoms: C10_11  and  C11_12 
REMARK    7  A    between atoms: C11_12  and  N2_13 
REMARK    8  A    between atoms: C15_24  and  C16_25 
REMARK    9  A    between atoms: C16_25  and  C17_26 
ROOT
HETATM    1  C1  UNL     1      29.646   3.952  21.370  1.00  0.00     0.012 C 
HETATM    2  C2  UNL     1      29.472   2.797  21.039  1.00  0.00    -0.117 C 
HETATM    3  C3  UNL     1      29.262   1.397  20.662  1.00  0.00     0.093 C 
ENDROOT
BRANCH   3   4
HETATM    4  C4  UNL     1      28.932   1.348  19.184  1.00  0.00     0.012 C 
BRANCH   4   5
HETATM    5  C5  UNL     1      29.179   0.005  18.584  1.00  0.00     0.002 C 
BRANCH   5   6
HETATM    6  C6  UNL     1      27.976  -0.742  18.136  1.00  0.00     0.020 C 
BRANCH   6   7
HETATM    7  C7  UNL     1      27.931  -1.177  16.719  1.00  0.00     0.128 C 
BRANCH   7   8
HETATM    8  N1  UNL     1      26.616  -1.506  16.208  1.00  0.00    -0.357 N 
HETATM    9  C8  UNL     1      25.615  -1.993  16.956  1.00  0.00     0.092 A 
HETATM   10  C9  UNL     1      24.356  -2.314  16.469  1.00  0.00     0.026 A 
HETATM   11  C10 UNL     1      24.068  -2.135  15.134  1.00  0.00    -0.035 A 
HETATM   12  C14 UNL     1      25.086  -1.637  14.355  1.00  0.00     0.038 A 
HETATM   13  C15 UNL     1      26.336  -1.327  14.879  1.00  0.00     0.036 A 
BRANCH  11  14
HETATM   14  C11 UNL     1      22.730  -2.465  14.562  1.00  0.00     0.189 C 
BRANCH  14  15
HETATM   15  N2  UNL     1      21.740  -1.691  15.258  1.00  0.00    -0.269 N 
HETATM   16  C12 UNL     1      21.328  -0.433  15.027  1.00  0.00     0.218 A 
HETATM   17  N3  UNL     1      20.369  -0.102  15.934  1.00  0.00    -0.185 N 
HETATM   18  C13 UNL     1      20.195  -1.180  16.732  1.00  0.00     0.691 A 
ATOM     19  H3  UNL     1      19.876   0.789  15.999  1.00  0.00     0.185 HD
HETATM   20  N4  UNL     1      19.367  -1.259  17.719  1.00  0.00    -0.233 N 
HETATM   21  N5  UNL     1      21.042  -2.122  16.293  1.00  0.00    -0.129 N 
ATOM     22  H42 UNL     1      18.723  -0.542  18.053  1.00  0.00     0.174 HD
ATOM     23  H41 UNL     1      19.237  -2.072  18.321  1.00  0.00     0.174 HD
ATOM     24  H5  UNL     1      21.135  -3.051  16.704  1.00  0.00     0.206 HD
ENDBRANCH  14  15
ENDBRANCH  11  14
BRANCH  13  25
HETATM   25  C16 UNL     1      27.386  -0.825  14.016  1.00  0.00     0.059 C 
BRANCH  25  26
HETATM   26  C17 UNL     1      28.057  -1.570  13.157  1.00  0.00     0.037 A 
HETATM   27  C18 UNL     1      27.512  -2.621  12.480  1.00  0.00     0.049 A 
HETATM   28  C19 UNL     1      28.269  -3.362  11.604  1.00  0.00     0.062 A 
HETATM   29  C20 UNL     1      29.597  -3.080  11.369  1.00  0.00     0.066 A 
HETATM   30  C23 UNL     1      28.490  -4.427  10.646  1.00  0.00     0.258 A 
HETATM   31  C21 UNL     1      30.124  -2.014  12.065  1.00  0.00     0.121 A 
HETATM   32  N7  UNL     1      29.861  -4.012  10.508  1.00  0.00    -0.321 N 
HETATM   33  N6  UNL     1      29.376  -1.303  12.915  1.00  0.00    -0.359 N 
HETATM   34  C22 UNL     1      29.975  -0.189  13.625  1.00  0.00     0.156 C 
ATOM     35  H7  UNL     1      30.675  -4.315   9.972  1.00  0.00     0.169 HD
HETATM   36  O1  UNL     1      27.769  -5.336  10.148  1.00  0.00    -0.267 OA
ENDBRANCH  25  26
ENDBRANCH  13  25
ENDBRANCH   7   8
ENDBRANCH   6   7
ENDBRANCH   5   6
ENDBRANCH   4   5
ENDBRANCH   3   4
TORSDOF 9
ENDMDL
MODEL 2
REMARK VINA RESULT: -8.358026883      1.007      1.311
REMARK  9 active torsions:
REMARK  status: ('A' for Active; 'I' for Inactive)
REMARK    1  A    between atoms: C3_3  and  C4_4 
REMARK    2  A    between atoms: C4_4  and  C5_5 
REMARK    3  A    between atoms: C5_5  and  C6_6 
REMARK    4  A    between atoms: C6_6  and  C7_7 
REMARK    5  A    between atoms: C7_7  and  N1_8 
REMARK    6  A    between atoms: C10_11  and  C11_12 
REMARK    7  A    between atoms: C11_12  and  N2_13 
REMARK    8  A    between atoms: C15_24  and  C16_25 
REMARK    9  A    between atoms: C16_25  and  C17_26 
ROOT
HETATM    1  C1  UNL     1      29.502   3.652  21.014  1.00  0.00     0.012 C 
HETATM    2  C2  UNL     1      29.448   2.491  20.664  1.00  0.00    -0.117 C 
HETATM    3  C3  UNL     1      29.391   1.083  20.264  1.00  0.00     0.093 C 
ENDROOT
BRANCH   3   4
HETATM    4  C4  UNL     1      28.665   0.996  18.937  1.00  0.00     0.012 C 
BRANCH   4   5
HETATM    5  C5  UNL     1      28.872  -0.312  18.252  1.00  0.00     0.002 C 
BRANCH   5   6
HETATM    6  C6  UNL     1      27.655  -1.139  18.041  1.00  0.00     0.020 C 
BRANCH   6   7
HETATM    7  C7  UNL     1      27.421  -1.674  16.678  1.00  0.00     0.128 C 
BRANCH   7   8
HETATM    8  N1  UNL     1      26.034  -1.877  16.316  1.00  0.00    -0.357 N 
HETATM    9  C8  UNL     1      25.086  -2.303  17.164  1.00  0.00     0.092 A 
HETATM   10  C9  UNL     1      23.757  -2.503  16.820  1.00  0.00     0.026 A 
HETATM   11  C10 UNL     1      23.336  -2.259  15.532  1.00  0.00    -0.035 A 
HETATM   12  C14 UNL     1      24.298  -1.822  14.651  1.00  0.00     0.038 A 
HETATM   13  C15 UNL     1      25.621  -1.633  15.032  1.00  0.00     0.036 A 
BRANCH  11  14
HETATM   14  C11 UNL     1      21.918  -2.459  15.112  1.00  0.00     0.189 C 
BRANCH  14  15
HETATM   15  N2  UNL     1      21.125  -1.413  15.692  1.00  0.00    -0.269 N 
HETATM   16  C12 UNL     1      20.292  -1.462  16.746  1.00  0.00     0.218 A 
HETATM   17  N3  UNL     1      19.748  -0.231  16.946  1.00  0.00    -0.185 N 
HETATM   18  C13 UNL     1      20.260   0.583  15.994  1.00  0.00     0.691 A 
ATOM     19  H3  UNL     1      19.082   0.028  17.673  1.00  0.00     0.185 HD
HETATM   20  N4  UNL     1      19.986   1.836  15.849  1.00  0.00    -0.233 N 
HETATM   21  N5  UNL     1      21.089  -0.167  15.254  1.00  0.00    -0.129 N 
ATOM     22  H42 UNL     1      19.355   2.406  16.413  1.00  0.00     0.174 HD
ATOM     23  H41 UNL     1      20.372   2.449  15.131  1.00  0.00     0.174 HD
ATOM     24  H5  UNL     1      21.623   0.179  14.457  1.00  0.00     0.206 HD
ENDBRANCH  14  15
ENDBRANCH  11  14
BRANCH  13  25
HETATM   25  C16 UNL     1      26.605  -1.192  14.064  1.00  0.00     0.059 C 
BRANCH  25  26
HETATM   26  C17 UNL     1      27.121  -1.967  13.128  1.00  0.00     0.037 A 
HETATM   27  C18 UNL     1      26.410  -2.920  12.460  1.00  0.00     0.049 A 
HETATM   28  C19 UNL     1      27.010  -3.700  11.499  1.00  0.00     0.062 A 
HETATM   29  C20 UNL     1      28.340  -3.556  11.169  1.00  0.00     0.066 A 
HETATM   30  C23 UNL     1      27.036  -4.740  10.489  1.00  0.00     0.258 A 
HETATM   31  C21 UNL     1      29.035  -2.586  11.858  1.00  0.00     0.121 A 
HETATM   32  N7  UNL     1      28.431  -4.471  10.256  1.00  0.00    -0.321 N 
HETATM   33  N6  UNL     1      28.439  -1.836  12.790  1.00  0.00    -0.359 N 
HETATM   34  C22 UNL     1      29.212  -0.827  13.489  1.00  0.00     0.156 C 
ATOM     35  H7  UNL     1      29.162  -4.837   9.647  1.00  0.00     0.169 HD
HETATM   36  O1  UNL     1      26.181  -5.541  10.019  1.00  0.00    -0.267 OA
ENDBRANCH  25  26
ENDBRANCH  13  25
ENDBRANCH   7   8
ENDBRANCH   6   7
ENDBRANCH   5   6
ENDBRANCH   4   5
ENDBRANCH   3   4
TORSDOF 9
ENDMDL
MODEL 3
REMARK VINA RESULT: -8.213142877      1.506      1.842
REMARK  9 active torsions:
REMARK  status: ('A' for Active; 'I' for Inactive)
REMARK    1  A    between atoms: C3_3  and  C4_4 
REMARK    2  A    between atoms: C4_4  and  C5_5 
REMARK    3  A    between atoms: C5_5  and  C6_6 
REMARK    4  A    between atoms: C6_6  and  C7_7 
REMARK    5  A    between atoms: C7_7  and  N1_8 
REMARK    6  A    between atoms: C10_11  and  C11_12 
REMARK    7  A    between atoms: C11_12  and  N2_13 
REMARK    8  A    between atoms: C15_24  and  C16_25 
REMARK    9  A    between atoms: C16_25  and  C17_26 
ROOT
HETATM    1  C1  UNL     1      29.321   2.944  19.560  1.00  0.00     0.012 C 
HETATM    2  C2  UNL     1      29.146   1.766  19.796  1.00  0.00    -0.117 C 
HETATM    3  C3  UNL     1      28.943   0.348  20.102  1.00  0.00     0.093 C 
ENDROOT
BRANCH   3   4
HETATM    4  C4  UNL     1      28.105  -0.261  18.997  1.00  0.00     0.012 C 
BRANCH   4   5
HETATM    5  C5  UNL     1      28.913  -0.631  17.799  1.00  0.00     0.002 C 
BRANCH   5   6
HETATM    6  C6  UNL     1      28.183  -0.669  16.506  1.00  0.00     0.020 C 
BRANCH   6   7
HETATM    7  C7  UNL     1      27.645  -1.979  16.064  1.00  0.00     0.128 C 
BRANCH   7   8
HETATM    8  N1  UNL     1      26.250  -1.982  15.675  1.00  0.00    -0.357 N 
HETATM    9  C8  UNL     1      25.225  -2.000  16.539  1.00  0.00     0.092 A 
HETATM   10  C9  UNL     1      23.887  -2.008  16.170  1.00  0.00     0.026 A 
HETATM   11  C10 UNL     1      23.541  -1.996  14.837  1.00  0.00    -0.035 A 
HETATM   12  C14 UNL     1      24.583  -1.978  13.939  1.00  0.00     0.038 A 
HETATM   13  C15 UNL     1      25.913  -1.971  14.347  1.00  0.00     0.036 A 
BRANCH  11  14
HETATM   14  C11 UNL     1      22.118  -2.004  14.389  1.00  0.00     0.189 C 
BRANCH  14  15
HETATM   15  N2  UNL     1      21.298  -1.582  15.489  1.00  0.00    -0.269 N 
HETATM   16  C12 UNL     1      20.557  -0.468  15.620  1.00  0.00     0.218 A 
HETATM   17  N3  UNL     1      19.940  -0.479  16.833  1.00  0.00    -0.185 N 
HETATM   18  C13 UNL     1      20.313  -1.623  17.452  1.00  0.00     0.691 A 
ATOM     19  H3  UNL     1      19.316   0.237  17.204  1.00  0.00     0.185 HD
HETATM   20  N4  UNL     1      19.936  -1.999  18.627  1.00  0.00    -0.233 N 
HETATM   21  N5  UNL     1      21.134  -2.265  16.609  1.00  0.00    -0.129 N 
ATOM     22  H42 UNL     1      19.311  -1.511  19.269  1.00  0.00     0.174 HD
ATOM     23  H41 UNL     1      20.217  -2.861  19.094  1.00  0.00     0.174 HD
ATOM     24  H5  UNL     1      21.576  -3.163  16.805  1.00  0.00     0.206 HD
ENDBRANCH  14  15
ENDBRANCH  11  14
BRANCH  13  25
HETATM   25  C16 UNL     1      26.978  -1.975  13.365  1.00  0.00     0.059 C 
BRANCH  25  26
HETATM   26  C17 UNL     1      27.015  -2.777  12.317  1.00  0.00     0.037 A 
HETATM   27  C18 UNL     1      25.944  -3.500  11.880  1.00  0.00     0.049 A 
HETATM   28  C19 UNL     1      26.052  -4.322  10.784  1.00  0.00     0.062 A 
HETATM   29  C20 UNL     1      27.231  -4.452  10.082  1.00  0.00     0.066 A 
HETATM   30  C23 UNL     1      25.550  -5.268   9.806  1.00  0.00     0.258 A 
HETATM   31  C21 UNL     1      28.297  -3.712  10.544  1.00  0.00     0.121 A 
HETATM   32  N7  UNL     1      26.846  -5.298   9.179  1.00  0.00    -0.321 N 
HETATM   33  N6  UNL     1      28.177  -2.917  11.612  1.00  0.00    -0.359 N 
HETATM   34  C22 UNL     1      29.329  -2.155  12.060  1.00  0.00     0.156 C 
ATOM     35  H7  UNL     1      27.270  -5.773   8.382  1.00  0.00     0.169 HD
HETATM   36  O1  UNL     1      24.436  -5.825   9.600  1.00  0.00    -0.267 OA
ENDBRANCH  25  26
ENDBRANCH  13  25
ENDBRANCH   7   8
ENDBRANCH   6   7
ENDBRANCH   5   6
ENDBRANCH   4   5
ENDBRANCH   3   4
TORSDOF 9
ENDMDL
MODEL 4
REMARK VINA RESULT: -7.967000655      2.924      6.942
REMARK  9 active torsions:
REMARK  status: ('A' for Active; 'I' for Inactive)
REMARK    1  A    between atoms: C3_3  and  C4_4 
REMARK    2  A    between atoms: C4_4  and  C5_5 
REMARK    3  A    between atoms: C5_5  and  C6_6 
REMARK    4  A    between atoms: C6_6  and  C7_7 
REMARK    5  A    between atoms: C7_7  and  N1_8 
REMARK    6  A    between atoms: C10_11  and  C11_12 
REMARK    7  A    between atoms: C11_12  and  N2_13 
REMARK    8  A    between atoms: C15_24  and  C16_25 
REMARK    9  A    between atoms: C16_25  and  C17_26 
ROOT
HETATM    1  C1  UNL     1      20.316  -1.624  17.673  1.00  0.00     0.012 C 
HETATM    2  C2  UNL     1      20.430  -1.386  16.489  1.00  0.00    -0.117 C 
HETATM    3  C3  UNL     1      20.545  -1.096  15.058  1.00  0.00     0.093 C 
ENDROOT
BRANCH   3   4
HETATM    4  C4  UNL     1      22.011  -0.902  14.729  1.00  0.00     0.012 C 
BRANCH   4   5
HETATM    5  C5  UNL     1      22.812  -2.146  14.917  1.00  0.00     0.002 C 
BRANCH   5   6
HETATM    6  C6  UNL     1      23.992  -2.033  15.813  1.00  0.00     0.020 C 
BRANCH   6   7
HETATM    7  C7  UNL     1      25.301  -1.732  15.184  1.00  0.00     0.128 C 
BRANCH   7   8
HETATM    8  N1  UNL     1      26.413  -1.574  16.099  1.00  0.00    -0.357 N 
HETATM    9  C8  UNL     1      26.379  -1.918  17.394  1.00  0.00     0.092 A 
HETATM   10  C9  UNL     1      27.440  -1.763  18.275  1.00  0.00     0.026 A 
HETATM   11  C10 UNL     1      28.629  -1.226  17.833  1.00  0.00    -0.035 A 
HETATM   12  C14 UNL     1      28.677  -0.869  16.506  1.00  0.00     0.038 A 
HETATM   13  C15 UNL     1      27.593  -1.038  15.652  1.00  0.00     0.036 A 
BRANCH  11  14
HETATM   14  C11 UNL     1      29.799  -1.039  18.740  1.00  0.00     0.189 C 
BRANCH  14  15
HETATM   15  N2  UNL     1      30.076   0.366  18.834  1.00  0.00    -0.269 N 
HETATM   16  C12 UNL     1      31.190   1.038  18.496  1.00  0.00     0.218 A 
HETATM   17  N3  UNL     1      31.012   2.362  18.756  1.00  0.00    -0.185 N 
HETATM   18  C13 UNL     1      29.765   2.497  19.263  1.00  0.00     0.691 A 
ATOM     19  H3  UNL     1      31.689   3.108  18.599  1.00  0.00     0.185 HD
HETATM   20  N4  UNL     1      29.222   3.607  19.635  1.00  0.00    -0.233 N 
HETATM   21  N5  UNL     1      29.229   1.269  19.295  1.00  0.00    -0.129 N 
ATOM     22  H42 UNL     1      29.630   4.542  19.610  1.00  0.00     0.174 HD
ATOM     23  H41 UNL     1      28.282   3.710  20.017  1.00  0.00     0.174 HD
ATOM     24  H5  UNL     1      28.289   1.059  19.631  1.00  0.00     0.206 HD
ENDBRANCH  14  15
ENDBRANCH  11  14
BRANCH  13  25
HETATM   25  C16 UNL     1      27.682  -0.627  14.266  1.00  0.00     0.059 C 
BRANCH  25  26
HETATM   26  C17 UNL     1      28.765  -0.758  13.524  1.00  0.00     0.037 A 
HETATM   27  C18 UNL     1      29.815   0.111  13.558  1.00  0.00     0.049 A 
HETATM   28  C19 UNL     1      30.913  -0.080  12.752  1.00  0.00     0.062 A 
HETATM   29  C20 UNL     1      31.004  -1.147  11.885  1.00  0.00     0.066 A 
HETATM   30  C23 UNL     1      32.221   0.256  12.224  1.00  0.00     0.258 A 
HETATM   31  C21 UNL     1      29.930  -2.010  11.869  1.00  0.00     0.121 A 
HETATM   32  N7  UNL     1      32.169  -0.902  11.372  1.00  0.00    -0.321 N 
HETATM   33  N6  UNL     1      28.869  -1.811  12.658  1.00  0.00    -0.359 N 
HETATM   34  C22 UNL     1      27.763  -2.748  12.607  1.00  0.00     0.156 C 
ATOM     35  H7  UNL     1      32.776  -1.336  10.676  1.00  0.00     0.169 HD
HETATM   36  O1  UNL     1      33.050   1.185  12.434  1.00  0.00    -0.267 OA
ENDBRANCH  25  26
ENDBRANCH  13  25
ENDBRANCH   7   8
ENDBRANCH   6   7
ENDBRANCH   5   6
ENDBRANCH   4   5
ENDBRANCH   3   4
TORSDOF 9
ENDMDL
MODEL 5
REMARK VINA RESULT: -7.424224247      2.078      2.962
REMARK  9 active torsions:
REMARK  status: ('A' for Active; 'I' for Inactive)
REMARK    1  A    between atoms: C3_3  and  C4_4 
REMARK    2  A    between atoms: C4_4  and  C5_5 
REMARK    3  A    between atoms: C5_5  and  C6_6 
REMARK    4  A    between atoms: C6_6  and  C7_7 
REMARK    5  A    between atoms: C7_7  and  N1_8 
REMARK    6  A    between atoms: C10_11  and  C11_12 
REMARK    7  A    between atoms: C11_12  and  N2_13 
REMARK    8  A    between atoms: C15_24  and  C16_25 
REMARK    9  A    between atoms: C16_25  and  C17_26 
ROOT
HETATM    1  C1  UNL     1      27.823  -2.435  19.587  1.00  0.00     0.012 C 
HETATM    2  C2  UNL     1      28.028  -1.400  18.986  1.00  0.00    -0.117 C 
HETATM    3  C3  UNL     1      28.255  -0.143  18.271  1.00  0.00     0.093 C 
ENDROOT
BRANCH   3   4
HETATM    4  C4  UNL     1      29.669  -0.155  17.727  1.00  0.00     0.012 C 
BRANCH   4   5
HETATM    5  C5  UNL     1      29.874  -1.196  16.679  1.00  0.00     0.002 C 
BRANCH   5   6
HETATM    6  C6  UNL     1      28.923  -1.170  15.538  1.00  0.00     0.020 C 
BRANCH   6   7
HETATM    7  C7  UNL     1      28.240  -2.440  15.190  1.00  0.00     0.128 C 
BRANCH   7   8
HETATM    8  N1  UNL     1      26.832  -2.324  14.867  1.00  0.00    -0.357 N 
HETATM    9  C8  UNL     1      25.933  -1.683  15.628  1.00  0.00     0.092 A 
HETATM   10  C9  UNL     1      24.583  -1.574  15.325  1.00  0.00     0.026 A 
HETATM   11  C10 UNL     1      24.089  -2.147  14.174  1.00  0.00    -0.035 A 
HETATM   12  C14 UNL     1      25.000  -2.808  13.384  1.00  0.00     0.038 A 
HETATM   13  C15 UNL     1      26.346  -2.896  13.721  1.00  0.00     0.036 A 
BRANCH  11  14
HETATM   14  C11 UNL     1      22.646  -2.058  13.803  1.00  0.00     0.189 C 
BRANCH  14  15
HETATM   15  N2  UNL     1      21.872  -2.019  15.012  1.00  0.00    -0.269 N 
HETATM   16  C12 UNL     1      21.886  -2.864  16.057  1.00  0.00     0.218 A 
HETATM   17  N3  UNL     1      20.985  -2.442  16.986  1.00  0.00    -0.185 N 
HETATM   18  C13 UNL     1      20.413  -1.319  16.496  1.00  0.00     0.691 A 
ATOM     19  H3  UNL     1      20.781  -2.888  17.880  1.00  0.00     0.185 HD
HETATM   20  N4  UNL     1      19.505  -0.618  17.086  1.00  0.00    -0.233 N 
HETATM   21  N5  UNL     1      20.975  -1.093  15.300  1.00  0.00    -0.129 N 
ATOM     22  H42 UNL     1      19.077  -0.790  17.997  1.00  0.00     0.174 HD
ATOM     23  H41 UNL     1      19.073   0.229  16.717  1.00  0.00     0.174 HD
ATOM     24  H5  UNL     1      20.741  -0.309  14.691  1.00  0.00     0.206 HD
ENDBRANCH  14  15
ENDBRANCH  11  14
BRANCH  13  25
HETATM   25  C16 UNL     1      27.267  -3.622  12.869  1.00  0.00     0.059 C 
BRANCH  25  26
HETATM   26  C17 UNL     1      27.106  -3.776  11.568  1.00  0.00     0.037 A 
HETATM   27  C18 UNL     1      26.086  -4.488  11.011  1.00  0.00     0.049 A 
HETATM   28  C19 UNL     1      25.980  -4.615   9.646  1.00  0.00     0.062 A 
HETATM   29  C20 UNL     1      26.887  -4.033   8.787  1.00  0.00     0.066 A 
HETATM   30  C23 UNL     1      25.361  -5.082   8.421  1.00  0.00     0.258 A 
HETATM   31  C21 UNL     1      27.909  -3.319   9.375  1.00  0.00     0.121 A 
HETATM   32  N7  UNL     1      26.384  -4.419   7.657  1.00  0.00    -0.321 N 
HETATM   33  N6  UNL     1      27.999  -3.205  10.704  1.00  0.00    -0.359 N 
HETATM   34  C22 UNL     1      29.092  -2.442  11.277  1.00  0.00     0.156 C 
ATOM     35  H7  UNL     1      26.612  -4.305   6.669  1.00  0.00     0.169 HD
HETATM   36  O1  UNL     1      24.344  -5.781   8.151  1.00  0.00    -0.267 OA
ENDBRANCH  25  26
ENDBRANCH  13  25
ENDBRANCH   7   8
ENDBRANCH   6   7
ENDBRANCH   5   6
ENDBRANCH   4   5
ENDBRANCH   3   4
TORSDOF 9
ENDMDL
