MODEL 1
REMARK VINA RESULT: -6.795049357      0.000      0.000
REMARK  11 active torsions:
REMARK  status: ('A' for Active; 'I' for Inactive)
REMARK    1  A    between atoms: C3_4  and  C4_5 
REMARK    2  A    between atoms: C5_6  and  C6_7 
REMARK    3  A    between atoms: C6_7  and  O1_9 
REMARK    4  A    between atoms: C6_7  and  C8_11 
REMARK    5  A    between atoms: C8_11  and  C9_12 
REMARK    6  A    between atoms: C9_12  and  N2_13 
REMARK    7  A    between atoms: N2_13  and  C12_16 
REMARK    8  A    between atoms: C12_16  and  C13_17 
REMARK    9  A    between atoms: C13_17  and  C14_18 
REMARK   10  A    between atoms: C14_18  and  N3_19 
REMARK   11  A    between atoms: C22_30  and  N6_31 
ROOT
HETATM    1  C8  UNL     1      28.325  -2.414  16.704  1.00  0.00     0.079 C 
ENDROOT
BRANCH   1   2
HETATM    2  C6  UNL     1      27.277  -2.720  17.780  1.00  0.00     0.119 C 
HETATM    3  C7  UNL     1      27.414  -4.145  18.267  1.00  0.00     0.060 C 
BRANCH   2   4
HETATM    4  C5  UNL     1      25.980  -2.516  17.133  1.00  0.00    -0.063 C 
HETATM    5  C4  UNL     1      24.906  -2.334  16.614  1.00  0.00    -0.062 C 
BRANCH   5   6
HETATM    6  C3  UNL     1      23.625  -2.101  16.016  1.00  0.00     0.038 A 
HETATM    7  C2  UNL     1      22.463  -1.986  16.750  1.00  0.00     0.130 A 
HETATM    8  N1  UNL     1      21.266  -1.768  16.202  1.00  0.00    -0.305 N 
HETATM    9  C1  UNL     1      20.103  -1.661  17.041  1.00  0.00     0.177 C 
HETATM   10  N7  UNL     1      21.194  -1.658  14.870  1.00  0.00    -0.284 N 
HETATM   11  C22 UNL     1      22.292  -1.760  14.098  1.00  0.00     0.114 A 
ATOM     12  H7  UNL     1      20.288  -1.492  14.431  1.00  0.00     0.188 HD
HETATM   13  C21 UNL     1      23.549  -1.986  14.651  1.00  0.00     0.071 A 
BRANCH  11  14
HETATM   14  N6  UNL     1      22.174  -1.646  12.826  1.00  0.00    -0.384 N 
ATOM     15  H62 UNL     1      22.888  -2.054  12.222  1.00  0.00     0.157 HD
ATOM     16  H61 UNL     1      21.370  -1.150  12.439  1.00  0.00     0.157 HD
ENDBRANCH  11  14
ENDBRANCH   5   6
ENDBRANCH   2   4
BRANCH   2  17
HETATM   17  O1  UNL     1      27.501  -1.809  18.810  1.00  0.00    -0.378 OA
ATOM     18  H1  UNL     1      28.423  -1.608  18.918  1.00  0.00     0.211 HD
ENDBRANCH   2  17
ENDBRANCH   1   2
BRANCH   1  19
HETATM   19  C9  UNL     1      28.877  -1.060  17.017  1.00  0.00     0.240 C 
BRANCH  19  20
HETATM   20  N2  UNL     1      30.184  -0.819  16.458  1.00  0.00    -0.074 N 
HETATM   21  C10 UNL     1      30.969  -2.039  16.601  1.00  0.00     0.272 C 
HETATM   22  C11 UNL     1      30.067  -0.498  15.053  1.00  0.00     0.272 C 
BRANCH  20  23
HETATM   23  C12 UNL     1      30.820   0.199  17.229  1.00  0.00     0.238 C 
BRANCH  23  24
HETATM   24  C13 UNL     1      30.054   0.601  18.467  1.00  0.00     0.056 C 
BRANCH  24  25
HETATM   25  C14 UNL     1      31.044   1.329  19.381  1.00  0.00     0.249 C 
BRANCH  25  26
HETATM   26  N3  UNL     1      30.373   1.987  20.470  1.00  0.00    -0.009 N 
HETATM   27  C15 UNL     1      29.776   1.075  21.410  1.00  0.00     0.283 C 
HETATM   28  C16 UNL     1      29.400   2.945  19.997  1.00  0.00     0.267 C 
HETATM   29  C17 UNL     1      29.402   3.967  21.112  1.00  0.00     0.160 C 
HETATM   30  N4  UNL     1      30.793   3.928  21.576  1.00  0.00    -0.320 N 
HETATM   31  C18 UNL     1      31.739   4.610  22.242  1.00  0.00     0.111 A 
HETATM   32  C20 UNL     1      31.352   2.750  21.188  1.00  0.00     0.285 A 
HETATM   33  C19 UNL     1      32.908   3.882  22.289  1.00  0.00     0.108 A 
HETATM   34  N5  UNL     1      32.619   2.734  21.620  1.00  0.00    -0.330 N 
ATOM     35  H5  UNL     1      33.276   1.968  21.469  1.00  0.00     0.168 HD
ENDBRANCH  25  26
ENDBRANCH  24  25
ENDBRANCH  23  24
ENDBRANCH  20  23
ENDBRANCH  19  20
ENDBRANCH   1  19
TORSDOF 11
ENDMDL
MODEL 2
REMARK VINA RESULT: -6.676141119      1.566      2.604
REMARK  11 active torsions:
REMARK  status: ('A' for Active; 'I' for Inactive)
REMARK    1  A    between atoms: C3_4  and  C4_5 
REMARK    2  A    between atoms: C5_6  and  C6_7 
REMARK    3  A    between atoms: C6_7  and  O1_9 
REMARK    4  A    between atoms: C6_7  and  C8_11 
REMARK    5  A    between atoms: C8_11  and  C9_12 
REMARK    6  A    between atoms: C9_12  and  N2_13 
REMARK    7  A    between atoms: N2_13  and  C12_16 
REMARK    8  A    between atoms: C12_16  and  C13_17 
REMARK    9  A    between atoms: C13_17  and  C14_18 
REMARK   10  A    between atoms: C14_18  and  N3_19 
REMARK   11  A    between atoms: C22_30  and  N6_31 
ROOT
HETATM    1  C8  UNL     1      27.979  -1.060  17.963  1.00  0.00     0.079 C 
ENDROOT
BRANCH   1   2
HETATM    2  C6  UNL     1      27.993  -1.898  16.680  1.00  0.00     0.119 C 
HETATM    3  C7  UNL     1      28.888  -1.262  15.640  1.00  0.00     0.060 C 
BRANCH   2   4
HETATM    4  C5  UNL     1      26.604  -1.932  16.219  1.00  0.00    -0.063 C 
HETATM    5  C4  UNL     1      25.453  -1.950  15.857  1.00  0.00    -0.062 C 
BRANCH   5   6
HETATM    6  C3  UNL     1      24.080  -1.959  15.448  1.00  0.00     0.038 A 
HETATM    7  C2  UNL     1      23.033  -2.087  16.335  1.00  0.00     0.130 A 
HETATM    8  N1  UNL     1      21.751  -2.096  15.964  1.00  0.00    -0.305 N 
HETATM    9  C1  UNL     1      20.719  -2.234  16.956  1.00  0.00     0.177 C 
HETATM   10  N7  UNL     1      21.473  -1.975  14.661  1.00  0.00    -0.284 N 
HETATM   11  C22 UNL     1      22.451  -1.846  13.744  1.00  0.00     0.114 A 
ATOM     12  H7  UNL     1      20.499  -1.980  14.355  1.00  0.00     0.188 HD
HETATM   13  C21 UNL     1      23.793  -1.834  14.112  1.00  0.00     0.071 A 
BRANCH  11  14
HETATM   14  N6  UNL     1      22.135  -1.732  12.506  1.00  0.00    -0.384 N 
ATOM     15  H62 UNL     1      22.778  -2.082  11.795  1.00  0.00     0.157 HD
ATOM     16  H61 UNL     1      21.249  -1.295  12.252  1.00  0.00     0.157 HD
ENDBRANCH  11  14
ENDBRANCH   5   6
ENDBRANCH   2   4
BRANCH   2  17
HETATM   17  O1  UNL     1      28.458  -3.160  17.045  1.00  0.00    -0.378 OA
ATOM     18  H1  UNL     1      29.102  -3.118  17.742  1.00  0.00     0.211 HD
ENDBRANCH   2  17
ENDBRANCH   1   2
BRANCH   1  19
HETATM   19  C9  UNL     1      27.883  -2.024  19.104  1.00  0.00     0.240 C 
BRANCH  19  20
HETATM   20  N2  UNL     1      28.548  -1.579  20.302  1.00  0.00    -0.074 N 
HETATM   21  C10 UNL     1      28.012  -2.337  21.426  1.00  0.00     0.272 C 
HETATM   22  C11 UNL     1      29.968  -1.830  20.200  1.00  0.00     0.272 C 
BRANCH  20  23
HETATM   23  C12 UNL     1      28.221  -0.205  20.510  1.00  0.00     0.238 C 
BRANCH  23  24
HETATM   24  C13 UNL     1      29.069   0.475  21.558  1.00  0.00     0.056 C 
BRANCH  24  25
HETATM   25  C14 UNL     1      29.244   1.929  21.109  1.00  0.00     0.249 C 
BRANCH  25  26
HETATM   26  N3  UNL     1      30.623   2.236  20.837  1.00  0.00    -0.009 N 
HETATM   27  C15 UNL     1      30.930   2.293  19.432  1.00  0.00     0.283 C 
HETATM   28  C16 UNL     1      31.517   1.330  21.520  1.00  0.00     0.267 C 
HETATM   29  C17 UNL     1      32.734   2.200  21.740  1.00  0.00     0.160 C 
HETATM   30  N4  UNL     1      32.145   3.531  21.921  1.00  0.00    -0.320 N 
HETATM   31  C18 UNL     1      32.360   4.760  22.418  1.00  0.00     0.111 A 
HETATM   32  C20 UNL     1      30.895   3.535  21.380  1.00  0.00     0.285 A 
HETATM   33  C19 UNL     1      31.259   5.561  22.203  1.00  0.00     0.108 A 
HETATM   34  N5  UNL     1      30.375   4.756  21.556  1.00  0.00    -0.330 N 
ATOM     35  H5  UNL     1      29.446   5.042  21.247  1.00  0.00     0.168 HD
ENDBRANCH  25  26
ENDBRANCH  24  25
ENDBRANCH  23  24
ENDBRANCH  20  23
ENDBRANCH  19  20
ENDBRANCH   1  19
TORSDOF 11
ENDMDL
MODEL 3
REMARK VINA RESULT: -6.603736980      4.957      9.125
REMARK  11 active torsions:
REMARK  status: ('A' for Active; 'I' for Inactive)
REMARK    1  A    between atoms: C3_4  and  C4_5 
REMARK    2  A    between atoms: C5_6  and  C6_7 
REMARK    3  A    between atoms: C6_7  and  O1_9 
REMARK    4  A    between atoms: C6_7  and  C8_11 
REMARK    5  A    between atoms: C8_11  and  C9_12 
REMARK    6  A    between atoms: C9_12  and  N2_13 
REMARK    7  A    between atoms: N2_13  and  C12_16 
REMARK    8  A    between atoms: C12_16  and  C13_17 
REMARK    9  A    between atoms: C13_17  and  C14_18 
REMARK   10  A    between atoms: C14_18  and  N3_19 
REMARK   11  A    between atoms: C22_30  and  N6_31 
ROOT
HETATM    1  C8  UNL     1      28.448  -1.725  15.948  1.00  0.00     0.079 C 
ENDROOT
BRANCH   1   2
HETATM    2  C6  UNL     1      27.619  -2.528  16.956  1.00  0.00     0.119 C 
HETATM    3  C7  UNL     1      28.007  -3.989  16.920  1.00  0.00     0.060 C 
BRANCH   2   4
HETATM    4  C5  UNL     1      26.225  -2.351  16.545  1.00  0.00    -0.063 C 
HETATM    5  C4  UNL     1      25.082  -2.206  16.186  1.00  0.00    -0.062 C 
BRANCH   5   6
HETATM    6  C3  UNL     1      23.733  -2.034  15.736  1.00  0.00     0.038 A 
HETATM    7  C2  UNL     1      22.651  -2.024  16.591  1.00  0.00     0.130 A 
HETATM    8  N1  UNL     1      21.391  -1.863  16.181  1.00  0.00    -0.305 N 
HETATM    9  C1  UNL     1      20.320  -1.864  17.141  1.00  0.00     0.177 C 
HETATM   10  N7  UNL     1      21.171  -1.705  14.871  1.00  0.00    -0.284 N 
HETATM   11  C22 UNL     1      22.185  -1.705  13.984  1.00  0.00     0.114 A 
ATOM     12  H7  UNL     1      20.215  -1.581  14.536  1.00  0.00     0.188 HD
HETATM   13  C21 UNL     1      23.505  -1.871  14.392  1.00  0.00     0.071 A 
BRANCH  11  14
HETATM   14  N6  UNL     1      21.925  -1.549  12.738  1.00  0.00    -0.384 N 
ATOM     15  H62 UNL     1      21.723  -2.370  12.167  1.00  0.00     0.157 HD
ATOM     16  H61 UNL     1      21.923  -0.610  12.339  1.00  0.00     0.157 HD
ENDBRANCH  11  14
ENDBRANCH   5   6
ENDBRANCH   2   4
BRANCH   2  17
HETATM   17  O1  UNL     1      27.875  -1.966  18.205  1.00  0.00    -0.378 OA
ATOM     18  H1  UNL     1      28.361  -1.152  18.140  1.00  0.00     0.211 HD
ENDBRANCH   2  17
ENDBRANCH   1   2
BRANCH   1  19
HETATM   19  C9  UNL     1      28.470  -2.521  14.681  1.00  0.00     0.240 C 
BRANCH  19  20
HETATM   20  N2  UNL     1      28.188  -1.745  13.500  1.00  0.00    -0.074 N 
HETATM   21  C10 UNL     1      28.028  -0.353  13.900  1.00  0.00     0.272 C 
HETATM   22  C11 UNL     1      29.292  -1.842  12.571  1.00  0.00     0.272 C 
BRANCH  20  23
HETATM   23  C12 UNL     1      26.943  -2.187  12.960  1.00  0.00     0.238 C 
BRANCH  23  24
HETATM   24  C13 UNL     1      26.883  -3.673  12.694  1.00  0.00     0.056 C 
BRANCH  24  25
HETATM   25  C14 UNL     1      25.952  -3.868  11.494  1.00  0.00     0.249 C 
BRANCH  25  26
HETATM   26  N3  UNL     1      26.676  -4.290  10.325  1.00  0.00    -0.009 N 
HETATM   27  C15 UNL     1      27.954  -4.880  10.625  1.00  0.00     0.283 C 
HETATM   28  C16 UNL     1      26.820  -3.215   9.370  1.00  0.00     0.267 C 
HETATM   29  C17 UNL     1      26.869  -3.969   8.059  1.00  0.00     0.160 C 
HETATM   30  N4  UNL     1      25.995  -5.118   8.320  1.00  0.00    -0.320 N 
HETATM   31  C18 UNL     1      25.250  -6.074   7.742  1.00  0.00     0.111 A 
HETATM   32  C20 UNL     1      25.893  -5.294   9.666  1.00  0.00     0.285 A 
HETATM   33  C19 UNL     1      24.665  -6.869   8.704  1.00  0.00     0.108 A 
HETATM   34  N5  UNL     1      25.093  -6.345   9.883  1.00  0.00    -0.330 N 
ATOM     35  H5  UNL     1      24.840  -6.704  10.804  1.00  0.00     0.168 HD
ENDBRANCH  25  26
ENDBRANCH  24  25
ENDBRANCH  23  24
ENDBRANCH  20  23
ENDBRANCH  19  20
ENDBRANCH   1  19
TORSDOF 11
ENDMDL
MODEL 4
REMARK VINA RESULT: -6.500451174      2.258      3.790
REMARK  11 active torsions:
REMARK  status: ('A' for Active; 'I' for Inactive)
REMARK    1  A    between atoms: C3_4  and  C4_5 
REMARK    2  A    between atoms: C5_6  and  C6_7 
REMARK    3  A    between atoms: C6_7  and  O1_9 
REMARK    4  A    between atoms: C6_7  and  C8_11 
REMARK    5  A    between atoms: C8_11  and  C9_12 
REMARK    6  A    between atoms: C9_12  and  N2_13 
REMARK    7  A    between atoms: N2_13  and  C12_16 
REMARK    8  A    between atoms: C12_16  and  C13_17 
REMARK    9  A    between atoms: C13_17  and  C14_18 
REMARK   10  A    between atoms: C14_18  and  N3_19 
REMARK   11  A    between atoms: C22_30  and  N6_31 
ROOT
HETATM    1  C8  UNL     1      26.677  -4.525  18.056  1.00  0.00     0.079 C 
ENDROOT
BRANCH   1   2
HETATM    2  C6  UNL     1      25.357  -4.751  18.801  1.00  0.00     0.119 C 
HETATM    3  C7  UNL     1      24.993  -6.219  18.805  1.00  0.00     0.060 C 
BRANCH   2   4
HETATM    4  C5  UNL     1      24.357  -3.970  18.070  1.00  0.00    -0.063 C 
HETATM    5  C4  UNL     1      23.543  -3.331  17.450  1.00  0.00    -0.062 C 
BRANCH   5   6
HETATM    6  C3  UNL     1      22.590  -2.576  16.692  1.00  0.00     0.038 A 
HETATM    7  C2  UNL     1      22.767  -2.262  15.361  1.00  0.00     0.130 A 
HETATM    8  N1  UNL     1      21.884  -1.561  14.647  1.00  0.00    -0.305 N 
HETATM    9  C1  UNL     1      22.147  -1.277  13.262  1.00  0.00     0.177 C 
HETATM   10  N7  UNL     1      20.771  -1.142  15.259  1.00  0.00    -0.284 N 
HETATM   11  C22 UNL     1      20.539  -1.416  16.557  1.00  0.00     0.114 A 
ATOM     12  H7  UNL     1      20.083  -0.603  14.732  1.00  0.00     0.188 HD
HETATM   13  C21 UNL     1      21.447  -2.146  17.318  1.00  0.00     0.071 A 
BRANCH  11  14
HETATM   14  N6  UNL     1      19.456  -0.993  17.101  1.00  0.00    -0.384 N 
ATOM     15  H62 UNL     1      18.561  -1.226  16.670  1.00  0.00     0.157 HD
ATOM     16  H61 UNL     1      19.508  -0.434  17.953  1.00  0.00     0.157 HD
ENDBRANCH  11  14
ENDBRANCH   5   6
ENDBRANCH   2   4
BRANCH   2  17
HETATM   17  O1  UNL     1      25.555  -4.274  20.095  1.00  0.00    -0.378 OA
ATOM     18  H1  UNL     1      24.990  -4.703  20.727  1.00  0.00     0.211 HD
ENDBRANCH   2  17
ENDBRANCH   1   2
BRANCH   1  19
HETATM   19  C9  UNL     1      27.154  -3.158  18.433  1.00  0.00     0.240 C 
BRANCH  19  20
HETATM   20  N2  UNL     1      27.993  -2.538  17.440  1.00  0.00    -0.074 N 
HETATM   21  C10 UNL     1      29.382  -2.818  17.783  1.00  0.00     0.272 C 
HETATM   22  C11 UNL     1      27.710  -3.097  16.137  1.00  0.00     0.272 C 
BRANCH  20  23
HETATM   23  C12 UNL     1      27.805  -1.125  17.512  1.00  0.00     0.238 C 
BRANCH  23  24
HETATM   24  C13 UNL     1      29.022  -0.367  17.985  1.00  0.00     0.056 C 
BRANCH  24  25
HETATM   25  C14 UNL     1      28.541   0.614  19.058  1.00  0.00     0.249 C 
BRANCH  25  26
HETATM   26  N3  UNL     1      29.248   0.433  20.297  1.00  0.00    -0.009 N 
HETATM   27  C15 UNL     1      29.296   1.620  21.109  1.00  0.00     0.283 C 
HETATM   28  C16 UNL     1      30.576  -0.093  20.081  1.00  0.00     0.267 C 
HETATM   29  C17 UNL     1      30.811  -0.876  21.354  1.00  0.00     0.160 C 
HETATM   30  N4  UNL     1      29.465  -1.353  21.687  1.00  0.00    -0.320 N 
HETATM   31  C18 UNL     1      28.775  -2.272  22.382  1.00  0.00     0.111 A 
HETATM   32  C20 UNL     1      28.552  -0.566  21.054  1.00  0.00     0.285 A 
HETATM   33  C19 UNL     1      27.421  -2.088  22.203  1.00  0.00     0.108 A 
HETATM   34  N5  UNL     1      27.331  -1.017  21.370  1.00  0.00    -0.330 N 
ATOM     35  H5  UNL     1      26.457  -0.613  21.034  1.00  0.00     0.168 HD
ENDBRANCH  25  26
ENDBRANCH  24  25
ENDBRANCH  23  24
ENDBRANCH  20  23
ENDBRANCH  19  20
ENDBRANCH   1  19
TORSDOF 11
ENDMDL
MODEL 5
REMARK VINA RESULT: -6.460646068      4.381      8.120
REMARK  11 active torsions:
REMARK  status: ('A' for Active; 'I' for Inactive)
REMARK    1  A    between atoms: C3_4  and  C4_5 
REMARK    2  A    between atoms: C5_6  and  C6_7 
REMARK    3  A    between atoms: C6_7  and  O1_9 
REMARK    4  A    between atoms: C6_7  and  C8_11 
REMARK    5  A    between atoms: C8_11  and  C9_12 
REMARK    6  A    between atoms: C9_12  and  N2_13 
REMARK    7  A    between atoms: N2_13  and  C12_16 
REMARK    8  A    between atoms: C12_16  and  C13_17 
REMARK    9  A    between atoms: C13_17  and  C14_18 
REMARK   10  A    between atoms: C14_18  and  N3_19 
REMARK   11  A    between atoms: C22_30  and  N6_31 
ROOT
HETATM    1  C8  UNL     1      28.097  -1.915  17.271  1.00  0.00     0.079 C 
ENDROOT
BRANCH   1   2
HETATM    2  C6  UNL     1      27.102  -2.881  17.924  1.00  0.00     0.119 C 
HETATM    3  C7  UNL     1      27.540  -4.314  17.720  1.00  0.00     0.060 C 
BRANCH   2   4
HETATM    4  C5  UNL     1      25.821  -2.631  17.262  1.00  0.00    -0.063 C 
HETATM    5  C4  UNL     1      24.769  -2.404  16.715  1.00  0.00    -0.062 C 
BRANCH   5   6
HETATM    6  C3  UNL     1      23.527  -2.110  16.066  1.00  0.00     0.038 A 
HETATM    7  C2  UNL     1      22.351  -1.896  16.754  1.00  0.00     0.130 A 
HETATM    8  N1  UNL     1      21.189  -1.621  16.159  1.00  0.00    -0.305 N 
HETATM    9  C1  UNL     1      20.009  -1.411  16.953  1.00  0.00     0.177 C 
HETATM   10  N7  UNL     1      21.168  -1.551  14.823  1.00  0.00    -0.284 N 
HETATM   11  C22 UNL     1      22.282  -1.750  14.093  1.00  0.00     0.114 A 
ATOM     12  H7  UNL     1      20.290  -1.342  14.347  1.00  0.00     0.188 HD
HETATM   13  C21 UNL     1      23.503  -2.037  14.696  1.00  0.00     0.071 A 
BRANCH  11  14
HETATM   14  N6  UNL     1      22.213  -1.671  12.814  1.00  0.00    -0.384 N 
ATOM     15  H62 UNL     1      22.991  -2.019  12.253  1.00  0.00     0.157 HD
ATOM     16  H61 UNL     1      21.384  -1.265  12.380  1.00  0.00     0.157 HD
ENDBRANCH  11  14
ENDBRANCH   5   6
ENDBRANCH   2   4
BRANCH   2  17
HETATM   17  O1  UNL     1      27.070  -2.549  19.277  1.00  0.00    -0.378 OA
ATOM     18  H1  UNL     1      27.528  -1.737  19.459  1.00  0.00     0.211 HD
ENDBRANCH   2  17
ENDBRANCH   1   2
BRANCH   1  19
HETATM   19  C9  UNL     1      28.888  -2.716  16.285  1.00  0.00     0.240 C 
BRANCH  19  20
HETATM   20  N2  UNL     1      29.160  -2.020  15.053  1.00  0.00    -0.074 N 
HETATM   21  C10 UNL     1      29.750  -0.728  15.383  1.00  0.00     0.272 C 
HETATM   22  C11 UNL     1      30.101  -2.776  14.258  1.00  0.00     0.272 C 
BRANCH  20  23
HETATM   23  C12 UNL     1      27.919  -1.774  14.393  1.00  0.00     0.238 C 
BRANCH  23  24
HETATM   24  C13 UNL     1      27.244  -3.020  13.871  1.00  0.00     0.056 C 
BRANCH  24  25
HETATM   25  C14 UNL     1      26.819  -2.721  12.431  1.00  0.00     0.249 C 
BRANCH  25  26
HETATM   26  N3  UNL     1      27.427  -3.634  11.499  1.00  0.00    -0.009 N 
HETATM   27  C15 UNL     1      27.714  -4.925  12.067  1.00  0.00     0.283 C 
HETATM   28  C16 UNL     1      28.609  -3.067  10.891  1.00  0.00     0.267 C 
HETATM   29  C17 UNL     1      28.620  -3.748   9.540  1.00  0.00     0.160 C 
HETATM   30  N4  UNL     1      27.191  -3.912   9.256  1.00  0.00    -0.320 N 
HETATM   31  C18 UNL     1      26.289  -4.108   8.279  1.00  0.00     0.111 A 
HETATM   32  C20 UNL     1      26.499  -3.843  10.426  1.00  0.00     0.285 A 
HETATM   33  C19 UNL     1      25.018  -4.165   8.809  1.00  0.00     0.108 A 
HETATM   34  N5  UNL     1      25.199  -3.995  10.146  1.00  0.00    -0.330 N 
ATOM     35  H5  UNL     1      24.449  -3.985  10.837  1.00  0.00     0.168 HD
ENDBRANCH  25  26
ENDBRANCH  24  25
ENDBRANCH  23  24
ENDBRANCH  20  23
ENDBRANCH  19  20
ENDBRANCH   1  19
TORSDOF 11
ENDMDL
