MODEL 1
REMARK VINA RESULT: -7.669075368      0.000      0.000
REMARK  11 active torsions:
REMARK  status: ('A' for Active; 'I' for Inactive)
REMARK    1  A    between atoms: C2_2  and  C3_3 
REMARK    2  A    between atoms: C3_3  and  C4_4 
REMARK    3  A    between atoms: C4_4  and  C5_5 
REMARK    4  A    between atoms: C5_5  and  C6_6 
REMARK    5  A    between atoms: C6_6  and  N1_7 
REMARK    6  A    between atoms: C8_9  and  C9_10 
REMARK    7  A    between atoms: C9_10  and  C10_11 
REMARK    8  A    between atoms: C11_12  and  C12_13 
REMARK    9  A    between atoms: C12_13  and  C14_15 
REMARK   10  A    between atoms: C12_13  and  N4_21 
REMARK   11  A    between atoms: N2_16  and  N3_18 
ROOT
HETATM    1  C12 UNL     1     -22.554   1.793  15.320  1.00  0.00     0.147 C 
HETATM    2  C13 UNL     1     -22.342   3.096  14.605  1.00  0.00     0.061 C 
ENDROOT
BRANCH   1   3
HETATM    3  C11 UNL     1     -23.812   1.844  16.103  1.00  0.00    -0.067 C 
HETATM    4  C10 UNL     1     -24.840   1.886  16.735  1.00  0.00    -0.099 C 
BRANCH   4   5
HETATM    5  C9  UNL     1     -26.091   1.941  17.498  1.00  0.00     0.135 C 
BRANCH   5   6
HETATM    6  C8  UNL     1     -27.245   1.480  16.676  1.00  0.00    -0.016 A 
HETATM    7  C7  UNL     1     -28.321   0.802  17.203  1.00  0.00     0.101 A 
HETATM    8  N1  UNL     1     -29.370   0.378  16.471  1.00  0.00    -0.346 N 
HETATM    9  C19 UNL     1     -29.383   0.622  15.164  1.00  0.00     0.080 A 
HETATM   10  N8  UNL     1     -28.340   1.292  14.591  1.00  0.00    -0.351 N 
HETATM   11  C20 UNL     1     -30.522   0.170  14.322  1.00  0.00     0.089 C 
HETATM   12  C17 UNL     1     -27.286   1.721  15.307  1.00  0.00     0.101 A 
HETATM   13  C18 UNL     1     -28.376   1.546  13.164  1.00  0.00     0.156 C 
BRANCH   8  14
HETATM   14  C6  UNL     1     -30.454  -0.330  17.154  1.00  0.00     0.130 C 
BRANCH  14  15
HETATM   15  C5  UNL     1     -29.918  -0.741  18.512  1.00  0.00     0.020 C 
BRANCH  15  16
HETATM   16  C4  UNL     1     -30.401  -2.109  18.912  1.00  0.00     0.002 C 
BRANCH  16  17
HETATM   17  C3  UNL     1     -29.299  -3.046  19.324  1.00  0.00    -0.000 C 
BRANCH  17  18
HETATM   18  C2  UNL     1     -29.269  -3.165  20.844  1.00  0.00    -0.005 C 
HETATM   19  C1  UNL     1     -29.636  -4.566  21.281  1.00  0.00     0.005 C 
ENDBRANCH  17  18
ENDBRANCH  16  17
ENDBRANCH  15  16
ENDBRANCH  14  15
ENDBRANCH   8  14
ENDBRANCH   5   6
ENDBRANCH   4   5
ENDBRANCH   1   3
BRANCH   1  20
HETATM   20  C14 UNL     1     -22.580   0.690  14.340  1.00  0.00     0.125 C 
HETATM   21  N2  UNL     1     -23.468   0.659  13.417  1.00  0.00    -0.319 N 
ATOM     22  H2  UNL     1     -23.456  -0.119  12.757  1.00  0.00     0.185 HD
BRANCH  21  23
HETATM   23  N3  UNL     1     -24.454   1.643  13.271  1.00  0.00    -0.346 N 
ATOM     24  H32 UNL     1     -24.142   2.605  13.134  1.00  0.00     0.176 HD
ATOM     25  H31 UNL     1     -25.454   1.438  13.295  1.00  0.00     0.176 HD
ENDBRANCH  21  23
ENDBRANCH   1  20
BRANCH   1  26
HETATM   26  N4  UNL     1     -21.477   1.515  16.255  1.00  0.00    -0.246 N 
HETATM   27  C15 UNL     1     -20.424   0.722  16.134  1.00  0.00     0.220 A 
HETATM   28  N5  UNL     1     -19.712   0.799  17.272  1.00  0.00    -0.185 N 
HETATM   29  C16 UNL     1     -20.324   1.648  18.117  1.00  0.00     0.691 A 
ATOM     30  H5  UNL     1     -18.847   0.294  17.464  1.00  0.00     0.185 HD
HETATM   31  N6  UNL     1     -19.898   1.946  19.297  1.00  0.00    -0.233 N 
HETATM   32  N7  UNL     1     -21.412   2.071  17.453  1.00  0.00    -0.127 N 
ATOM     33  H62 UNL     1     -19.072   1.625  19.802  1.00  0.00     0.174 HD
ATOM     34  H61 UNL     1     -20.362   2.590  19.938  1.00  0.00     0.174 HD
ATOM     35  H7  UNL     1     -22.096   2.732  17.822  1.00  0.00     0.206 HD
ENDBRANCH   1  26
TORSDOF 11
ENDMDL
MODEL 2
REMARK VINA RESULT: -7.287890181      0.748      1.074
REMARK  11 active torsions:
REMARK  status: ('A' for Active; 'I' for Inactive)
REMARK    1  A    between atoms: C2_2  and  C3_3 
REMARK    2  A    between atoms: C3_3  and  C4_4 
REMARK    3  A    between atoms: C4_4  and  C5_5 
REMARK    4  A    between atoms: C5_5  and  C6_6 
REMARK    5  A    between atoms: C6_6  and  N1_7 
REMARK    6  A    between atoms: C8_9  and  C9_10 
REMARK    7  A    between atoms: C9_10  and  C10_11 
REMARK    8  A    between atoms: C11_12  and  C12_13 
REMARK    9  A    between atoms: C12_13  and  C14_15 
REMARK   10  A    between atoms: C12_13  and  N4_21 
REMARK   11  A    between atoms: N2_16  and  N3_18 
ROOT
HETATM    1  C12 UNL     1     -22.823   1.800  15.143  1.00  0.00     0.147 C 
HETATM    2  C13 UNL     1     -22.713   3.093  14.389  1.00  0.00     0.061 C 
ENDROOT
BRANCH   1   3
HETATM    3  C11 UNL     1     -24.098   1.763  15.902  1.00  0.00    -0.067 C 
HETATM    4  C10 UNL     1     -25.138   1.734  16.512  1.00  0.00    -0.099 C 
BRANCH   4   5
HETATM    5  C9  UNL     1     -26.405   1.700  17.250  1.00  0.00     0.135 C 
BRANCH   5   6
HETATM    6  C8  UNL     1     -27.548   1.393  16.345  1.00  0.00    -0.016 A 
HETATM    7  C7  UNL     1     -28.648   0.667  16.741  1.00  0.00     0.101 A 
HETATM    8  N1  UNL     1     -29.688   0.381  15.933  1.00  0.00    -0.346 N 
HETATM    9  C19 UNL     1     -29.666   0.819  14.678  1.00  0.00     0.080 A 
HETATM   10  N8  UNL     1     -28.599   1.544  14.234  1.00  0.00    -0.351 N 
HETATM   11  C20 UNL     1     -30.793   0.524  13.754  1.00  0.00     0.089 C 
HETATM   12  C17 UNL     1     -27.553   1.838  15.027  1.00  0.00     0.101 A 
HETATM   13  C18 UNL     1     -28.596   2.011  12.861  1.00  0.00     0.156 C 
BRANCH   8  14
HETATM   14  C6  UNL     1     -30.800  -0.397  16.479  1.00  0.00     0.130 C 
BRANCH  14  15
HETATM   15  C5  UNL     1     -30.780  -0.192  17.983  1.00  0.00     0.020 C 
BRANCH  15  16
HETATM   16  C4  UNL     1     -30.725  -1.500  18.724  1.00  0.00     0.002 C 
BRANCH  16  17
HETATM   17  C3  UNL     1     -29.340  -1.898  19.153  1.00  0.00    -0.000 C 
BRANCH  17  18
HETATM   18  C2  UNL     1     -29.306  -3.393  19.454  1.00  0.00    -0.005 C 
HETATM   19  C1  UNL     1     -29.408  -3.643  20.943  1.00  0.00     0.005 C 
ENDBRANCH  17  18
ENDBRANCH  16  17
ENDBRANCH  15  16
ENDBRANCH  14  15
ENDBRANCH   8  14
ENDBRANCH   5   6
ENDBRANCH   4   5
ENDBRANCH   1   3
BRANCH   1  20
HETATM   20  C14 UNL     1     -22.731   0.668  14.202  1.00  0.00     0.125 C 
HETATM   21  N2  UNL     1     -23.618   0.502  13.292  1.00  0.00    -0.319 N 
ATOM     22  H2  UNL     1     -23.522  -0.291  12.658  1.00  0.00     0.185 HD
BRANCH  21  23
HETATM   23  N3  UNL     1     -24.713   1.360  13.126  1.00  0.00    -0.346 N 
ATOM     24  H32 UNL     1     -24.557   2.226  12.608  1.00  0.00     0.176 HD
ATOM     25  H31 UNL     1     -25.641   1.156  13.496  1.00  0.00     0.176 HD
ENDBRANCH  21  23
ENDBRANCH   1  20
BRANCH   1  26
HETATM   26  N4  UNL     1     -21.746   1.649  16.107  1.00  0.00    -0.246 N 
HETATM   27  C15 UNL     1     -21.506   2.309  17.230  1.00  0.00     0.220 A 
HETATM   28  N5  UNL     1     -20.387   1.804  17.777  1.00  0.00    -0.185 N 
HETATM   29  C16 UNL     1     -19.919   0.817  16.992  1.00  0.00     0.691 A 
ATOM     30  H5  UNL     1     -19.961   2.120  18.649  1.00  0.00     0.185 HD
HETATM   31  N6  UNL     1     -18.858   0.125  17.233  1.00  0.00    -0.233 N 
HETATM   32  N7  UNL     1     -20.787   0.751  15.969  1.00  0.00    -0.127 N 
ATOM     33  H62 UNL     1     -18.199   0.176  18.010  1.00  0.00     0.174 HD
ATOM     34  H61 UNL     1     -18.503  -0.623  16.638  1.00  0.00     0.174 HD
ATOM     35  H7  UNL     1     -20.715   0.095  15.190  1.00  0.00     0.206 HD
ENDBRANCH   1  26
TORSDOF 11
ENDMDL
MODEL 3
REMARK VINA RESULT: -7.018051440      1.459      1.911
REMARK  11 active torsions:
REMARK  status: ('A' for Active; 'I' for Inactive)
REMARK    1  A    between atoms: C2_2  and  C3_3 
REMARK    2  A    between atoms: C3_3  and  C4_4 
REMARK    3  A    between atoms: C4_4  and  C5_5 
REMARK    4  A    between atoms: C5_5  and  C6_6 
REMARK    5  A    between atoms: C6_6  and  N1_7 
REMARK    6  A    between atoms: C8_9  and  C9_10 
REMARK    7  A    between atoms: C9_10  and  C10_11 
REMARK    8  A    between atoms: C11_12  and  C12_13 
REMARK    9  A    between atoms: C12_13  and  C14_15 
REMARK   10  A    between atoms: C12_13  and  N4_21 
REMARK   11  A    between atoms: N2_16  and  N3_18 
ROOT
HETATM    1  C12 UNL     1     -23.273   1.833  15.038  1.00  0.00     0.147 C 
HETATM    2  C13 UNL     1     -23.347   2.949  14.036  1.00  0.00     0.061 C 
ENDROOT
BRANCH   1   3
HETATM    3  C11 UNL     1     -24.398   1.939  15.999  1.00  0.00    -0.067 C 
HETATM    4  C10 UNL     1     -25.311   2.019  16.784  1.00  0.00    -0.099 C 
BRANCH   4   5
HETATM    5  C9  UNL     1     -26.419   2.111  17.739  1.00  0.00     0.135 C 
BRANCH   5   6
HETATM    6  C8  UNL     1     -27.646   1.455  17.206  1.00  0.00    -0.016 A 
HETATM    7  C7  UNL     1     -28.368   0.520  17.912  1.00  0.00     0.101 A 
HETATM    8  N1  UNL     1     -29.478  -0.082  17.442  1.00  0.00    -0.346 N 
HETATM    9  C19 UNL     1     -29.915   0.235  16.227  1.00  0.00     0.080 A 
HETATM   10  N8  UNL     1     -29.237   1.157  15.484  1.00  0.00    -0.351 N 
HETATM   11  C20 UNL     1     -31.135  -0.407  15.671  1.00  0.00     0.089 C 
HETATM   12  C17 UNL     1     -28.127   1.767  15.939  1.00  0.00     0.101 A 
HETATM   13  C18 UNL     1     -29.732   1.488  14.162  1.00  0.00     0.156 C 
BRANCH   8  14
HETATM   14  C6  UNL     1     -30.156  -1.058  18.296  1.00  0.00     0.130 C 
BRANCH  14  15
HETATM   15  C5  UNL     1     -29.071  -1.896  18.946  1.00  0.00     0.020 C 
BRANCH  15  16
HETATM   16  C4  UNL     1     -29.327  -2.099  20.415  1.00  0.00     0.002 C 
BRANCH  16  17
HETATM   17  C3  UNL     1     -29.649  -0.831  21.156  1.00  0.00    -0.000 C 
BRANCH  17  18
HETATM   18  C2  UNL     1     -28.497  -0.474  22.088  1.00  0.00    -0.005 C 
HETATM   19  C1  UNL     1     -27.663   0.648  21.509  1.00  0.00     0.005 C 
ENDBRANCH  17  18
ENDBRANCH  16  17
ENDBRANCH  15  16
ENDBRANCH  14  15
ENDBRANCH   8  14
ENDBRANCH   5   6
ENDBRANCH   4   5
ENDBRANCH   1   3
BRANCH   1  20
HETATM   20  C14 UNL     1     -23.293   0.536  14.336  1.00  0.00     0.125 C 
HETATM   21  N2  UNL     1     -22.723   0.401  13.196  1.00  0.00    -0.319 N 
ATOM     22  H2  UNL     1     -22.757  -0.510  12.739  1.00  0.00     0.185 HD
BRANCH  21  23
HETATM   23  N3  UNL     1     -22.056   1.448  12.547  1.00  0.00    -0.346 N 
ATOM     24  H32 UNL     1     -21.104   1.271  12.226  1.00  0.00     0.176 HD
ATOM     25  H31 UNL     1     -22.479   2.363  12.387  1.00  0.00     0.176 HD
ENDBRANCH  21  23
ENDBRANCH   1  20
BRANCH   1  26
HETATM   26  N4  UNL     1     -22.043   1.887  15.810  1.00  0.00    -0.246 N 
HETATM   27  C15 UNL     1     -21.499   2.890  16.481  1.00  0.00     0.220 A 
HETATM   28  N5  UNL     1     -20.356   2.449  17.034  1.00  0.00    -0.185 N 
HETATM   29  C16 UNL     1     -20.178   1.156  16.708  1.00  0.00     0.691 A 
ATOM     30  H5  UNL     1     -19.724   3.006  17.609  1.00  0.00     0.185 HD
HETATM   31  N6  UNL     1     -19.177   0.434  17.079  1.00  0.00    -0.233 N 
HETATM   32  N7  UNL     1     -21.243   0.844  15.950  1.00  0.00    -0.127 N 
ATOM     33  H62 UNL     1     -18.369   0.672  17.654  1.00  0.00     0.174 HD
ATOM     34  H61 UNL     1     -19.042  -0.546  16.831  1.00  0.00     0.174 HD
ATOM     35  H7  UNL     1     -21.411  -0.074  15.538  1.00  0.00     0.206 HD
ENDBRANCH   1  26
TORSDOF 11
ENDMDL
MODEL 4
REMARK VINA RESULT: -6.755767727      2.154      3.054
REMARK  11 active torsions:
REMARK  status: ('A' for Active; 'I' for Inactive)
REMARK    1  A    between atoms: C2_2  and  C3_3 
REMARK    2  A    between atoms: C3_3  and  C4_4 
REMARK    3  A    between atoms: C4_4  and  C5_5 
REMARK    4  A    between atoms: C5_5  and  C6_6 
REMARK    5  A    between atoms: C6_6  and  N1_7 
REMARK    6  A    between atoms: C8_9  and  C9_10 
REMARK    7  A    between atoms: C9_10  and  C10_11 
REMARK    8  A    between atoms: C11_12  and  C12_13 
REMARK    9  A    between atoms: C12_13  and  C14_15 
REMARK   10  A    between atoms: C12_13  and  N4_21 
REMARK   11  A    between atoms: N2_16  and  N3_18 
ROOT
HETATM    1  C12 UNL     1     -22.545   1.725  15.205  1.00  0.00     0.147 C 
HETATM    2  C13 UNL     1     -22.348   3.042  14.514  1.00  0.00     0.061 C 
ENDROOT
BRANCH   1   3
HETATM    3  C11 UNL     1     -23.818   1.739  15.967  1.00  0.00    -0.067 C 
HETATM    4  C10 UNL     1     -24.850   1.746  16.593  1.00  0.00    -0.099 C 
BRANCH   4   5
HETATM    5  C9  UNL     1     -26.103   1.750  17.355  1.00  0.00     0.135 C 
BRANCH   5   6
HETATM    6  C8  UNL     1     -27.242   2.222  16.518  1.00  0.00    -0.016 A 
HETATM    7  C7  UNL     1     -27.602   1.625  15.331  1.00  0.00     0.101 A 
HETATM    8  N1  UNL     1     -28.629   2.042  14.565  1.00  0.00    -0.346 N 
HETATM    9  C19 UNL     1     -29.346   3.088  14.964  1.00  0.00     0.080 A 
HETATM   10  N8  UNL     1     -29.031   3.717  16.134  1.00  0.00    -0.351 N 
HETATM   11  C20 UNL     1     -30.486   3.580  14.146  1.00  0.00     0.089 C 
HETATM   12  C17 UNL     1     -28.009   3.313  16.910  1.00  0.00     0.101 A 
HETATM   13  C18 UNL     1     -29.826   4.855  16.550  1.00  0.00     0.156 C 
BRANCH   8  14
HETATM   14  C6  UNL     1     -28.911   1.318  13.325  1.00  0.00     0.130 C 
BRANCH  14  15
HETATM   15  C5  UNL     1     -29.453  -0.042  13.728  1.00  0.00     0.020 C 
BRANCH  15  16
HETATM   16  C4  UNL     1     -30.943  -0.126  13.541  1.00  0.00     0.002 C 
BRANCH  16  17
HETATM   17  C3  UNL     1     -31.727   0.076  14.809  1.00  0.00    -0.000 C 
BRANCH  17  18
HETATM   18  C2  UNL     1     -30.911  -0.417  16.000  1.00  0.00    -0.005 C 
HETATM   19  C1  UNL     1     -30.914   0.608  17.114  1.00  0.00     0.005 C 
ENDBRANCH  17  18
ENDBRANCH  16  17
ENDBRANCH  15  16
ENDBRANCH  14  15
ENDBRANCH   8  14
ENDBRANCH   5   6
ENDBRANCH   4   5
ENDBRANCH   1   3
BRANCH   1  20
HETATM   20  C14 UNL     1     -22.533   0.636  14.210  1.00  0.00     0.125 C 
HETATM   21  N2  UNL     1     -23.483   0.521  13.358  1.00  0.00    -0.319 N 
ATOM     22  H2  UNL     1     -23.442  -0.244  12.684  1.00  0.00     0.185 HD
BRANCH  21  23
HETATM   23  N3  UNL     1     -24.577   1.395  13.308  1.00  0.00    -0.346 N 
ATOM     24  H32 UNL     1     -25.438   1.097  13.766  1.00  0.00     0.176 HD
ATOM     25  H31 UNL     1     -24.543   2.302  12.841  1.00  0.00     0.176 HD
ENDBRANCH  21  23
ENDBRANCH   1  20
BRANCH   1  26
HETATM   26  N4  UNL     1     -21.480   1.453  16.155  1.00  0.00    -0.246 N 
HETATM   27  C15 UNL     1     -20.444   0.633  16.067  1.00  0.00     0.220 A 
HETATM   28  N5  UNL     1     -19.736   0.733  17.205  1.00  0.00    -0.185 N 
HETATM   29  C16 UNL     1     -20.332   1.623  18.018  1.00  0.00     0.691 A 
ATOM     30  H5  UNL     1     -18.883   0.215  17.418  1.00  0.00     0.185 HD
HETATM   31  N6  UNL     1     -19.906   1.950  19.190  1.00  0.00    -0.233 N 
HETATM   32  N7  UNL     1     -21.408   2.048  17.334  1.00  0.00    -0.127 N 
ATOM     33  H62 UNL     1     -19.089   1.628  19.710  1.00  0.00     0.174 HD
ATOM     34  H61 UNL     1     -20.358   2.625  19.807  1.00  0.00     0.174 HD
ATOM     35  H7  UNL     1     -22.078   2.736  17.678  1.00  0.00     0.206 HD
ENDBRANCH   1  26
TORSDOF 11
ENDMDL
MODEL 5
REMARK VINA RESULT: -6.734942475      1.657      5.095
REMARK  11 active torsions:
REMARK  status: ('A' for Active; 'I' for Inactive)
REMARK    1  A    between atoms: C2_2  and  C3_3 
REMARK    2  A    between atoms: C3_3  and  C4_4 
REMARK    3  A    between atoms: C4_4  and  C5_5 
REMARK    4  A    between atoms: C5_5  and  C6_6 
REMARK    5  A    between atoms: C6_6  and  N1_7 
REMARK    6  A    between atoms: C8_9  and  C9_10 
REMARK    7  A    between atoms: C9_10  and  C10_11 
REMARK    8  A    between atoms: C11_12  and  C12_13 
REMARK    9  A    between atoms: C12_13  and  C14_15 
REMARK   10  A    between atoms: C12_13  and  N4_21 
REMARK   11  A    between atoms: N2_16  and  N3_18 
ROOT
HETATM    1  C12 UNL     1     -22.513   1.780  15.340  1.00  0.00     0.147 C 
HETATM    2  C13 UNL     1     -22.292   3.073  14.609  1.00  0.00     0.061 C 
ENDROOT
BRANCH   1   3
HETATM    3  C11 UNL     1     -23.767   1.852  16.130  1.00  0.00    -0.067 C 
HETATM    4  C10 UNL     1     -24.788   1.917  16.769  1.00  0.00    -0.099 C 
BRANCH   4   5
HETATM    5  C9  UNL     1     -26.030   2.001  17.544  1.00  0.00     0.135 C 
BRANCH   5   6
HETATM    6  C8  UNL     1     -27.191   1.494  16.760  1.00  0.00    -0.016 A 
HETATM    7  C7  UNL     1     -27.302   1.645  15.396  1.00  0.00     0.101 A 
HETATM    8  N1  UNL     1     -28.347   1.192  14.675  1.00  0.00    -0.346 N 
HETATM    9  C19 UNL     1     -29.335   0.562  15.302  1.00  0.00     0.080 A 
HETATM   10  N8  UNL     1     -29.275   0.386  16.654  1.00  0.00    -0.351 N 
HETATM   11  C20 UNL     1     -30.507   0.049  14.543  1.00  0.00     0.089 C 
HETATM   12  C17 UNL     1     -28.240   0.832  17.388  1.00  0.00     0.101 A 
HETATM   13  C18 UNL     1     -30.365  -0.304  17.317  1.00  0.00     0.156 C 
BRANCH   8  14
HETATM   14  C6  UNL     1     -28.342   1.413  13.228  1.00  0.00     0.130 C 
BRANCH  14  15
HETATM   15  C5  UNL     1     -27.819   2.820  13.004  1.00  0.00     0.020 C 
BRANCH  15  16
HETATM   16  C4  UNL     1     -27.378   3.031  11.581  1.00  0.00     0.002 C 
BRANCH  16  17
HETATM   17  C3  UNL     1     -26.389   4.151  11.411  1.00  0.00    -0.000 C 
BRANCH  17  18
HETATM   18  C2  UNL     1     -25.753   4.068  10.027  1.00  0.00    -0.005 C 
HETATM   19  C1  UNL     1     -26.518   3.110   9.141  1.00  0.00     0.005 C 
ENDBRANCH  17  18
ENDBRANCH  16  17
ENDBRANCH  15  16
ENDBRANCH  14  15
ENDBRANCH   8  14
ENDBRANCH   5   6
ENDBRANCH   4   5
ENDBRANCH   1   3
BRANCH   1  20
HETATM   20  C14 UNL     1     -22.556   0.666  14.374  1.00  0.00     0.125 C 
HETATM   21  N2  UNL     1     -23.444   0.636  13.451  1.00  0.00    -0.319 N 
ATOM     22  H2  UNL     1     -23.444  -0.149  12.800  1.00  0.00     0.185 HD
BRANCH  21  23
HETATM   23  N3  UNL     1     -24.417   1.633  13.294  1.00  0.00    -0.346 N 
ATOM     24  H32 UNL     1     -25.329   1.471  13.721  1.00  0.00     0.176 HD
ATOM     25  H31 UNL     1     -24.249   2.497  12.778  1.00  0.00     0.176 HD
ENDBRANCH  21  23
ENDBRANCH   1  20
BRANCH   1  26
HETATM   26  N4  UNL     1     -21.434   1.502  16.273  1.00  0.00    -0.246 N 
HETATM   27  C15 UNL     1     -20.387   0.699  16.154  1.00  0.00     0.220 A 
HETATM   28  N5  UNL     1     -19.670   0.782  17.288  1.00  0.00    -0.185 N 
HETATM   29  C16 UNL     1     -20.270   1.643  18.128  1.00  0.00     0.691 A 
ATOM     30  H5  UNL     1     -18.807   0.272  17.480  1.00  0.00     0.185 HD
HETATM   31  N6  UNL     1     -19.837   1.948  19.303  1.00  0.00    -0.233 N 
HETATM   32  N7  UNL     1     -21.359   2.069  17.465  1.00  0.00    -0.127 N 
ATOM     33  H62 UNL     1     -19.011   1.626  19.807  1.00  0.00     0.174 HD
ATOM     34  H61 UNL     1     -20.292   2.602  19.941  1.00  0.00     0.174 HD
ATOM     35  H7  UNL     1     -22.035   2.738  17.831  1.00  0.00     0.206 HD
ENDBRANCH   1  26
TORSDOF 11
ENDMDL
