MODEL 1
REMARK VINA RESULT: -7.413963542      0.000      0.000
REMARK  8 active torsions:
REMARK  status: ('A' for Active; 'I' for Inactive)
REMARK    1  A    between atoms: N2_6  and  C5_7 
REMARK    2  A    between atoms: C5_7  and  C6_8 
REMARK    3  A    between atoms: C6_8  and  C7_9 
REMARK    4  A    between atoms: C7_9  and  C8_10 
REMARK    5  A    between atoms: C8_10  and  C9_11 
REMARK    6  A    between atoms: C9_11  and  N3_12 
REMARK    7  A    between atoms: C17_21  and  C18_22 
REMARK    8  A    between atoms: C18_22  and  O2_23 
ROOT
HETATM    1  C1  UNL     1     -27.459   4.108  10.309  1.00  0.00     0.150 C 
HETATM    2  N1  UNL     1     -26.286   3.716  11.049  1.00  0.00    -0.375 N 
HETATM    3  C2  UNL     1     -24.990   4.136  10.580  1.00  0.00     0.150 C 
HETATM    4  C3  UNL     1     -26.410   3.006  12.107  1.00  0.00     0.119 A 
HETATM    5  C4  UNL     1     -27.717   2.554  12.623  1.00  0.00     0.142 A 
HETATM    6  N2  UNL     1     -27.807   1.842  13.688  1.00  0.00    -0.319 N 
HETATM    7  C15 UNL     1     -26.672   1.443  14.434  1.00  0.00     0.274 A 
HETATM    8  O1  UNL     1     -26.765   0.750  15.469  1.00  0.00    -0.266 OA
HETATM    9  C16 UNL     1     -25.307   1.835  14.016  1.00  0.00     0.102 A 
HETATM   10  C17 UNL     1     -24.258   1.471  14.697  1.00  0.00     0.047 C 
HETATM   11  N5  UNL     1     -25.247   2.623  12.831  1.00  0.00    -0.337 N 
ATOM     12  H5  UNL     1     -24.334   2.925  12.488  1.00  0.00     0.167 HD
ENDROOT
BRANCH   6  13
HETATM   13  C5  UNL     1     -29.115   1.417  14.166  1.00  0.00     0.132 C 
BRANCH  13  14
HETATM   14  C6  UNL     1     -29.598   0.184  13.488  1.00  0.00     0.020 C 
BRANCH  14  15
HETATM   15  C7  UNL     1     -30.942  -0.221  14.022  1.00  0.00     0.003 C 
BRANCH  15  16
HETATM   16  C8  UNL     1     -31.247   0.424  15.330  1.00  0.00     0.020 C 
BRANCH  16  17
HETATM   17  C9  UNL     1     -31.640  -0.556  16.415  1.00  0.00     0.128 C 
BRANCH  17  18
HETATM   18  N3  UNL     1     -30.632  -0.757  17.419  1.00  0.00    -0.366 N 
HETATM   19  C10 UNL     1     -29.565   0.090  17.515  1.00  0.00     0.090 A 
HETATM   20  C11 UNL     1     -28.590  -0.078  18.475  1.00  0.00     0.017 A 
HETATM   21  C12 UNL     1     -28.668  -1.118  19.377  1.00  0.00     0.003 A 
HETATM   22  C13 UNL     1     -29.755  -1.976  19.273  1.00  0.00     0.017 A 
HETATM   23  C14 UNL     1     -30.701  -1.762  18.292  1.00  0.00     0.090 A 
ENDBRANCH  17  18
ENDBRANCH  16  17
ENDBRANCH  15  16
ENDBRANCH  14  15
ENDBRANCH  13  14
ENDBRANCH   6  13
BRANCH  10  24
HETATM   24  C18 UNL     1     -22.870   1.800  14.377  1.00  0.00     0.103 C 
HETATM   25  C19 UNL     1     -21.946   0.609  14.571  1.00  0.00     0.071 C 
HETATM   26  C20 UNL     1     -20.828   1.247  15.390  1.00  0.00     0.235 C 
HETATM   27  N4  UNL     1     -21.591   2.109  16.270  1.00  0.00    -0.072 N 
HETATM   28  C21 UNL     1     -22.395   2.869  15.329  1.00  0.00     0.274 C 
ATOM     29  H42 UNL     1     -22.119   1.626  16.997  1.00  0.00     0.277 HD
ATOM     30  H41 UNL     1     -21.034   2.671  16.913  1.00  0.00     0.277 HD
BRANCH  24  31
HETATM   31  O2  UNL     1     -22.674   2.232  13.072  1.00  0.00    -0.384 OA
ATOM     32  H2  UNL     1     -23.259   2.930  12.801  1.00  0.00     0.211 HD
ENDBRANCH  24  31
ENDBRANCH  10  24
TORSDOF 8
ENDMDL
MODEL 2
REMARK VINA RESULT: -7.360981915      1.506      1.786
REMARK  8 active torsions:
REMARK  status: ('A' for Active; 'I' for Inactive)
REMARK    1  A    between atoms: N2_6  and  C5_7 
REMARK    2  A    between atoms: C5_7  and  C6_8 
REMARK    3  A    between atoms: C6_8  and  C7_9 
REMARK    4  A    between atoms: C7_9  and  C8_10 
REMARK    5  A    between atoms: C8_10  and  C9_11 
REMARK    6  A    between atoms: C9_11  and  N3_12 
REMARK    7  A    between atoms: C17_21  and  C18_22 
REMARK    8  A    between atoms: C18_22  and  O2_23 
ROOT
HETATM    1  C1  UNL     1     -27.897   3.080  11.900  1.00  0.00     0.150 C 
HETATM    2  N1  UNL     1     -26.606   2.974  12.532  1.00  0.00    -0.375 N 
HETATM    3  C2  UNL     1     -25.433   3.374  11.797  1.00  0.00     0.150 C 
HETATM    4  C3  UNL     1     -26.519   2.530  13.730  1.00  0.00     0.119 A 
HETATM    5  C4  UNL     1     -27.694   2.110  14.518  1.00  0.00     0.142 A 
HETATM    6  N2  UNL     1     -27.573   1.668  15.718  1.00  0.00    -0.319 N 
HETATM    7  C15 UNL     1     -26.317   1.554  16.362  1.00  0.00     0.274 A 
HETATM    8  O1  UNL     1     -26.204   1.123  17.530  1.00  0.00    -0.266 OA
HETATM    9  C16 UNL     1     -25.067   1.944  15.673  1.00  0.00     0.102 A 
HETATM   10  C17 UNL     1     -23.908   1.841  16.260  1.00  0.00     0.047 C 
HETATM   11  N5  UNL     1     -25.241   2.428  14.345  1.00  0.00    -0.337 N 
ATOM     12  H5  UNL     1     -24.417   2.712  13.814  1.00  0.00     0.167 HD
ENDROOT
BRANCH   6  13
HETATM   13  C5  UNL     1     -28.756   1.265  16.464  1.00  0.00     0.132 C 
BRANCH  13  14
HETATM   14  C6  UNL     1     -29.683   0.430  15.655  1.00  0.00     0.020 C 
BRANCH  14  15
HETATM   15  C7  UNL     1     -31.112   0.775  15.964  1.00  0.00     0.003 C 
BRANCH  15  16
HETATM   16  C8  UNL     1     -31.542   0.258  17.293  1.00  0.00     0.020 C 
BRANCH  16  17
HETATM   17  C9  UNL     1     -31.285  -1.223  17.483  1.00  0.00     0.128 C 
BRANCH  17  18
HETATM   18  N3  UNL     1     -30.531  -1.542  18.664  1.00  0.00    -0.366 N 
HETATM   19  C10 UNL     1     -30.157  -0.560  19.538  1.00  0.00     0.090 A 
HETATM   20  C11 UNL     1     -29.442  -0.844  20.682  1.00  0.00     0.017 A 
HETATM   21  C12 UNL     1     -29.081  -2.142  20.978  1.00  0.00     0.003 A 
HETATM   22  C13 UNL     1     -29.464  -3.133  20.085  1.00  0.00     0.017 A 
HETATM   23  C14 UNL     1     -30.179  -2.794  18.955  1.00  0.00     0.090 A 
ENDBRANCH  17  18
ENDBRANCH  16  17
ENDBRANCH  15  16
ENDBRANCH  14  15
ENDBRANCH  13  14
ENDBRANCH   6  13
BRANCH  10  24
HETATM   24  C18 UNL     1     -22.615   2.196  15.675  1.00  0.00     0.103 C 
HETATM   25  C19 UNL     1     -22.080   1.095  14.774  1.00  0.00     0.071 C 
HETATM   26  C20 UNL     1     -20.651   0.972  15.294  1.00  0.00     0.235 C 
HETATM   27  N4  UNL     1     -20.865   1.119  16.721  1.00  0.00    -0.072 N 
HETATM   28  C21 UNL     1     -21.611   2.362  16.790  1.00  0.00     0.274 C 
ATOM     29  H42 UNL     1     -21.311   0.322  17.175  1.00  0.00     0.277 HD
ATOM     30  H41 UNL     1     -20.019   1.092  17.289  1.00  0.00     0.277 HD
BRANCH  24  31
HETATM   31  O2  UNL     1     -22.637   3.350  14.905  1.00  0.00    -0.384 OA
ATOM     32  H2  UNL     1     -22.177   4.086  15.292  1.00  0.00     0.211 HD
ENDBRANCH  24  31
ENDBRANCH  10  24
TORSDOF 8
ENDMDL
MODEL 3
REMARK VINA RESULT: -6.953068389      2.185      3.020
REMARK  8 active torsions:
REMARK  status: ('A' for Active; 'I' for Inactive)
REMARK    1  A    between atoms: N2_6  and  C5_7 
REMARK    2  A    between atoms: C5_7  and  C6_8 
REMARK    3  A    between atoms: C6_8  and  C7_9 
REMARK    4  A    between atoms: C7_9  and  C8_10 
REMARK    5  A    between atoms: C8_10  and  C9_11 
REMARK    6  A    between atoms: C9_11  and  N3_12 
REMARK    7  A    between atoms: C17_21  and  C18_22 
REMARK    8  A    between atoms: C18_22  and  O2_23 
ROOT
HETATM    1  C1  UNL     1     -28.102   3.161  12.211  1.00  0.00     0.150 C 
HETATM    2  N1  UNL     1     -26.780   3.020  12.765  1.00  0.00    -0.375 N 
HETATM    3  C2  UNL     1     -25.640   3.344  11.946  1.00  0.00     0.150 C 
HETATM    4  C3  UNL     1     -26.636   2.612  13.970  1.00  0.00     0.119 A 
HETATM    5  C4  UNL     1     -27.776   2.268  14.843  1.00  0.00     0.142 A 
HETATM    6  N2  UNL     1     -27.597   1.862  16.048  1.00  0.00    -0.319 N 
HETATM    7  C15 UNL     1     -26.310   1.715  16.618  1.00  0.00     0.274 A 
HETATM    8  O1  UNL     1     -26.142   1.318  17.792  1.00  0.00    -0.266 OA
HETATM    9  C16 UNL     1     -25.090   2.028  15.841  1.00  0.00     0.102 A 
HETATM   10  C17 UNL     1     -23.902   1.894  16.358  1.00  0.00     0.047 C 
HETATM   11  N5  UNL     1     -25.327   2.475  14.509  1.00  0.00    -0.337 N 
ATOM     12  H5  UNL     1     -24.527   2.706  13.920  1.00  0.00     0.167 HD
ENDROOT
BRANCH   6  13
HETATM   13  C5  UNL     1     -28.748   1.534  16.879  1.00  0.00     0.132 C 
BRANCH  13  14
HETATM   14  C6  UNL     1     -29.406   0.266  16.468  1.00  0.00     0.020 C 
BRANCH  14  15
HETATM   15  C7  UNL     1     -29.934  -0.468  17.668  1.00  0.00     0.003 C 
BRANCH  15  16
HETATM   16  C8  UNL     1     -28.855  -0.820  18.633  1.00  0.00     0.020 C 
BRANCH  16  17
HETATM   17  C9  UNL     1     -29.333  -0.929  20.067  1.00  0.00     0.128 C 
BRANCH  17  18
HETATM   18  N3  UNL     1     -28.674  -0.033  20.976  1.00  0.00    -0.366 N 
HETATM   19  C10 UNL     1     -28.357  -0.433  22.243  1.00  0.00     0.090 A 
HETATM   20  C11 UNL     1     -27.716   0.407  23.128  1.00  0.00     0.017 A 
HETATM   21  C12 UNL     1     -27.373   1.689  22.754  1.00  0.00     0.003 A 
HETATM   22  C13 UNL     1     -27.699   2.089  21.465  1.00  0.00     0.017 A 
HETATM   23  C14 UNL     1     -28.341   1.208  20.620  1.00  0.00     0.090 A 
ENDBRANCH  17  18
ENDBRANCH  16  17
ENDBRANCH  15  16
ENDBRANCH  14  15
ENDBRANCH  13  14
ENDBRANCH   6  13
BRANCH  10  24
HETATM   24  C18 UNL     1     -22.635   2.174  15.684  1.00  0.00     0.103 C 
HETATM   25  C19 UNL     1     -22.187   1.010  14.815  1.00  0.00     0.071 C 
HETATM   26  C20 UNL     1     -20.735   0.866  15.260  1.00  0.00     0.235 C 
HETATM   27  N4  UNL     1     -20.861   1.095  16.686  1.00  0.00    -0.072 N 
HETATM   28  C21 UNL     1     -21.564   2.365  16.729  1.00  0.00     0.274 C 
ATOM     29  H42 UNL     1     -21.305   0.339  17.207  1.00  0.00     0.277 HD
ATOM     30  H41 UNL     1     -19.984   1.069  17.207  1.00  0.00     0.277 HD
BRANCH  24  31
HETATM   31  O2  UNL     1     -22.666   3.286  14.854  1.00  0.00    -0.384 OA
ATOM     32  H2  UNL     1     -21.852   3.776  14.828  1.00  0.00     0.211 HD
ENDBRANCH  24  31
ENDBRANCH  10  24
TORSDOF 8
ENDMDL
MODEL 4
REMARK VINA RESULT: -6.893130087      2.448      7.808
REMARK  8 active torsions:
REMARK  status: ('A' for Active; 'I' for Inactive)
REMARK    1  A    between atoms: N2_6  and  C5_7 
REMARK    2  A    between atoms: C5_7  and  C6_8 
REMARK    3  A    between atoms: C6_8  and  C7_9 
REMARK    4  A    between atoms: C7_9  and  C8_10 
REMARK    5  A    between atoms: C8_10  and  C9_11 
REMARK    6  A    between atoms: C9_11  and  N3_12 
REMARK    7  A    between atoms: C17_21  and  C18_22 
REMARK    8  A    between atoms: C18_22  and  O2_23 
ROOT
HETATM    1  C1  UNL     1     -30.805   1.052  13.726  1.00  0.00     0.150 C 
HETATM    2  N1  UNL     1     -30.770   0.462  15.041  1.00  0.00    -0.375 N 
HETATM    3  C2  UNL     1     -31.931  -0.242  15.523  1.00  0.00     0.150 C 
HETATM    4  C3  UNL     1     -29.715   0.570  15.758  1.00  0.00     0.119 A 
HETATM    5  C4  UNL     1     -28.504   1.282  15.304  1.00  0.00     0.142 A 
HETATM    6  N2  UNL     1     -27.461   1.372  16.048  1.00  0.00    -0.319 N 
HETATM    7  C15 UNL     1     -27.400   0.802  17.342  1.00  0.00     0.274 A 
HETATM    8  O1  UNL     1     -26.383   0.893  18.063  1.00  0.00    -0.266 OA
HETATM    9  C16 UNL     1     -28.552   0.064  17.907  1.00  0.00     0.102 A 
HETATM   10  C17 UNL     1     -28.502  -0.462  19.098  1.00  0.00     0.047 C 
HETATM   11  N5  UNL     1     -29.690  -0.015  17.054  1.00  0.00    -0.337 N 
ATOM     12  H5  UNL     1     -30.518  -0.509  17.386  1.00  0.00     0.167 HD
ENDROOT
BRANCH   6  13
HETATM   13  C5  UNL     1     -26.286   2.082  15.563  1.00  0.00     0.132 C 
BRANCH  13  14
HETATM   14  C6  UNL     1     -25.583   1.347  14.478  1.00  0.00     0.020 C 
BRANCH  14  15
HETATM   15  C7  UNL     1     -24.982   2.308  13.492  1.00  0.00     0.003 C 
BRANCH  15  16
HETATM   16  C8  UNL     1     -23.532   2.541  13.744  1.00  0.00     0.020 C 
BRANCH  16  17
HETATM   17  C9  UNL     1     -22.755   1.276  14.043  1.00  0.00     0.128 C 
BRANCH  17  18
HETATM   18  N3  UNL     1     -21.941   1.352  15.225  1.00  0.00    -0.366 N 
HETATM   19  C10 UNL     1     -20.770   0.653  15.310  1.00  0.00     0.090 A 
HETATM   20  C11 UNL     1     -19.969   0.718  16.431  1.00  0.00     0.017 A 
HETATM   21  C12 UNL     1     -20.332   1.500  17.507  1.00  0.00     0.003 A 
HETATM   22  C13 UNL     1     -21.523   2.206  17.412  1.00  0.00     0.017 A 
HETATM   23  C14 UNL     1     -22.288   2.105  16.269  1.00  0.00     0.090 A 
ENDBRANCH  17  18
ENDBRANCH  16  17
ENDBRANCH  15  16
ENDBRANCH  14  15
ENDBRANCH  13  14
ENDBRANCH   6  13
BRANCH  10  24
HETATM   24  C18 UNL     1     -29.576  -1.209  19.752  1.00  0.00     0.103 C 
HETATM   25  C19 UNL     1     -29.126  -1.807  21.075  1.00  0.00     0.071 C 
HETATM   26  C20 UNL     1     -29.619  -3.243  20.919  1.00  0.00     0.235 C 
HETATM   27  N4  UNL     1     -29.313  -3.488  19.523  1.00  0.00    -0.072 N 
HETATM   28  C21 UNL     1     -29.965  -2.368  18.868  1.00  0.00     0.274 C 
ATOM     29  H42 UNL     1     -28.321  -3.594  19.311  1.00  0.00     0.277 HD
ATOM     30  H41 UNL     1     -29.584  -4.408  19.177  1.00  0.00     0.277 HD
BRANCH  24  31
HETATM   31  O2  UNL     1     -30.705  -0.452  20.034  1.00  0.00    -0.384 OA
ATOM     32  H2  UNL     1     -31.072  -0.606  20.897  1.00  0.00     0.211 HD
ENDBRANCH  24  31
ENDBRANCH  10  24
TORSDOF 8
ENDMDL
MODEL 5
REMARK VINA RESULT: -6.890095066      1.779      4.406
REMARK  8 active torsions:
REMARK  status: ('A' for Active; 'I' for Inactive)
REMARK    1  A    between atoms: N2_6  and  C5_7 
REMARK    2  A    between atoms: C5_7  and  C6_8 
REMARK    3  A    between atoms: C6_8  and  C7_9 
REMARK    4  A    between atoms: C7_9  and  C8_10 
REMARK    5  A    between atoms: C8_10  and  C9_11 
REMARK    6  A    between atoms: C9_11  and  N3_12 
REMARK    7  A    between atoms: C17_21  and  C18_22 
REMARK    8  A    between atoms: C18_22  and  O2_23 
ROOT
HETATM    1  C1  UNL     1     -24.233   1.479  15.726  1.00  0.00     0.150 C 
HETATM    2  N1  UNL     1     -24.306   2.082  14.419  1.00  0.00    -0.375 N 
HETATM    3  C2  UNL     1     -23.085   2.459  13.753  1.00  0.00     0.150 C 
HETATM    4  C3  UNL     1     -25.447   2.274  13.871  1.00  0.00     0.119 A 
HETATM    5  C4  UNL     1     -26.721   1.905  14.516  1.00  0.00     0.142 A 
HETATM    6  N2  UNL     1     -27.849   2.111  13.938  1.00  0.00    -0.319 N 
HETATM    7  C15 UNL     1     -27.950   2.701  12.655  1.00  0.00     0.274 A 
HETATM    8  O1  UNL     1     -29.050   2.900  12.098  1.00  0.00    -0.266 OA
HETATM    9  C16 UNL     1     -26.741   3.115  11.909  1.00  0.00     0.102 A 
HETATM   10  C17 UNL     1     -26.826   3.659  10.728  1.00  0.00     0.047 C 
HETATM   11  N5  UNL     1     -25.509   2.871  12.581  1.00  0.00    -0.337 N 
ATOM     12  H5  UNL     1     -24.638   3.135  12.120  1.00  0.00     0.167 HD
ENDROOT
BRANCH   6  13
HETATM   13  C5  UNL     1     -29.086   1.730  14.608  1.00  0.00     0.132 C 
BRANCH  13  14
HETATM   14  C6  UNL     1     -29.444   0.306  14.378  1.00  0.00     0.020 C 
BRANCH  14  15
HETATM   15  C7  UNL     1     -30.655  -0.071  15.183  1.00  0.00     0.003 C 
BRANCH  15  16
HETATM   16  C8  UNL     1     -30.414   0.038  16.649  1.00  0.00     0.020 C 
BRANCH  16  17
HETATM   17  C9  UNL     1     -31.153  -1.001  17.467  1.00  0.00     0.128 C 
BRANCH  17  18
HETATM   18  N3  UNL     1     -30.449  -1.432  18.643  1.00  0.00    -0.366 N 
HETATM   19  C10 UNL     1     -30.018  -0.524  19.569  1.00  0.00     0.090 A 
HETATM   20  C11 UNL     1     -29.349  -0.915  20.709  1.00  0.00     0.017 A 
HETATM   21  C12 UNL     1     -29.095  -2.249  20.949  1.00  0.00     0.003 A 
HETATM   22  C13 UNL     1     -29.537  -3.166  20.004  1.00  0.00     0.017 A 
HETATM   23  C14 UNL     1     -30.201  -2.720  18.880  1.00  0.00     0.090 A 
ENDBRANCH  17  18
ENDBRANCH  16  17
ENDBRANCH  15  16
ENDBRANCH  14  15
ENDBRANCH  13  14
ENDBRANCH   6  13
BRANCH  10  24
HETATM   24  C18 UNL     1     -25.702   4.103   9.905  1.00  0.00     0.103 C 
HETATM   25  C19 UNL     1     -25.746   5.601   9.647  1.00  0.00     0.071 C 
HETATM   26  C20 UNL     1     -25.531   5.635   8.137  1.00  0.00     0.235 C 
HETATM   27  N4  UNL     1     -26.328   4.497   7.721  1.00  0.00    -0.072 N 
HETATM   28  C21 UNL     1     -25.798   3.434   8.556  1.00  0.00     0.274 C 
ATOM     29  H42 UNL     1     -27.337   4.631   7.782  1.00  0.00     0.277 HD
ATOM     30  H41 UNL     1     -26.316   4.305   6.719  1.00  0.00     0.277 HD
BRANCH  24  31
HETATM   31  O2  UNL     1     -24.455   3.842  10.456  1.00  0.00    -0.384 OA
ATOM     32  H2  UNL     1     -24.025   4.605  10.825  1.00  0.00     0.211 HD
ENDBRANCH  24  31
ENDBRANCH  10  24
TORSDOF 8
ENDMDL
