MODEL 1
REMARK VINA RESULT: -6.799294961      0.000      0.000
REMARK  12 active torsions:
REMARK  status: ('A' for Active; 'I' for Inactive)
REMARK    1  A    between atoms: C3_4  and  C4_5 
REMARK    2  A    between atoms: C4_5  and  C5_6 
REMARK    3  A    between atoms: C5_6  and  C6_7 
REMARK    4  A    between atoms: C8_11  and  N3_12 
REMARK    5  A    between atoms: C10_21  and  C11_22 
REMARK    6  A    between atoms: C11_22  and  N6_23 
REMARK    7  A    between atoms: N6_23  and  C13_25 
REMARK    8  A    between atoms: N6_23  and  C15_29 
REMARK    9  A    between atoms: C13_25  and  C14_26 
REMARK   10  A    between atoms: C14_26  and  O2_27 
REMARK   11  A    between atoms: C15_29  and  C16_30 
REMARK   12  A    between atoms: C16_30  and  N7_31 
ROOT
HETATM    1  C1  UNL     1     -29.078   2.266  11.929  1.00  0.00     0.157 C 
HETATM    2  N1  UNL     1     -27.674   2.599  12.216  1.00  0.00    -0.347 N 
HETATM    3  C2  UNL     1     -26.876   1.962  13.070  1.00  0.00     0.130 A 
HETATM    4  C3  UNL     1     -25.630   2.553  13.079  1.00  0.00     0.104 A 
HETATM    5  N5  UNL     1     -25.718   3.553  12.209  1.00  0.00    -0.336 N 
ATOM      6  H5  UNL     1     -24.960   4.196  11.978  1.00  0.00     0.168 HD
HETATM    7  C10 UNL     1     -26.952   3.597  11.675  1.00  0.00     0.110 A 
ENDROOT
BRANCH   4   8
HETATM    8  C4  UNL     1     -24.460   2.208  13.839  1.00  0.00    -0.042 C 
BRANCH   8   9
HETATM    9  C5  UNL     1     -23.477   1.899  14.468  1.00  0.00    -0.053 C 
BRANCH   9  10
HETATM   10  C6  UNL     1     -22.293   1.538  15.198  1.00  0.00     0.102 A 
HETATM   11  C7  UNL     1     -21.616   0.351  15.003  1.00  0.00     0.132 A 
HETATM   12  N2  UNL     1     -20.503   0.034  15.702  1.00  0.00    -0.201 N 
HETATM   13  C8  UNL     1     -20.030   0.889  16.617  1.00  0.00     0.678 A 
ATOM     14  H2  UNL     1     -20.026  -0.853  15.534  1.00  0.00     0.183 HD
HETATM   15  N4  UNL     1     -20.657   2.069  16.850  1.00  0.00    -0.155 N 
HETATM   16  C9  UNL     1     -21.782   2.398  16.148  1.00  0.00     0.279 A 
ATOM     17  H4  UNL     1     -20.287   2.713  17.550  1.00  0.00     0.187 HD
HETATM   18  O1  UNL     1     -22.337   3.500  16.389  1.00  0.00    -0.266 OA
BRANCH  13  19
HETATM   19  N3  UNL     1     -18.973   0.583  17.278  1.00  0.00    -0.234 N 
ATOM     20  H32 UNL     1     -19.016  -0.129  18.007  1.00  0.00     0.174 HD
ATOM     21  H31 UNL     1     -18.096   1.058  17.065  1.00  0.00     0.174 HD
ENDBRANCH  13  19
ENDBRANCH   9  10
ENDBRANCH   8   9
ENDBRANCH   4   8
BRANCH   7  22
HETATM   22  C11 UNL     1     -27.384   4.587  10.671  1.00  0.00     0.313 C 
BRANCH  22  23
HETATM   23  N6  UNL     1     -26.745   4.456   9.392  1.00  0.00    -0.061 N 
HETATM   24  C12 UNL     1     -27.635   5.139   8.433  1.00  0.00     0.273 C 
BRANCH  23  25
HETATM   25  C13 UNL     1     -26.700   3.088   8.994  1.00  0.00     0.263 C 
BRANCH  25  26
HETATM   26  C14 UNL     1     -27.640   2.708   7.888  1.00  0.00     0.192 C 
BRANCH  26  27
HETATM   27  O2  UNL     1     -28.691   1.913   8.316  1.00  0.00    -0.399 OA
ATOM     28  H2  UNL     1     -28.448   1.003   8.431  1.00  0.00     0.209 HD
ENDBRANCH  26  27
ENDBRANCH  25  26
ENDBRANCH  23  25
BRANCH  23  29
HETATM   29  C15 UNL     1     -25.478   5.134   9.298  1.00  0.00     0.265 C 
BRANCH  29  30
HETATM   30  C16 UNL     1     -25.368   5.880   7.987  1.00  0.00     0.264 C 
BRANCH  30  31
HETATM   31  N7  UNL     1     -24.866   7.232   8.244  1.00  0.00    -0.077 N 
HETATM   32  C17 UNL     1     -23.581   7.433   7.596  1.00  0.00     0.271 C 
HETATM   33  C18 UNL     1     -24.685   7.488   9.648  1.00  0.00     0.271 C 
HETATM   34  C19 UNL     1     -25.791   8.171   7.654  1.00  0.00     0.271 C 
ENDBRANCH  30  31
ENDBRANCH  29  30
ENDBRANCH  23  29
ENDBRANCH  22  23
ENDBRANCH   7  22
TORSDOF 12
ENDMDL
MODEL 2
REMARK VINA RESULT: -6.704003019      0.659      1.014
REMARK  12 active torsions:
REMARK  status: ('A' for Active; 'I' for Inactive)
REMARK    1  A    between atoms: C3_4  and  C4_5 
REMARK    2  A    between atoms: C4_5  and  C5_6 
REMARK    3  A    between atoms: C5_6  and  C6_7 
REMARK    4  A    between atoms: C8_11  and  N3_12 
REMARK    5  A    between atoms: C10_21  and  C11_22 
REMARK    6  A    between atoms: C11_22  and  N6_23 
REMARK    7  A    between atoms: N6_23  and  C13_25 
REMARK    8  A    between atoms: N6_23  and  C15_29 
REMARK    9  A    between atoms: C13_25  and  C14_26 
REMARK   10  A    between atoms: C14_26  and  O2_27 
REMARK   11  A    between atoms: C15_29  and  C16_30 
REMARK   12  A    between atoms: C16_30  and  N7_31 
ROOT
HETATM    1  C1  UNL     1     -29.300   1.757  12.401  1.00  0.00     0.157 C 
HETATM    2  N1  UNL     1     -27.931   2.225  12.661  1.00  0.00    -0.347 N 
HETATM    3  C2  UNL     1     -27.028   1.618  13.430  1.00  0.00     0.130 A 
HETATM    4  C3  UNL     1     -25.856   2.345  13.442  1.00  0.00     0.104 A 
HETATM    5  N5  UNL     1     -26.095   3.394  12.661  1.00  0.00    -0.336 N 
ATOM      6  H5  UNL     1     -25.424   4.134  12.456  1.00  0.00     0.168 HD
HETATM    7  C10 UNL     1     -27.349   3.337  12.179  1.00  0.00     0.110 A 
ENDROOT
BRANCH   4   8
HETATM    8  C4  UNL     1     -24.621   2.077  14.126  1.00  0.00    -0.042 C 
BRANCH   8   9
HETATM    9  C5  UNL     1     -23.595   1.850  14.719  1.00  0.00    -0.053 C 
BRANCH   9  10
HETATM   10  C6  UNL     1     -22.372   1.556  15.417  1.00  0.00     0.102 A 
HETATM   11  C7  UNL     1     -21.580   0.465  15.127  1.00  0.00     0.132 A 
HETATM   12  N2  UNL     1     -20.433   0.210  15.798  1.00  0.00    -0.201 N 
HETATM   13  C8  UNL     1     -20.042   1.034  16.777  1.00  0.00     0.678 A 
ATOM     14  H2  UNL     1     -19.869  -0.607  15.559  1.00  0.00     0.183 HD
HETATM   15  N4  UNL     1     -20.784   2.122  17.103  1.00  0.00    -0.155 N 
HETATM   16  C9  UNL     1     -21.943   2.387  16.431  1.00  0.00     0.279 A 
ATOM     17  H4  UNL     1     -20.475   2.743  17.852  1.00  0.00     0.187 HD
HETATM   18  O1  UNL     1     -22.607   3.404  16.760  1.00  0.00    -0.266 OA
BRANCH  13  19
HETATM   19  N3  UNL     1     -18.953   0.788  17.410  1.00  0.00    -0.234 N 
ATOM     20  H32 UNL     1     -18.139   0.436  16.906  1.00  0.00     0.174 HD
ATOM     21  H31 UNL     1     -18.913   0.948  18.416  1.00  0.00     0.174 HD
ENDBRANCH  13  19
ENDBRANCH   9  10
ENDBRANCH   8   9
ENDBRANCH   4   8
BRANCH   7  22
HETATM   22  C11 UNL     1     -27.934   4.347  11.277  1.00  0.00     0.313 C 
BRANCH  22  23
HETATM   23  N6  UNL     1     -27.427   4.311   9.934  1.00  0.00    -0.061 N 
HETATM   24  C12 UNL     1     -28.410   5.052   9.120  1.00  0.00     0.273 C 
BRANCH  23  25
HETATM   25  C13 UNL     1     -27.418   2.975   9.438  1.00  0.00     0.263 C 
BRANCH  25  26
HETATM   26  C14 UNL     1     -28.574   2.610   8.554  1.00  0.00     0.192 C 
BRANCH  26  27
HETATM   27  O2  UNL     1     -28.211   1.800   7.490  1.00  0.00    -0.399 OA
ATOM     28  H2  UNL     1     -28.569   2.091   6.660  1.00  0.00     0.209 HD
ENDBRANCH  26  27
ENDBRANCH  25  26
ENDBRANCH  23  25
BRANCH  23  29
HETATM   29  C15 UNL     1     -26.178   5.007   9.762  1.00  0.00     0.265 C 
BRANCH  29  30
HETATM   30  C16 UNL     1     -25.983   5.405   8.317  1.00  0.00     0.264 C 
BRANCH  30  31
HETATM   31  N7  UNL     1     -25.332   6.715   8.262  1.00  0.00    -0.077 N 
HETATM   32  C17 UNL     1     -26.220   7.705   7.675  1.00  0.00     0.271 C 
HETATM   33  C18 UNL     1     -24.130   6.694   7.471  1.00  0.00     0.271 C 
HETATM   34  C19 UNL     1     -25.062   7.138   9.616  1.00  0.00     0.271 C 
ENDBRANCH  30  31
ENDBRANCH  29  30
ENDBRANCH  23  29
ENDBRANCH  22  23
ENDBRANCH   7  22
TORSDOF 12
ENDMDL
MODEL 3
REMARK VINA RESULT: -6.654712909      1.437      1.884
REMARK  12 active torsions:
REMARK  status: ('A' for Active; 'I' for Inactive)
REMARK    1  A    between atoms: C3_4  and  C4_5 
REMARK    2  A    between atoms: C4_5  and  C5_6 
REMARK    3  A    between atoms: C5_6  and  C6_7 
REMARK    4  A    between atoms: C8_11  and  N3_12 
REMARK    5  A    between atoms: C10_21  and  C11_22 
REMARK    6  A    between atoms: C11_22  and  N6_23 
REMARK    7  A    between atoms: N6_23  and  C13_25 
REMARK    8  A    between atoms: N6_23  and  C15_29 
REMARK    9  A    between atoms: C13_25  and  C14_26 
REMARK   10  A    between atoms: C14_26  and  O2_27 
REMARK   11  A    between atoms: C15_29  and  C16_30 
REMARK   12  A    between atoms: C16_30  and  N7_31 
ROOT
HETATM    1  C1  UNL     1     -29.396   1.765  12.481  1.00  0.00     0.157 C 
HETATM    2  N1  UNL     1     -27.999   2.184  12.663  1.00  0.00    -0.347 N 
HETATM    3  C2  UNL     1     -27.096   1.586  13.439  1.00  0.00     0.130 A 
HETATM    4  C3  UNL     1     -25.893   2.257  13.362  1.00  0.00     0.104 A 
HETATM    5  N5  UNL     1     -26.114   3.263  12.521  1.00  0.00    -0.336 N 
ATOM      6  H5  UNL     1     -25.419   3.956  12.245  1.00  0.00     0.168 HD
HETATM    7  C10 UNL     1     -27.386   3.234  12.088  1.00  0.00     0.110 A 
ENDROOT
BRANCH   4   8
HETATM    8  C4  UNL     1     -24.647   1.977  14.021  1.00  0.00    -0.042 C 
BRANCH   8   9
HETATM    9  C5  UNL     1     -23.609   1.746  14.592  1.00  0.00    -0.053 C 
BRANCH   9  10
HETATM   10  C6  UNL     1     -22.386   1.458  15.291  1.00  0.00     0.102 A 
HETATM   11  C7  UNL     1     -21.599   0.359  15.017  1.00  0.00     0.132 A 
HETATM   12  N2  UNL     1     -20.451   0.110  15.688  1.00  0.00    -0.201 N 
HETATM   13  C8  UNL     1     -20.054   0.949  16.652  1.00  0.00     0.678 A 
ATOM     14  H2  UNL     1     -19.892  -0.713  15.462  1.00  0.00     0.183 HD
HETATM   15  N4  UNL     1     -20.790   2.045  16.962  1.00  0.00    -0.155 N 
HETATM   16  C9  UNL     1     -21.950   2.305  16.289  1.00  0.00     0.279 A 
ATOM     17  H4  UNL     1     -20.476   2.678  17.699  1.00  0.00     0.187 HD
HETATM   18  O1  UNL     1     -22.607   3.330  16.603  1.00  0.00    -0.266 OA
BRANCH  13  19
HETATM   19  N3  UNL     1     -18.963   0.708  17.286  1.00  0.00    -0.234 N 
ATOM     20  H32 UNL     1     -18.807  -0.211  17.700  1.00  0.00     0.174 HD
ATOM     21  H31 UNL     1     -18.261   1.442  17.368  1.00  0.00     0.174 HD
ENDBRANCH  13  19
ENDBRANCH   9  10
ENDBRANCH   8   9
ENDBRANCH   4   8
BRANCH   7  22
HETATM   22  C11 UNL     1     -27.959   4.208  11.141  1.00  0.00     0.313 C 
BRANCH  22  23
HETATM   23  N6  UNL     1     -27.749   3.889   9.757  1.00  0.00    -0.061 N 
HETATM   24  C12 UNL     1     -28.912   3.074   9.356  1.00  0.00     0.273 C 
BRANCH  23  25
HETATM   25  C13 UNL     1     -26.602   3.056   9.604  1.00  0.00     0.263 C 
BRANCH  25  26
HETATM   26  C14 UNL     1     -25.379   3.739   9.066  1.00  0.00     0.192 C 
BRANCH  26  27
HETATM   27  O2  UNL     1     -24.481   4.105  10.055  1.00  0.00    -0.399 OA
ATOM     28  H2  UNL     1     -23.802   3.457  10.202  1.00  0.00     0.209 HD
ENDBRANCH  26  27
ENDBRANCH  25  26
ENDBRANCH  23  25
BRANCH  23  29
HETATM   29  C15 UNL     1     -27.759   5.035   8.884  1.00  0.00     0.265 C 
BRANCH  29  30
HETATM   30  C16 UNL     1     -27.934   6.310   9.679  1.00  0.00     0.264 C 
BRANCH  30  31
HETATM   31  N7  UNL     1     -26.979   7.311   9.200  1.00  0.00    -0.077 N 
HETATM   32  C17 UNL     1     -27.580   8.634   9.200  1.00  0.00     0.271 C 
HETATM   33  C18 UNL     1     -26.534   7.041   7.859  1.00  0.00     0.271 C 
HETATM   34  C19 UNL     1     -25.870   7.349  10.124  1.00  0.00     0.271 C 
ENDBRANCH  30  31
ENDBRANCH  29  30
ENDBRANCH  23  29
ENDBRANCH  22  23
ENDBRANCH   7  22
TORSDOF 12
ENDMDL
MODEL 4
REMARK VINA RESULT: -6.582572793      2.038      3.040
REMARK  12 active torsions:
REMARK  status: ('A' for Active; 'I' for Inactive)
REMARK    1  A    between atoms: C3_4  and  C4_5 
REMARK    2  A    between atoms: C4_5  and  C5_6 
REMARK    3  A    between atoms: C5_6  and  C6_7 
REMARK    4  A    between atoms: C8_11  and  N3_12 
REMARK    5  A    between atoms: C10_21  and  C11_22 
REMARK    6  A    between atoms: C11_22  and  N6_23 
REMARK    7  A    between atoms: N6_23  and  C13_25 
REMARK    8  A    between atoms: N6_23  and  C15_29 
REMARK    9  A    between atoms: C13_25  and  C14_26 
REMARK   10  A    between atoms: C14_26  and  O2_27 
REMARK   11  A    between atoms: C15_29  and  C16_30 
REMARK   12  A    between atoms: C16_30  and  N7_31 
ROOT
HETATM    1  C1  UNL     1     -29.516   2.787  13.076  1.00  0.00     0.157 C 
HETATM    2  N1  UNL     1     -28.054   2.666  12.975  1.00  0.00    -0.347 N 
HETATM    3  C2  UNL     1     -27.222   2.367  13.971  1.00  0.00     0.130 A 
HETATM    4  C3  UNL     1     -25.923   2.342  13.507  1.00  0.00     0.104 A 
HETATM    5  N5  UNL     1     -26.016   2.634  12.213  1.00  0.00    -0.336 N 
ATOM      6  H5  UNL     1     -25.226   2.697  11.570  1.00  0.00     0.168 HD
HETATM    7  C10 UNL     1     -27.301   2.833  11.873  1.00  0.00     0.110 A 
ENDROOT
BRANCH   4   8
HETATM    8  C4  UNL     1     -24.704   2.068  14.216  1.00  0.00    -0.042 C 
BRANCH   8   9
HETATM    9  C5  UNL     1     -23.678   1.820  14.801  1.00  0.00    -0.053 C 
BRANCH   9  10
HETATM   10  C6  UNL     1     -22.445   1.518  15.477  1.00  0.00     0.102 A 
HETATM   11  C7  UNL     1     -21.578   0.528  15.063  1.00  0.00     0.132 A 
HETATM   12  N2  UNL     1     -20.424   0.263  15.716  1.00  0.00    -0.201 N 
HETATM   13  C8  UNL     1     -20.098   0.977  16.800  1.00  0.00     0.678 A 
ATOM     14  H2  UNL     1     -19.804  -0.477  15.384  1.00  0.00     0.183 HD
HETATM   15  N4  UNL     1     -20.914   1.963  17.250  1.00  0.00    -0.155 N 
HETATM   16  C9  UNL     1     -22.082   2.237  16.597  1.00  0.00     0.279 A 
ATOM     17  H4  UNL     1     -20.655   2.500  18.078  1.00  0.00     0.187 HD
HETATM   18  O1  UNL     1     -22.815   3.157  17.042  1.00  0.00    -0.266 OA
BRANCH  13  19
HETATM   19  N3  UNL     1     -19.000   0.722  17.415  1.00  0.00    -0.234 N 
ATOM     20  H32 UNL     1     -18.219   0.304  16.911  1.00  0.00     0.174 HD
ATOM     21  H31 UNL     1     -18.922   0.942  18.408  1.00  0.00     0.174 HD
ENDBRANCH  13  19
ENDBRANCH   9  10
ENDBRANCH   8   9
ENDBRANCH   4   8
BRANCH   7  22
HETATM   22  C11 UNL     1     -27.752   3.172  10.511  1.00  0.00     0.313 C 
BRANCH  22  23
HETATM   23  N6  UNL     1     -27.584   4.553  10.153  1.00  0.00    -0.061 N 
HETATM   24  C12 UNL     1     -28.834   4.942   9.472  1.00  0.00     0.273 C 
BRANCH  23  25
HETATM   25  C13 UNL     1     -26.541   4.696   9.192  1.00  0.00     0.263 C 
BRANCH  25  26
HETATM   26  C14 UNL     1     -25.221   5.151   9.740  1.00  0.00     0.192 C 
BRANCH  26  27
HETATM   27  O2  UNL     1     -24.426   4.107  10.183  1.00  0.00    -0.399 OA
ATOM     28  H2  UNL     1     -23.833   3.780   9.517  1.00  0.00     0.209 HD
ENDBRANCH  26  27
ENDBRANCH  25  26
ENDBRANCH  23  25
BRANCH  23  29
HETATM   29  C15 UNL     1     -27.464   5.439  11.282  1.00  0.00     0.265 C 
BRANCH  29  30
HETATM   30  C16 UNL     1     -28.677   6.337  11.387  1.00  0.00     0.264 C 
BRANCH  30  31
HETATM   31  N7  UNL     1     -28.810   6.806  12.767  1.00  0.00    -0.077 N 
HETATM   32  C17 UNL     1     -28.641   8.248  12.837  1.00  0.00     0.271 C 
HETATM   33  C18 UNL     1     -27.830   6.216  13.640  1.00  0.00     0.271 C 
HETATM   34  C19 UNL     1     -30.152   6.514  13.212  1.00  0.00     0.271 C 
ENDBRANCH  30  31
ENDBRANCH  29  30
ENDBRANCH  23  29
ENDBRANCH  22  23
ENDBRANCH   7  22
TORSDOF 12
ENDMDL
MODEL 5
REMARK VINA RESULT: -6.547664476      1.684      1.942
REMARK  12 active torsions:
REMARK  status: ('A' for Active; 'I' for Inactive)
REMARK    1  A    between atoms: C3_4  and  C4_5 
REMARK    2  A    between atoms: C4_5  and  C5_6 
REMARK    3  A    between atoms: C5_6  and  C6_7 
REMARK    4  A    between atoms: C8_11  and  N3_12 
REMARK    5  A    between atoms: C10_21  and  C11_22 
REMARK    6  A    between atoms: C11_22  and  N6_23 
REMARK    7  A    between atoms: N6_23  and  C13_25 
REMARK    8  A    between atoms: N6_23  and  C15_29 
REMARK    9  A    between atoms: C13_25  and  C14_26 
REMARK   10  A    between atoms: C14_26  and  O2_27 
REMARK   11  A    between atoms: C15_29  and  C16_30 
REMARK   12  A    between atoms: C16_30  and  N7_31 
ROOT
HETATM    1  C1  UNL     1     -29.311   3.441  12.943  1.00  0.00     0.157 C 
HETATM    2  N1  UNL     1     -27.878   3.129  12.832  1.00  0.00    -0.347 N 
HETATM    3  C2  UNL     1     -27.060   2.838  13.841  1.00  0.00     0.130 A 
HETATM    4  C3  UNL     1     -25.788   2.603  13.362  1.00  0.00     0.104 A 
HETATM    5  N5  UNL     1     -25.883   2.763  12.046  1.00  0.00    -0.336 N 
ATOM      6  H5  UNL     1     -25.110   2.658  11.388  1.00  0.00     0.168 HD
HETATM    7  C10 UNL     1     -27.144   3.083  11.707  1.00  0.00     0.110 A 
ENDROOT
BRANCH   4   8
HETATM    8  C4  UNL     1     -24.590   2.258  14.078  1.00  0.00    -0.042 C 
BRANCH   8   9
HETATM    9  C5  UNL     1     -23.574   1.981  14.666  1.00  0.00    -0.053 C 
BRANCH   9  10
HETATM   10  C6  UNL     1     -22.365   1.627  15.359  1.00  0.00     0.102 A 
HETATM   11  C7  UNL     1     -21.630   0.496  15.068  1.00  0.00     0.132 A 
HETATM   12  N2  UNL     1     -20.494   0.184  15.734  1.00  0.00    -0.201 N 
HETATM   13  C8  UNL     1     -20.058   0.990  16.709  1.00  0.00     0.678 A 
ATOM     14  H2  UNL     1     -19.974  -0.661  15.495  1.00  0.00     0.183 HD
HETATM   15  N4  UNL     1     -20.741   2.115  17.036  1.00  0.00    -0.155 N 
HETATM   16  C9  UNL     1     -21.889   2.437  16.368  1.00  0.00     0.279 A 
ATOM     17  H4  UNL     1     -20.398   2.721  17.781  1.00  0.00     0.187 HD
HETATM   18  O1  UNL     1     -22.498   3.487  16.698  1.00  0.00    -0.266 OA
BRANCH  13  19
HETATM   19  N3  UNL     1     -18.979   0.690  17.338  1.00  0.00    -0.234 N 
ATOM     20  H32 UNL     1     -18.387  -0.069  17.000  1.00  0.00     0.174 HD
ATOM     21  H31 UNL     1     -18.725   1.216  18.173  1.00  0.00     0.174 HD
ENDBRANCH  13  19
ENDBRANCH   9  10
ENDBRANCH   8   9
ENDBRANCH   4   8
BRANCH   7  22
HETATM   22  C11 UNL     1     -27.591   3.326  10.323  1.00  0.00     0.313 C 
BRANCH  22  23
HETATM   23  N6  UNL     1     -27.434   4.682   9.876  1.00  0.00    -0.061 N 
HETATM   24  C12 UNL     1     -28.773   5.109   9.426  1.00  0.00     0.273 C 
BRANCH  23  25
HETATM   25  C13 UNL     1     -26.589   4.735   8.730  1.00  0.00     0.263 C 
BRANCH  25  26
HETATM   26  C14 UNL     1     -25.607   3.609   8.602  1.00  0.00     0.192 C 
BRANCH  26  27
HETATM   27  O2  UNL     1     -24.462   3.795   9.360  1.00  0.00    -0.399 OA
ATOM     28  H2  UNL     1     -24.367   3.157  10.056  1.00  0.00     0.209 HD
ENDBRANCH  26  27
ENDBRANCH  25  26
ENDBRANCH  23  25
BRANCH  23  29
HETATM   29  C15 UNL     1     -27.063   5.603  10.919  1.00  0.00     0.265 C 
BRANCH  29  30
HETATM   30  C16 UNL     1     -26.212   6.723  10.366  1.00  0.00     0.264 C 
BRANCH  30  31
HETATM   31  N7  UNL     1     -26.808   8.008  10.733  1.00  0.00    -0.077 N 
HETATM   32  C17 UNL     1     -25.793   8.922  11.227  1.00  0.00     0.271 C 
HETATM   33  C18 UNL     1     -27.803   7.872  11.763  1.00  0.00     0.271 C 
HETATM   34  C19 UNL     1     -27.367   8.599   9.539  1.00  0.00     0.271 C 
ENDBRANCH  30  31
ENDBRANCH  29  30
ENDBRANCH  23  29
ENDBRANCH  22  23
ENDBRANCH   7  22
TORSDOF 12
ENDMDL
