MODEL 1
REMARK VINA RESULT: -6.746780265      0.000      0.000
REMARK  10 active torsions:
REMARK  status: ('A' for Active; 'I' for Inactive)
REMARK    1  A    between atoms: C2_2  and  C3_3 
REMARK    2  A    between atoms: C3_3  and  C4_4 
REMARK    3  A    between atoms: C6_9  and  N2_10 
REMARK    4  A    between atoms: N2_10  and  C7_12 
REMARK    5  A    between atoms: C7_12  and  C10_15 
REMARK    6  A    between atoms: C10_15  and  N3_16 
REMARK    7  A    between atoms: C13_21  and  N5_22 
REMARK    8  A    between atoms: N8_32  and  C16_33 
REMARK    9  A    between atoms: C16_33  and  C17_34 
REMARK   10  A    between atoms: C17_34  and  C18_35 
ROOT
HETATM    1  C4  UNL     1     -28.344   3.618  11.298  1.00  0.00     0.208 C 
HETATM    2  N1  UNL     1     -28.433   2.991  12.576  1.00  0.00    -0.332 N 
ATOM      3  H1  UNL     1     -29.354   3.054  13.010  1.00  0.00     0.165 HD
HETATM    4  C5  UNL     1     -27.469   2.295  13.351  1.00  0.00     0.287 C 
HETATM    5  O1  UNL     1     -27.892   1.613  14.322  1.00  0.00    -0.264 OA
HETATM    6  C6  UNL     1     -26.036   2.261  13.176  1.00  0.00     0.189 C 
HETATM    7  N6  UNL     1     -25.316   2.888  12.280  1.00  0.00    -0.171 N 
ATOM      8  H6  UNL     1     -24.308   2.736  12.316  1.00  0.00     0.186 HD
HETATM    9  C15 UNL     1     -25.794   3.758  11.260  1.00  0.00     0.677 C 
HETATM   10  N7  UNL     1     -24.878   4.107  10.429  1.00  0.00    -0.234 N 
ATOM     11  H71 UNL     1     -25.221   4.731   9.698  1.00  0.00     0.174 HD
ATOM     12  H72 UNL     1     -23.942   3.732  10.585  1.00  0.00     0.174 HD
HETATM   13  N8  UNL     1     -27.120   4.290  11.040  1.00  0.00    -0.197 N 
ENDROOT
BRANCH   6  14
HETATM   14  N2  UNL     1     -25.270   1.464  14.047  1.00  0.00    -0.340 N 
ATOM     15  H2  UNL     1     -25.376   0.455  13.947  1.00  0.00     0.167 HD
BRANCH  14  16
HETATM   16  C7  UNL     1     -24.375   1.903  15.038  1.00  0.00     0.025 C 
HETATM   17  C8  UNL     1     -24.718   1.929  16.312  1.00  0.00    -0.004 C 
HETATM   18  C9  UNL     1     -26.019   1.529  16.863  1.00  0.00     0.038 C 
BRANCH  16  19
HETATM   19  C10 UNL     1     -23.026   2.343  14.581  1.00  0.00     0.184 C 
BRANCH  19  20
HETATM   20  N3  UNL     1     -21.948   1.692  15.292  1.00  0.00    -0.356 N 
HETATM   21  C11 UNL     1     -21.520   0.456  14.979  1.00  0.00     0.108 A 
HETATM   22  C12 UNL     1     -20.488  -0.134  15.683  1.00  0.00     0.107 A 
HETATM   23  N4  UNL     1     -19.886   0.499  16.693  1.00  0.00    -0.350 N 
HETATM   24  C13 UNL     1     -20.324   1.734  16.995  1.00  0.00     0.114 A 
ATOM     25  H4  UNL     1     -19.125   0.064  17.215  1.00  0.00     0.166 HD
HETATM   26  C14 UNL     1     -21.340   2.327  16.308  1.00  0.00     0.138 A 
BRANCH  24  27
HETATM   27  N5  UNL     1     -19.748   2.353  17.970  1.00  0.00    -0.384 N 
ATOM     28  H52 UNL     1     -18.761   2.191  18.171  1.00  0.00     0.157 HD
ATOM     29  H51 UNL     1     -20.313   3.000  18.520  1.00  0.00     0.157 HD
ENDBRANCH  24  27
ENDBRANCH  19  20
ENDBRANCH  16  19
ENDBRANCH  14  16
ENDBRANCH   6  14
BRANCH   1  30
HETATM   30  C3  UNL     1     -28.670   2.566  10.247  1.00  0.00     0.074 C 
BRANCH  30  31
HETATM   31  C2  UNL     1     -30.036   2.581   9.747  1.00  0.00    -0.033 C 
HETATM   32  C1  UNL     1     -30.322   2.991   8.498  1.00  0.00     0.007 C 
ENDBRANCH  30  31
ENDBRANCH   1  30
BRANCH  13  33
HETATM   33  C16 UNL     1     -27.135   5.609  10.536  1.00  0.00     0.143 C 
BRANCH  33  34
HETATM   34  C17 UNL     1     -27.780   5.920   9.253  1.00  0.00     0.020 C 
BRANCH  34  35
HETATM   35  C18 UNL     1     -26.996   5.929   8.003  1.00  0.00    -0.003 C 
HETATM   36  C19 UNL     1     -27.119   4.501   7.412  1.00  0.00     0.005 C 
ENDBRANCH  34  35
ENDBRANCH  33  34
ENDBRANCH  13  33
TORSDOF 10
ENDMDL
MODEL 2
REMARK VINA RESULT: -6.677144733      2.121      3.402
REMARK  10 active torsions:
REMARK  status: ('A' for Active; 'I' for Inactive)
REMARK    1  A    between atoms: C2_2  and  C3_3 
REMARK    2  A    between atoms: C3_3  and  C4_4 
REMARK    3  A    between atoms: C6_9  and  N2_10 
REMARK    4  A    between atoms: N2_10  and  C7_12 
REMARK    5  A    between atoms: C7_12  and  C10_15 
REMARK    6  A    between atoms: C10_15  and  N3_16 
REMARK    7  A    between atoms: C13_21  and  N5_22 
REMARK    8  A    between atoms: N8_32  and  C16_33 
REMARK    9  A    between atoms: C16_33  and  C17_34 
REMARK   10  A    between atoms: C17_34  and  C18_35 
ROOT
HETATM    1  C4  UNL     1     -28.802   2.934  12.164  1.00  0.00     0.208 C 
HETATM    2  N1  UNL     1     -27.393   3.050  11.974  1.00  0.00    -0.332 N 
ATOM      3  H1  UNL     1     -27.123   3.622  11.174  1.00  0.00     0.165 HD
HETATM    4  C5  UNL     1     -26.300   2.510  12.700  1.00  0.00     0.287 C 
HETATM    5  O1  UNL     1     -25.159   2.992  12.470  1.00  0.00    -0.264 OA
HETATM    6  C6  UNL     1     -26.315   1.458  13.689  1.00  0.00     0.189 C 
HETATM    7  N6  UNL     1     -27.339   0.757  14.110  1.00  0.00    -0.171 N 
ATOM      8  H6  UNL     1     -27.149   0.052  14.821  1.00  0.00     0.186 HD
HETATM    9  C15 UNL     1     -28.689   0.879  13.676  1.00  0.00     0.677 C 
HETATM   10  N7  UNL     1     -29.505   0.170  14.372  1.00  0.00    -0.234 N 
ATOM     11  H71 UNL     1     -30.473   0.258  14.061  1.00  0.00     0.174 HD
ATOM     12  H72 UNL     1     -29.108  -0.379  15.134  1.00  0.00     0.174 HD
HETATM   13  N8  UNL     1     -29.251   1.658  12.595  1.00  0.00    -0.197 N 
ENDROOT
BRANCH   6  14
HETATM   14  N2  UNL     1     -25.106   1.107  14.317  1.00  0.00    -0.340 N 
ATOM     15  H2  UNL     1     -24.688   0.222  14.030  1.00  0.00     0.167 HD
BRANCH  14  16
HETATM   16  C7  UNL     1     -24.410   1.838  15.295  1.00  0.00     0.025 C 
HETATM   17  C8  UNL     1     -24.906   2.015  16.505  1.00  0.00    -0.004 C 
HETATM   18  C9  UNL     1     -26.193   1.504  16.993  1.00  0.00     0.038 C 
BRANCH  16  19
HETATM   19  C10 UNL     1     -23.093   2.411  14.898  1.00  0.00     0.184 C 
BRANCH  19  20
HETATM   20  N3  UNL     1     -21.972   1.713  15.488  1.00  0.00    -0.356 N 
HETATM   21  C11 UNL     1     -21.537   0.527  15.028  1.00  0.00     0.108 A 
HETATM   22  C12 UNL     1     -20.463  -0.112  15.620  1.00  0.00     0.107 A 
HETATM   23  N4  UNL     1     -19.827   0.426  16.664  1.00  0.00    -0.350 N 
HETATM   24  C13 UNL     1     -20.272   1.613  17.113  1.00  0.00     0.114 A 
ATOM     25  H4  UNL     1     -19.035  -0.044  17.103  1.00  0.00     0.166 HD
HETATM   26  C14 UNL     1     -21.329   2.252  16.538  1.00  0.00     0.138 A 
BRANCH  24  27
HETATM   27  N5  UNL     1     -19.663   2.138  18.122  1.00  0.00    -0.384 N 
ATOM     28  H52 UNL     1     -19.229   3.058  18.040  1.00  0.00     0.157 HD
ATOM     29  H51 UNL     1     -19.635   1.603  18.990  1.00  0.00     0.157 HD
ENDBRANCH  24  27
ENDBRANCH  19  20
ENDBRANCH  16  19
ENDBRANCH  14  16
ENDBRANCH   6  14
BRANCH   1  30
HETATM   30  C3  UNL     1     -29.233   4.056  13.099  1.00  0.00     0.074 C 
BRANCH  30  31
HETATM   31  C2  UNL     1     -30.304   4.908  12.605  1.00  0.00    -0.033 C 
HETATM   32  C1  UNL     1     -30.446   5.168  11.293  1.00  0.00     0.007 C 
ENDBRANCH  30  31
ENDBRANCH   1  30
BRANCH  13  33
HETATM   33  C16 UNL     1     -30.331   1.032  11.936  1.00  0.00     0.143 C 
BRANCH  33  34
HETATM   34  C17 UNL     1     -30.743   1.459  10.590  1.00  0.00     0.020 C 
BRANCH  34  35
HETATM   35  C18 UNL     1     -32.119   1.929  10.342  1.00  0.00    -0.003 C 
HETATM   36  C19 UNL     1     -32.745   2.170  11.739  1.00  0.00     0.005 C 
ENDBRANCH  34  35
ENDBRANCH  33  34
ENDBRANCH  13  33
TORSDOF 10
ENDMDL
MODEL 3
REMARK VINA RESULT: -6.499784383      3.934      6.957
REMARK  10 active torsions:
REMARK  status: ('A' for Active; 'I' for Inactive)
REMARK    1  A    between atoms: C2_2  and  C3_3 
REMARK    2  A    between atoms: C3_3  and  C4_4 
REMARK    3  A    between atoms: C6_9  and  N2_10 
REMARK    4  A    between atoms: N2_10  and  C7_12 
REMARK    5  A    between atoms: C7_12  and  C10_15 
REMARK    6  A    between atoms: C10_15  and  N3_16 
REMARK    7  A    between atoms: C13_21  and  N5_22 
REMARK    8  A    between atoms: N8_32  and  C16_33 
REMARK    9  A    between atoms: C16_33  and  C17_34 
REMARK   10  A    between atoms: C17_34  and  C18_35 
ROOT
HETATM    1  C4  UNL     1     -27.724   3.726  19.014  1.00  0.00     0.208 C 
HETATM    2  N1  UNL     1     -27.693   2.414  18.454  1.00  0.00    -0.332 N 
ATOM      3  H1  UNL     1     -28.434   1.798  18.787  1.00  0.00     0.165 HD
HETATM    4  C5  UNL     1     -26.815   1.815  17.514  1.00  0.00     0.287 C 
HETATM    5  O1  UNL     1     -27.179   0.726  16.995  1.00  0.00    -0.264 OA
HETATM    6  C6  UNL     1     -25.529   2.290  17.060  1.00  0.00     0.189 C 
HETATM    7  N6  UNL     1     -24.885   3.366  17.439  1.00  0.00    -0.171 N 
ATOM      8  H6  UNL     1     -23.981   3.536  17.000  1.00  0.00     0.186 HD
HETATM    9  C15 UNL     1     -25.317   4.322  18.401  1.00  0.00     0.677 C 
HETATM   10  N7  UNL     1     -24.554   5.355  18.458  1.00  0.00    -0.234 N 
ATOM     11  H71 UNL     1     -24.864   6.040  19.148  1.00  0.00     0.174 HD
ATOM     12  H72 UNL     1     -23.753   5.376  17.827  1.00  0.00     0.174 HD
HETATM   13  N8  UNL     1     -26.452   4.292  19.295  1.00  0.00    -0.197 N 
ENDROOT
BRANCH   6  14
HETATM   14  N2  UNL     1     -24.842   1.547  16.083  1.00  0.00    -0.340 N 
ATOM     15  H2  UNL     1     -24.597   0.589  16.333  1.00  0.00     0.167 HD
BRANCH  14  16
HETATM   16  C7  UNL     1     -24.456   1.976  14.801  1.00  0.00     0.025 C 
HETATM   17  C8  UNL     1     -25.239   1.806  13.753  1.00  0.00    -0.004 C 
HETATM   18  C9  UNL     1     -26.564   1.175  13.761  1.00  0.00     0.038 C 
BRANCH  16  19
HETATM   19  C10 UNL     1     -23.118   2.622  14.682  1.00  0.00     0.184 C 
BRANCH  19  20
HETATM   20  N3  UNL     1     -22.061   1.850  15.297  1.00  0.00    -0.356 N 
HETATM   21  C11 UNL     1     -21.714   0.625  14.863  1.00  0.00     0.108 A 
HETATM   22  C12 UNL     1     -20.700  -0.084  15.477  1.00  0.00     0.107 A 
HETATM   23  N4  UNL     1     -20.034   0.421  16.520  1.00  0.00    -0.350 N 
HETATM   24  C13 UNL     1     -20.390   1.647  16.943  1.00  0.00     0.114 A 
ATOM     25  H4  UNL     1     -19.286  -0.101  16.975  1.00  0.00     0.166 HD
HETATM   26  C14 UNL     1     -21.388   2.356  16.345  1.00  0.00     0.138 A 
BRANCH  24  27
HETATM   27  N5  UNL     1     -19.752   2.142  17.949  1.00  0.00    -0.384 N 
ATOM     28  H52 UNL     1     -20.226   2.760  18.608  1.00  0.00     0.157 HD
ATOM     29  H51 UNL     1     -18.768   1.892  18.056  1.00  0.00     0.157 HD
ENDBRANCH  24  27
ENDBRANCH  19  20
ENDBRANCH  16  19
ENDBRANCH  14  16
ENDBRANCH   6  14
BRANCH   1  30
HETATM   30  C3  UNL     1     -28.565   4.599  18.093  1.00  0.00     0.074 C 
BRANCH  30  31
HETATM   31  C2  UNL     1     -29.526   5.467  18.756  1.00  0.00    -0.033 C 
HETATM   32  C1  UNL     1     -29.189   6.702  19.168  1.00  0.00     0.007 C 
ENDBRANCH  30  31
ENDBRANCH   1  30
BRANCH  13  33
HETATM   33  C16 UNL     1     -26.208   4.879  20.556  1.00  0.00     0.143 C 
BRANCH  33  34
HETATM   34  C17 UNL     1     -26.904   4.400  21.759  1.00  0.00     0.020 C 
BRANCH  34  35
HETATM   35  C18 UNL     1     -27.908   5.247  22.432  1.00  0.00    -0.003 C 
HETATM   36  C19 UNL     1     -29.242   4.460  22.363  1.00  0.00     0.005 C 
ENDBRANCH  34  35
ENDBRANCH  33  34
ENDBRANCH  13  33
TORSDOF 10
ENDMDL
MODEL 4
REMARK VINA RESULT: -6.498247150      3.541      6.667
REMARK  10 active torsions:
REMARK  status: ('A' for Active; 'I' for Inactive)
REMARK    1  A    between atoms: C2_2  and  C3_3 
REMARK    2  A    between atoms: C3_3  and  C4_4 
REMARK    3  A    between atoms: C6_9  and  N2_10 
REMARK    4  A    between atoms: N2_10  and  C7_12 
REMARK    5  A    between atoms: C7_12  and  C10_15 
REMARK    6  A    between atoms: C10_15  and  N3_16 
REMARK    7  A    between atoms: C13_21  and  N5_22 
REMARK    8  A    between atoms: N8_32  and  C16_33 
REMARK    9  A    between atoms: C16_33  and  C17_34 
REMARK   10  A    between atoms: C17_34  and  C18_35 
ROOT
HETATM    1  C4  UNL     1     -30.075   0.605  16.846  1.00  0.00     0.208 C 
HETATM    2  N1  UNL     1     -29.532   0.266  15.572  1.00  0.00    -0.332 N 
ATOM      3  H1  UNL     1     -30.204  -0.148  14.926  1.00  0.00     0.165 HD
HETATM    4  C5  UNL     1     -28.222   0.403  15.043  1.00  0.00     0.287 C 
HETATM    5  O1  UNL     1     -28.085   0.268  13.798  1.00  0.00    -0.264 OA
HETATM    6  C6  UNL     1     -26.995   0.681  15.752  1.00  0.00     0.189 C 
HETATM    7  N6  UNL     1     -26.824   0.839  17.041  1.00  0.00    -0.171 N 
ATOM      8  H6  UNL     1     -25.873   1.032  17.356  1.00  0.00     0.186 HD
HETATM    9  C15 UNL     1     -27.827   0.772  18.047  1.00  0.00     0.677 C 
HETATM   10  N7  UNL     1     -27.399   1.121  19.207  1.00  0.00    -0.234 N 
ATOM     11  H71 UNL     1     -28.118   1.072  19.929  1.00  0.00     0.174 HD
ATOM     12  H72 UNL     1     -26.420   1.402  19.275  1.00  0.00     0.174 HD
HETATM   13  N8  UNL     1     -29.214   0.373  17.951  1.00  0.00    -0.197 N 
ENDROOT
BRANCH   6  14
HETATM   14  N2  UNL     1     -25.806   0.815  15.013  1.00  0.00    -0.340 N 
ATOM     15  H2  UNL     1     -25.553   0.027  14.416  1.00  0.00     0.167 HD
BRANCH  14  16
HETATM   16  C7  UNL     1     -24.927   1.912  15.004  1.00  0.00     0.025 C 
HETATM   17  C8  UNL     1     -24.804   2.687  13.944  1.00  0.00    -0.004 C 
HETATM   18  C9  UNL     1     -25.526   2.533  12.675  1.00  0.00     0.038 C 
BRANCH  16  19
HETATM   19  C10 UNL     1     -24.135   2.150  16.244  1.00  0.00     0.184 C 
BRANCH  19  20
HETATM   20  N3  UNL     1     -22.743   1.783  16.105  1.00  0.00    -0.356 N 
HETATM   21  C11 UNL     1     -22.296   1.015  15.097  1.00  0.00     0.108 A 
HETATM   22  C12 UNL     1     -20.958   0.683  14.999  1.00  0.00     0.107 A 
HETATM   23  N4  UNL     1     -20.069   1.111  15.900  1.00  0.00    -0.350 N 
HETATM   24  C13 UNL     1     -20.531   1.878  16.904  1.00  0.00     0.114 A 
ATOM     25  H4  UNL     1     -19.082   0.866  15.830  1.00  0.00     0.166 HD
HETATM   26  C14 UNL     1     -21.847   2.212  17.010  1.00  0.00     0.138 A 
BRANCH  24  27
HETATM   27  N5  UNL     1     -19.679   2.295  17.778  1.00  0.00    -0.384 N 
ATOM     28  H52 UNL     1     -19.982   2.885  18.553  1.00  0.00     0.157 HD
ATOM     29  H51 UNL     1     -18.705   2.014  17.663  1.00  0.00     0.157 HD
ENDBRANCH  24  27
ENDBRANCH  19  20
ENDBRANCH  16  19
ENDBRANCH  14  16
ENDBRANCH   6  14
BRANCH   1  30
HETATM   30  C3  UNL     1     -30.560   2.046  16.771  1.00  0.00     0.074 C 
BRANCH  30  31
HETATM   31  C2  UNL     1     -31.414   2.362  15.636  1.00  0.00    -0.033 C 
HETATM   32  C1  UNL     1     -32.755   2.346  15.740  1.00  0.00     0.007 C 
ENDBRANCH  30  31
ENDBRANCH   1  30
BRANCH  13  33
HETATM   33  C16 UNL     1     -29.694  -0.320  19.084  1.00  0.00     0.143 C 
BRANCH  33  34
HETATM   34  C17 UNL     1     -29.022  -1.536  19.565  1.00  0.00     0.020 C 
BRANCH  34  35
HETATM   35  C18 UNL     1     -29.624  -2.864  19.339  1.00  0.00    -0.003 C 
HETATM   36  C19 UNL     1     -29.460  -3.638  20.672  1.00  0.00     0.005 C 
ENDBRANCH  34  35
ENDBRANCH  33  34
ENDBRANCH  13  33
TORSDOF 10
ENDMDL
MODEL 5
REMARK VINA RESULT: -6.493612597      0.498      1.236
REMARK  10 active torsions:
REMARK  status: ('A' for Active; 'I' for Inactive)
REMARK    1  A    between atoms: C2_2  and  C3_3 
REMARK    2  A    between atoms: C3_3  and  C4_4 
REMARK    3  A    between atoms: C6_9  and  N2_10 
REMARK    4  A    between atoms: N2_10  and  C7_12 
REMARK    5  A    between atoms: C7_12  and  C10_15 
REMARK    6  A    between atoms: C10_15  and  N3_16 
REMARK    7  A    between atoms: C13_21  and  N5_22 
REMARK    8  A    between atoms: N8_32  and  C16_33 
REMARK    9  A    between atoms: C16_33  and  C17_34 
REMARK   10  A    between atoms: C17_34  and  C18_35 
ROOT
HETATM    1  C4  UNL     1     -28.562   3.510  11.387  1.00  0.00     0.208 C 
HETATM    2  N1  UNL     1     -28.634   2.875  12.662  1.00  0.00    -0.332 N 
ATOM      3  H1  UNL     1     -29.554   2.918  13.101  1.00  0.00     0.165 HD
HETATM    4  C5  UNL     1     -27.654   2.193  13.428  1.00  0.00     0.287 C 
HETATM    5  O1  UNL     1     -28.059   1.498  14.398  1.00  0.00    -0.264 OA
HETATM    6  C6  UNL     1     -26.221   2.186  13.247  1.00  0.00     0.189 C 
HETATM    7  N6  UNL     1     -25.517   2.830  12.351  1.00  0.00    -0.171 N 
ATOM      8  H6  UNL     1     -24.506   2.698  12.382  1.00  0.00     0.186 HD
HETATM    9  C15 UNL     1     -26.015   3.697  11.338  1.00  0.00     0.677 C 
HETATM   10  N7  UNL     1     -25.110   4.068  10.505  1.00  0.00    -0.234 N 
ATOM     11  H71 UNL     1     -25.467   4.689   9.779  1.00  0.00     0.174 HD
ATOM     12  H72 UNL     1     -24.167   3.709  10.655  1.00  0.00     0.174 HD
HETATM   13  N8  UNL     1     -27.352   4.206  11.127  1.00  0.00    -0.197 N 
ENDROOT
BRANCH   6  14
HETATM   14  N2  UNL     1     -25.437   1.399  14.110  1.00  0.00    -0.340 N 
ATOM     15  H2  UNL     1     -25.583   0.391  14.059  1.00  0.00     0.167 HD
BRANCH  14  16
HETATM   16  C7  UNL     1     -24.476   1.845  15.033  1.00  0.00     0.025 C 
HETATM   17  C8  UNL     1     -24.749   1.938  16.321  1.00  0.00    -0.004 C 
HETATM   18  C9  UNL     1     -26.031   1.609  16.956  1.00  0.00     0.038 C 
BRANCH  16  19
HETATM   19  C10 UNL     1     -23.139   2.216  14.488  1.00  0.00     0.184 C 
BRANCH  19  20
HETATM   20  N3  UNL     1     -22.043   1.684  15.267  1.00  0.00    -0.356 N 
HETATM   21  C11 UNL     1     -21.435   2.390  16.235  1.00  0.00     0.108 A 
HETATM   22  C12 UNL     1     -20.388   1.848  16.957  1.00  0.00     0.107 A 
HETATM   23  N4  UNL     1     -19.948   0.610  16.716  1.00  0.00    -0.350 N 
HETATM   24  C13 UNL     1     -20.566  -0.086  15.745  1.00  0.00     0.114 A 
ATOM     25  H4  UNL     1     -19.176   0.208  17.247  1.00  0.00     0.166 HD
HETATM   26  C14 UNL     1     -21.599   0.438  15.027  1.00  0.00     0.138 A 
BRANCH  24  27
HETATM   27  N5  UNL     1     -20.147  -1.282  15.506  1.00  0.00    -0.384 N 
ATOM     28  H52 UNL     1     -20.095  -1.970  16.258  1.00  0.00     0.157 HD
ATOM     29  H51 UNL     1     -19.875  -1.507  14.549  1.00  0.00     0.157 HD
ENDBRANCH  24  27
ENDBRANCH  19  20
ENDBRANCH  16  19
ENDBRANCH  14  16
ENDBRANCH   6  14
BRANCH   1  30
HETATM   30  C3  UNL     1     -28.874   2.458  10.332  1.00  0.00     0.074 C 
BRANCH  30  31
HETATM   31  C2  UNL     1     -30.270   2.363   9.934  1.00  0.00    -0.033 C 
HETATM   32  C1  UNL     1     -30.841   3.292   9.146  1.00  0.00     0.007 C 
ENDBRANCH  30  31
ENDBRANCH   1  30
BRANCH  13  33
HETATM   33  C16 UNL     1     -27.394   5.527  10.631  1.00  0.00     0.143 C 
BRANCH  33  34
HETATM   34  C17 UNL     1     -28.153   5.853   9.415  1.00  0.00     0.020 C 
BRANCH  34  35
HETATM   35  C18 UNL     1     -27.475   5.935   8.107  1.00  0.00    -0.003 C 
HETATM   36  C19 UNL     1     -27.467   4.492   7.541  1.00  0.00     0.005 C 
ENDBRANCH  34  35
ENDBRANCH  33  34
ENDBRANCH  13  33
TORSDOF 10
ENDMDL
