MODEL 1
REMARK VINA RESULT: -6.045959140      0.000      0.000
REMARK  12 active torsions:
REMARK  status: ('A' for Active; 'I' for Inactive)
REMARK    1  A    between atoms: N1_2  and  C4_5 
REMARK    2  A    between atoms: C4_5  and  C5_6 
REMARK    3  A    between atoms: C5_6  and  N2_7 
REMARK    4  A    between atoms: N3_11  and  C10_13 
REMARK    5  A    between atoms: C10_13  and  C11_14 
REMARK    6  A    between atoms: C11_14  and  N4_15 
REMARK    7  A    between atoms: N4_15  and  C12_17 
REMARK    8  A    between atoms: C12_17  and  C13_18 
REMARK    9  A    between atoms: C14_19  and  C15_20 
REMARK   10  A    between atoms: C15_20  and  N5_21 
REMARK   11  A    between atoms: N5_21  and  C16_23 
REMARK   12  A    between atoms: C21_30  and  O1_31 
ROOT
HETATM    1  C10 UNL     1     -28.162   3.796  16.807  1.00  0.00     0.261 C 
ENDROOT
BRANCH   1   2
HETATM    2  N3  UNL     1     -27.435   3.076  17.798  1.00  0.00    -0.015 N 
HETATM    3  C8  UNL     1     -28.209   3.125  19.055  1.00  0.00     0.270 C 
HETATM    4  C7  UNL     1     -29.269   2.072  18.722  1.00  0.00     0.270 C 
HETATM    5  N2  UNL     1     -28.450   1.008  18.177  1.00  0.00    -0.015 N 
HETATM    6  C6  UNL     1     -29.266   0.317  17.202  1.00  0.00     0.278 C 
HETATM    7  C21 UNL     1     -27.374   1.646  17.491  1.00  0.00     0.530 C 
HETATM    8  C9  UNL     1     -26.122   3.600  17.995  1.00  0.00     0.278 C 
BRANCH   5   9
HETATM    9  C5  UNL     1     -28.051   0.174  19.275  1.00  0.00     0.270 C 
BRANCH   9  10
HETATM   10  C4  UNL     1     -28.681  -1.194  19.245  1.00  0.00     0.264 C 
BRANCH  10  11
HETATM   11  N1  UNL     1     -29.375  -1.494  20.477  1.00  0.00    -0.077 N 
HETATM   12  C1  UNL     1     -30.785  -1.193  20.311  1.00  0.00     0.271 C 
HETATM   13  C2  UNL     1     -28.862  -0.738  21.605  1.00  0.00     0.271 C 
HETATM   14  C3  UNL     1     -29.272  -2.910  20.769  1.00  0.00     0.271 C 
ENDBRANCH  10  11
ENDBRANCH   9  10
ENDBRANCH   5   9
BRANCH   7  15
HETATM   15  O1  UNL     1     -26.166   1.121  17.907  1.00  0.00    -0.348 OA
ATOM     16  H1  UNL     1     -25.513   1.808  17.964  1.00  0.00     0.213 HD
ENDBRANCH   7  15
ENDBRANCH   1   2
BRANCH   1  17
HETATM   17  C11 UNL     1     -28.259   3.211  15.445  1.00  0.00     0.142 C 
BRANCH  17  18
HETATM   18  N4  UNL     1     -27.139   3.355  14.587  1.00  0.00    -0.410 N 
ATOM     19  H4  UNL     1     -26.624   4.232  14.521  1.00  0.00     0.154 HD
BRANCH  18  20
HETATM   20  C12 UNL     1     -26.771   2.208  13.821  1.00  0.00     0.208 C 
BRANCH  20  21
HETATM   21  C13 UNL     1     -25.293   2.154  13.786  1.00  0.00    -0.086 C 
HETATM   22  C14 UNL     1     -24.091   2.110  13.779  1.00  0.00    -0.085 C 
BRANCH  22  23
HETATM   23  C15 UNL     1     -22.612   2.042  13.794  1.00  0.00     0.215 C 
BRANCH  23  24
HETATM   24  N5  UNL     1     -22.164   0.849  14.477  1.00  0.00    -0.366 N 
ATOM     25  H5  UNL     1     -22.443  -0.067  14.128  1.00  0.00     0.162 HD
BRANCH  24  26
HETATM   26  C16 UNL     1     -21.425   0.930  15.507  1.00  0.00     0.101 A 
HETATM   27  C17 UNL     1     -21.570   1.935  16.464  1.00  0.00     0.048 A 
HETATM   28  C18 UNL     1     -20.760   2.002  17.572  1.00  0.00     0.005 A 
HETATM   29  C19 UNL     1     -19.772   1.059  17.761  1.00  0.00     0.017 A 
HETATM   30  C20 UNL     1     -19.659   0.077  16.792  1.00  0.00     0.089 A 
HETATM   31  N6  UNL     1     -20.455   0.023  15.715  1.00  0.00    -0.353 N 
ATOM     32  H6  UNL     1     -20.321  -0.726  15.035  1.00  0.00     0.166 HD
ENDBRANCH  24  26
ENDBRANCH  23  24
ENDBRANCH  22  23
ENDBRANCH  20  21
ENDBRANCH  18  20
ENDBRANCH  17  18
ENDBRANCH   1  17
TORSDOF 12
ENDMDL
MODEL 2
REMARK VINA RESULT: -6.017601935      1.902      2.858
REMARK  12 active torsions:
REMARK  status: ('A' for Active; 'I' for Inactive)
REMARK    1  A    between atoms: N1_2  and  C4_5 
REMARK    2  A    between atoms: C4_5  and  C5_6 
REMARK    3  A    between atoms: C5_6  and  N2_7 
REMARK    4  A    between atoms: N3_11  and  C10_13 
REMARK    5  A    between atoms: C10_13  and  C11_14 
REMARK    6  A    between atoms: C11_14  and  N4_15 
REMARK    7  A    between atoms: N4_15  and  C12_17 
REMARK    8  A    between atoms: C12_17  and  C13_18 
REMARK    9  A    between atoms: C14_19  and  C15_20 
REMARK   10  A    between atoms: C15_20  and  N5_21 
REMARK   11  A    between atoms: N5_21  and  C16_23 
REMARK   12  A    between atoms: C21_30  and  O1_31 
ROOT
HETATM    1  C10 UNL     1     -29.779   1.464  17.075  1.00  0.00     0.261 C 
ENDROOT
BRANCH   1   2
HETATM    2  N3  UNL     1     -28.711   1.747  17.974  1.00  0.00    -0.015 N 
HETATM    3  C8  UNL     1     -29.289   2.347  19.194  1.00  0.00     0.270 C 
HETATM    4  C7  UNL     1     -29.826   1.074  19.852  1.00  0.00     0.270 C 
HETATM    5  N2  UNL     1     -28.696   0.179  19.704  1.00  0.00    -0.015 N 
HETATM    6  C6  UNL     1     -29.239  -1.157  19.588  1.00  0.00     0.278 C 
HETATM    7  C21 UNL     1     -28.078   0.522  18.464  1.00  0.00     0.530 C 
HETATM    8  C9  UNL     1     -27.735   2.617  17.400  1.00  0.00     0.278 C 
BRANCH   5   9
HETATM    9  C5  UNL     1     -27.861   0.354  20.858  1.00  0.00     0.270 C 
BRANCH   9  10
HETATM   10  C4  UNL     1     -28.564   0.046  22.154  1.00  0.00     0.264 C 
BRANCH  10  11
HETATM   11  N1  UNL     1     -28.040   0.827  23.251  1.00  0.00    -0.077 N 
HETATM   12  C1  UNL     1     -27.884   2.205  22.819  1.00  0.00     0.271 C 
HETATM   13  C2  UNL     1     -26.759   0.335  23.724  1.00  0.00     0.271 C 
HETATM   14  C3  UNL     1     -28.983   0.830  24.352  1.00  0.00     0.271 C 
ENDBRANCH  10  11
ENDBRANCH   9  10
ENDBRANCH   5   9
BRANCH   7  15
HETATM   15  O1  UNL     1     -26.724   0.725  18.647  1.00  0.00    -0.348 OA
ATOM     16  H1  UNL     1     -26.252   0.528  17.846  1.00  0.00     0.213 HD
ENDBRANCH   7  15
ENDBRANCH   1   2
BRANCH   1  17
HETATM   17  C11 UNL     1     -29.576   0.402  16.057  1.00  0.00     0.142 C 
BRANCH  17  18
HETATM   18  N4  UNL     1     -29.701   0.767  14.693  1.00  0.00    -0.410 N 
ATOM     19  H4  UNL     1     -30.364   1.480  14.388  1.00  0.00     0.154 HD
BRANCH  18  20
HETATM   20  C12 UNL     1     -28.853   0.086  13.769  1.00  0.00     0.208 C 
BRANCH  20  21
HETATM   21  C13 UNL     1     -27.567   0.816  13.725  1.00  0.00    -0.086 C 
HETATM   22  C14 UNL     1     -26.520   1.406  13.710  1.00  0.00    -0.085 C 
BRANCH  22  23
HETATM   23  C15 UNL     1     -25.223   2.120  13.714  1.00  0.00     0.215 C 
BRANCH  23  24
HETATM   24  N5  UNL     1     -24.128   1.185  13.854  1.00  0.00    -0.366 N 
ATOM     25  H5  UNL     1     -24.141   0.311  13.329  1.00  0.00     0.162 HD
BRANCH  24  26
HETATM   26  C16 UNL     1     -23.151   1.440  14.623  1.00  0.00     0.101 A 
HETATM   27  C17 UNL     1     -22.018   0.630  14.700  1.00  0.00     0.048 A 
HETATM   28  C18 UNL     1     -20.971   0.926  15.540  1.00  0.00     0.005 A 
HETATM   29  C19 UNL     1     -21.024   2.051  16.336  1.00  0.00     0.017 A 
HETATM   30  C20 UNL     1     -22.163   2.831  16.232  1.00  0.00     0.089 A 
HETATM   31  N6  UNL     1     -23.177   2.531  15.409  1.00  0.00    -0.353 N 
ATOM     32  H6  UNL     1     -23.991   3.146  15.379  1.00  0.00     0.166 HD
ENDBRANCH  24  26
ENDBRANCH  23  24
ENDBRANCH  22  23
ENDBRANCH  20  21
ENDBRANCH  18  20
ENDBRANCH  17  18
ENDBRANCH   1  17
TORSDOF 12
ENDMDL
MODEL 3
REMARK VINA RESULT: -5.982084929      3.114      6.902
REMARK  12 active torsions:
REMARK  status: ('A' for Active; 'I' for Inactive)
REMARK    1  A    between atoms: N1_2  and  C4_5 
REMARK    2  A    between atoms: C4_5  and  C5_6 
REMARK    3  A    between atoms: C5_6  and  N2_7 
REMARK    4  A    between atoms: N3_11  and  C10_13 
REMARK    5  A    between atoms: C10_13  and  C11_14 
REMARK    6  A    between atoms: C11_14  and  N4_15 
REMARK    7  A    between atoms: N4_15  and  C12_17 
REMARK    8  A    between atoms: C12_17  and  C13_18 
REMARK    9  A    between atoms: C14_19  and  C15_20 
REMARK   10  A    between atoms: C15_20  and  N5_21 
REMARK   11  A    between atoms: N5_21  and  C16_23 
REMARK   12  A    between atoms: C21_30  and  O1_31 
ROOT
HETATM    1  C10 UNL     1     -29.071   2.060  14.808  1.00  0.00     0.261 C 
ENDROOT
BRANCH   1   2
HETATM    2  N3  UNL     1     -28.423   1.589  13.630  1.00  0.00    -0.015 N 
HETATM    3  C8  UNL     1     -29.397   1.646  12.521  1.00  0.00     0.270 C 
HETATM    4  C7  UNL     1     -29.347   3.149  12.239  1.00  0.00     0.270 C 
HETATM    5  N2  UNL     1     -27.918   3.389  12.231  1.00  0.00    -0.015 N 
HETATM    6  C6  UNL     1     -27.725   4.745  12.697  1.00  0.00     0.278 C 
HETATM    7  C21 UNL     1     -27.361   2.499  13.197  1.00  0.00     0.530 C 
HETATM    8  C9  UNL     1     -27.912   0.265  13.784  1.00  0.00     0.278 C 
BRANCH   5   9
HETATM    9  C5  UNL     1     -27.459   3.181  10.888  1.00  0.00     0.270 C 
BRANCH   9  10
HETATM   10  C4  UNL     1     -27.328   4.456  10.097  1.00  0.00     0.264 C 
BRANCH  10  11
HETATM   11  N1  UNL     1     -26.559   4.265   8.888  1.00  0.00    -0.077 N 
HETATM   12  C1  UNL     1     -27.212   4.964   7.796  1.00  0.00     0.271 C 
HETATM   13  C2  UNL     1     -26.419   2.865   8.533  1.00  0.00     0.271 C 
HETATM   14  C3  UNL     1     -25.242   4.850   9.042  1.00  0.00     0.271 C 
ENDBRANCH  10  11
ENDBRANCH   9  10
ENDBRANCH   5   9
BRANCH   7  15
HETATM   15  O1  UNL     1     -26.318   1.784  12.639  1.00  0.00    -0.348 OA
ATOM     16  H1  UNL     1     -25.842   2.327  12.023  1.00  0.00     0.213 HD
ENDBRANCH   7  15
ENDBRANCH   1   2
BRANCH   1  17
HETATM   17  C11 UNL     1     -28.731   1.413  16.101  1.00  0.00     0.142 C 
BRANCH  17  18
HETATM   18  N4  UNL     1     -27.923   2.143  17.009  1.00  0.00    -0.410 N 
ATOM     19  H4  UNL     1     -28.155   3.097  17.284  1.00  0.00     0.154 HD
BRANCH  18  20
HETATM   20  C12 UNL     1     -26.769   1.474  17.517  1.00  0.00     0.208 C 
BRANCH  20  21
HETATM   21  C13 UNL     1     -25.667   1.696  16.555  1.00  0.00    -0.086 C 
HETATM   22  C14 UNL     1     -24.775   1.898  15.775  1.00  0.00    -0.085 C 
BRANCH  22  23
HETATM   23  C15 UNL     1     -23.671   2.170  14.826  1.00  0.00     0.215 C 
BRANCH  23  24
HETATM   24  N5  UNL     1     -22.572   2.826  15.498  1.00  0.00    -0.366 N 
ATOM     25  H5  UNL     1     -22.533   3.845  15.526  1.00  0.00     0.162 HD
BRANCH  24  26
HETATM   26  C16 UNL     1     -21.653   2.148  16.055  1.00  0.00     0.101 A 
HETATM   27  C17 UNL     1     -21.013   1.081  15.424  1.00  0.00     0.048 A 
HETATM   28  C18 UNL     1     -20.021   0.362  16.045  1.00  0.00     0.005 A 
HETATM   29  C19 UNL     1     -19.632   0.689  17.327  1.00  0.00     0.017 A 
HETATM   30  C20 UNL     1     -20.289   1.755  17.920  1.00  0.00     0.089 A 
HETATM   31  N6  UNL     1     -21.256   2.448  17.304  1.00  0.00    -0.353 N 
ATOM     32  H6  UNL     1     -21.703   3.222  17.795  1.00  0.00     0.166 HD
ENDBRANCH  24  26
ENDBRANCH  23  24
ENDBRANCH  22  23
ENDBRANCH  20  21
ENDBRANCH  18  20
ENDBRANCH  17  18
ENDBRANCH   1  17
TORSDOF 12
ENDMDL
MODEL 4
REMARK VINA RESULT: -5.798391410      2.987      4.829
REMARK  12 active torsions:
REMARK  status: ('A' for Active; 'I' for Inactive)
REMARK    1  A    between atoms: N1_2  and  C4_5 
REMARK    2  A    between atoms: C4_5  and  C5_6 
REMARK    3  A    between atoms: C5_6  and  N2_7 
REMARK    4  A    between atoms: N3_11  and  C10_13 
REMARK    5  A    between atoms: C10_13  and  C11_14 
REMARK    6  A    between atoms: C11_14  and  N4_15 
REMARK    7  A    between atoms: N4_15  and  C12_17 
REMARK    8  A    between atoms: C12_17  and  C13_18 
REMARK    9  A    between atoms: C14_19  and  C15_20 
REMARK   10  A    between atoms: C15_20  and  N5_21 
REMARK   11  A    between atoms: N5_21  and  C16_23 
REMARK   12  A    between atoms: C21_30  and  O1_31 
ROOT
HETATM    1  C10 UNL     1     -29.605   0.724  19.525  1.00  0.00     0.261 C 
ENDROOT
BRANCH   1   2
HETATM    2  N3  UNL     1     -30.790   0.134  18.999  1.00  0.00    -0.015 N 
HETATM    3  C8  UNL     1     -31.678   1.223  18.545  1.00  0.00     0.270 C 
HETATM    4  C7  UNL     1     -30.976   1.567  17.229  1.00  0.00     0.270 C 
HETATM    5  N2  UNL     1     -30.763   0.248  16.667  1.00  0.00    -0.015 N 
HETATM    6  C6  UNL     1     -29.555   0.327  15.876  1.00  0.00     0.278 C 
HETATM    7  C21 UNL     1     -30.520  -0.620  17.773  1.00  0.00     0.530 C 
HETATM    8  C9  UNL     1     -31.454  -0.692  19.955  1.00  0.00     0.278 C 
BRANCH   5   9
HETATM    9  C5  UNL     1     -31.927  -0.077  15.894  1.00  0.00     0.270 C 
BRANCH   9  10
HETATM   10  C4  UNL     1     -31.616  -0.406  14.457  1.00  0.00     0.264 C 
BRANCH  10  11
HETATM   11  N1  UNL     1     -32.580   0.177  13.550  1.00  0.00    -0.077 N 
HETATM   12  C1  UNL     1     -31.970   1.309  12.877  1.00  0.00     0.271 C 
HETATM   13  C2  UNL     1     -33.783   0.623  14.227  1.00  0.00     0.271 C 
HETATM   14  C3  UNL     1     -32.940  -0.785  12.528  1.00  0.00     0.271 C 
ENDBRANCH  10  11
ENDBRANCH   9  10
ENDBRANCH   5   9
BRANCH   7  15
HETATM   15  O1  UNL     1     -31.346  -1.725  17.702  1.00  0.00    -0.348 OA
ATOM     16  H1  UNL     1     -31.162  -2.318  18.421  1.00  0.00     0.213 HD
ENDBRANCH   7  15
ENDBRANCH   1   2
BRANCH   1  17
HETATM   17  C11 UNL     1     -28.330  -0.028  19.397  1.00  0.00     0.142 C 
BRANCH  17  18
HETATM   18  N4  UNL     1     -27.170   0.701  19.036  1.00  0.00    -0.410 N 
ATOM     19  H4  UNL     1     -26.238   0.402  19.324  1.00  0.00     0.154 HD
BRANCH  18  20
HETATM   20  C12 UNL     1     -27.372   1.874  18.248  1.00  0.00     0.208 C 
BRANCH  20  21
HETATM   21  C13 UNL     1     -26.368   1.858  17.162  1.00  0.00    -0.086 C 
HETATM   22  C14 UNL     1     -25.563   1.828  16.269  1.00  0.00    -0.085 C 
BRANCH  22  23
HETATM   23  C15 UNL     1     -24.590   1.782  15.154  1.00  0.00     0.215 C 
BRANCH  23  24
HETATM   24  N5  UNL     1     -23.424   2.579  15.462  1.00  0.00    -0.366 N 
ATOM     25  H5  UNL     1     -23.460   3.592  15.346  1.00  0.00     0.162 HD
BRANCH  24  26
HETATM   26  C16 UNL     1     -22.354   2.033  15.875  1.00  0.00     0.101 A 
HETATM   27  C17 UNL     1     -21.665   1.070  15.139  1.00  0.00     0.048 A 
HETATM   28  C18 UNL     1     -20.508   0.492  15.605  1.00  0.00     0.005 A 
HETATM   29  C19 UNL     1     -20.000   0.862  16.833  1.00  0.00     0.017 A 
HETATM   30  C20 UNL     1     -20.711   1.822  17.534  1.00  0.00     0.089 A 
HETATM   31  N6  UNL     1     -21.838   2.377  17.068  1.00  0.00    -0.353 N 
ATOM     32  H6  UNL     1     -22.318   3.078  17.633  1.00  0.00     0.166 HD
ENDBRANCH  24  26
ENDBRANCH  23  24
ENDBRANCH  22  23
ENDBRANCH  20  21
ENDBRANCH  18  20
ENDBRANCH  17  18
ENDBRANCH   1  17
TORSDOF 12
ENDMDL
MODEL 5
REMARK VINA RESULT: -5.767355242      2.919      4.706
REMARK  12 active torsions:
REMARK  status: ('A' for Active; 'I' for Inactive)
REMARK    1  A    between atoms: N1_2  and  C4_5 
REMARK    2  A    between atoms: C4_5  and  C5_6 
REMARK    3  A    between atoms: C5_6  and  N2_7 
REMARK    4  A    between atoms: N3_11  and  C10_13 
REMARK    5  A    between atoms: C10_13  and  C11_14 
REMARK    6  A    between atoms: C11_14  and  N4_15 
REMARK    7  A    between atoms: N4_15  and  C12_17 
REMARK    8  A    between atoms: C12_17  and  C13_18 
REMARK    9  A    between atoms: C14_19  and  C15_20 
REMARK   10  A    between atoms: C15_20  and  N5_21 
REMARK   11  A    between atoms: N5_21  and  C16_23 
REMARK   12  A    between atoms: C21_30  and  O1_31 
ROOT
HETATM    1  C10 UNL     1     -29.331   0.916  19.240  1.00  0.00     0.261 C 
ENDROOT
BRANCH   1   2
HETATM    2  N3  UNL     1     -30.564   0.347  18.809  1.00  0.00    -0.015 N 
HETATM    3  C8  UNL     1     -31.424   1.444  18.319  1.00  0.00     0.270 C 
HETATM    4  C7  UNL     1     -30.770   1.664  16.952  1.00  0.00     0.270 C 
HETATM    5  N2  UNL     1     -30.641   0.302  16.476  1.00  0.00    -0.015 N 
HETATM    6  C6  UNL     1     -29.468   0.271  15.629  1.00  0.00     0.278 C 
HETATM    7  C21 UNL     1     -30.385  -0.499  17.628  1.00  0.00     0.530 C 
HETATM    8  C9  UNL     1     -31.219  -0.380  19.848  1.00  0.00     0.278 C 
BRANCH   5   9
HETATM    9  C5  UNL     1     -31.853  -0.020  15.778  1.00  0.00     0.270 C 
BRANCH   9  10
HETATM   10  C4  UNL     1     -31.627  -0.431  14.347  1.00  0.00     0.264 C 
BRANCH  10  11
HETATM   11  N1  UNL     1     -32.578   0.188  13.451  1.00  0.00    -0.077 N 
HETATM   12  C1  UNL     1     -33.102  -0.820  12.547  1.00  0.00     0.271 C 
HETATM   13  C2  UNL     1     -31.991   1.262  12.670  1.00  0.00     0.271 C 
HETATM   14  C3  UNL     1     -33.700   0.709  14.206  1.00  0.00     0.271 C 
ENDBRANCH  10  11
ENDBRANCH   9  10
ENDBRANCH   5   9
BRANCH   7  15
HETATM   15  O1  UNL     1     -31.261  -1.567  17.670  1.00  0.00    -0.348 OA
ATOM     16  H1  UNL     1     -31.589  -1.687  18.553  1.00  0.00     0.213 HD
ENDBRANCH   7  15
ENDBRANCH   1   2
BRANCH   1  17
HETATM   17  C11 UNL     1     -28.102   0.088  19.134  1.00  0.00     0.142 C 
BRANCH  17  18
HETATM   18  N4  UNL     1     -26.930   0.712  18.637  1.00  0.00    -0.410 N 
ATOM     19  H4  UNL     1     -26.007   0.297  18.764  1.00  0.00     0.154 HD
BRANCH  18  20
HETATM   20  C12 UNL     1     -27.108   1.951  17.951  1.00  0.00     0.208 C 
BRANCH  20  21
HETATM   21  C13 UNL     1     -26.306   1.890  16.709  1.00  0.00    -0.086 C 
HETATM   22  C14 UNL     1     -25.666   1.822  15.694  1.00  0.00    -0.085 C 
BRANCH  22  23
HETATM   23  C15 UNL     1     -24.897   1.725  14.433  1.00  0.00     0.215 C 
BRANCH  23  24
HETATM   24  N5  UNL     1     -23.693   2.524  14.507  1.00  0.00    -0.366 N 
ATOM     25  H5  UNL     1     -23.676   3.450  14.082  1.00  0.00     0.162 HD
BRANCH  24  26
HETATM   26  C16 UNL     1     -22.658   2.084  15.095  1.00  0.00     0.101 A 
HETATM   27  C17 UNL     1     -22.064   2.742  16.173  1.00  0.00     0.048 A 
HETATM   28  C18 UNL     1     -20.944   2.247  16.796  1.00  0.00     0.005 A 
HETATM   29  C19 UNL     1     -20.375   1.070  16.357  1.00  0.00     0.017 A 
HETATM   30  C20 UNL     1     -20.992   0.445  15.287  1.00  0.00     0.089 A 
HETATM   31  N6  UNL     1     -22.085   0.938  14.687  1.00  0.00    -0.353 N 
ATOM     32  H6  UNL     1     -22.492   0.432  13.901  1.00  0.00     0.166 HD
ENDBRANCH  24  26
ENDBRANCH  23  24
ENDBRANCH  22  23
ENDBRANCH  20  21
ENDBRANCH  18  20
ENDBRANCH  17  18
ENDBRANCH   1  17
TORSDOF 12
ENDMDL
