MODEL 1
REMARK VINA RESULT: -7.798129471      0.000      0.000
REMARK  9 active torsions:
REMARK  status: ('A' for Active; 'I' for Inactive)
REMARK    1  A    between atoms: C6_6  and  C7_7 
REMARK    2  A    between atoms: C7_7  and  C8_8 
REMARK    3  A    between atoms: N2_11  and  C9_12 
REMARK    4  A    between atoms: C9_12  and  O1_14 
REMARK    5  A    between atoms: C12_18  and  C13_19 
REMARK    6  A    between atoms: C13_19  and  C14_20 
REMARK    7  A    between atoms: C14_20  and  C15_21 
REMARK    8  A    between atoms: C17_23  and  C18_24 
REMARK    9  A    between atoms: N3_25  and  N4_27 
ROOT
HETATM    1  C8  UNL     1      14.594 -12.607  20.910  1.00  0.00     0.134 C 
HETATM    2  N1  UNL     1      14.479 -13.822  21.696  1.00  0.00    -0.320 N 
ATOM      3  H1  UNL     1      14.294 -13.804  22.698  1.00  0.00     0.181 HD
HETATM    4  N2  UNL     1      14.635 -15.000  21.002  1.00  0.00    -0.235 N 
HETATM    5  C11 UNL     1      15.699 -15.139  20.076  1.00  0.00     0.245 C 
HETATM    6  O2  UNL     1      16.162 -16.257  19.860  1.00  0.00    -0.271 OA
HETATM    7  C12 UNL     1      16.164 -13.852  19.428  1.00  0.00     0.091 C 
HETATM    8  C17 UNL     1      14.952 -12.970  19.464  1.00  0.00     0.067 C 
ENDROOT
BRANCH   1   9
HETATM    9  C7  UNL     1      13.254 -12.003  20.885  1.00  0.00     0.030 C 
BRANCH   9  10
HETATM   10  C6  UNL     1      12.794 -11.023  21.629  1.00  0.00     0.036 A 
HETATM   11  C4  UNL     1      13.051  -9.672  21.637  1.00  0.00    -0.033 A 
HETATM   12  C3  UNL     1      12.306  -9.114  22.707  1.00  0.00     0.037 A 
HETATM   13  C5  UNL     1      13.915  -8.917  20.710  1.00  0.00     0.050 C 
HETATM   14  C2  UNL     1      11.653 -10.125  23.287  1.00  0.00     0.023 A 
HETATM   15  C1  UNL     1      10.842  -9.988  24.432  1.00  0.00     0.043 C 
HETATM   16  N5  UNL     1      11.922 -11.254  22.665  1.00  0.00    -0.357 N 
ATOM     17  H5  UNL     1      11.540 -12.166  22.915  1.00  0.00     0.166 HD
ENDBRANCH   9  10
ENDBRANCH   1   9
BRANCH   8  18
HETATM   18  C18 UNL     1      14.918 -11.843  18.556  1.00  0.00     0.087 C 
HETATM   19  N3  UNL     1      15.157 -12.010  17.301  1.00  0.00    -0.322 N 
ATOM     20  H3  UNL     1      15.368 -12.952  16.970  1.00  0.00     0.185 HD
BRANCH  19  21
HETATM   21  N4  UNL     1      15.141 -10.961  16.364  1.00  0.00    -0.346 N 
ATOM     22  H42 UNL     1      14.847 -10.043  16.696  1.00  0.00     0.176 HD
ATOM     23  H41 UNL     1      15.406 -11.079  15.386  1.00  0.00     0.176 HD
ENDBRANCH  19  21
ENDBRANCH   8  18
BRANCH   4  24
HETATM   24  C9  UNL     1      13.705 -16.072  21.234  1.00  0.00     0.239 C 
HETATM   25  C10 UNL     1      12.290 -15.762  20.952  1.00  0.00     0.065 C 
BRANCH  24  26
HETATM   26  O1  UNL     1      13.801 -16.490  22.589  1.00  0.00    -0.375 OA
ATOM     27  H1  UNL     1      13.657 -17.428  22.638  1.00  0.00     0.212 HD
ENDBRANCH  24  26
ENDBRANCH   4  24
BRANCH   7  28
HETATM   28  C13 UNL     1      17.311 -13.388  20.290  1.00  0.00     0.015 C 
BRANCH  28  29
HETATM   29  C14 UNL     1      18.126 -12.282  19.686  1.00  0.00     0.001 C 
BRANCH  29  30
HETATM   30  C15 UNL     1      19.584 -12.475  20.115  1.00  0.00    -0.005 C 
HETATM   31  C16 UNL     1      20.534 -11.873  19.108  1.00  0.00     0.005 C 
ENDBRANCH  29  30
ENDBRANCH  28  29
ENDBRANCH   7  28
TORSDOF 9
ENDMDL
MODEL 2
REMARK VINA RESULT: -7.321090289      1.596      1.926
REMARK  9 active torsions:
REMARK  status: ('A' for Active; 'I' for Inactive)
REMARK    1  A    between atoms: C6_6  and  C7_7 
REMARK    2  A    between atoms: C7_7  and  C8_8 
REMARK    3  A    between atoms: N2_11  and  C9_12 
REMARK    4  A    between atoms: C9_12  and  O1_14 
REMARK    5  A    between atoms: C12_18  and  C13_19 
REMARK    6  A    between atoms: C13_19  and  C14_20 
REMARK    7  A    between atoms: C14_20  and  C15_21 
REMARK    8  A    between atoms: C17_23  and  C18_24 
REMARK    9  A    between atoms: N3_25  and  N4_27 
ROOT
HETATM    1  C8  UNL     1      15.795 -12.396  21.223  1.00  0.00     0.134 C 
HETATM    2  N1  UNL     1      15.587 -13.558  22.068  1.00  0.00    -0.320 N 
ATOM      3  H1  UNL     1      15.095 -13.499  22.959  1.00  0.00     0.181 HD
HETATM    4  N2  UNL     1      16.096 -14.743  21.590  1.00  0.00    -0.235 N 
HETATM    5  C11 UNL     1      17.407 -14.783  21.051  1.00  0.00     0.245 C 
HETATM    6  O2  UNL     1      18.048 -15.831  21.112  1.00  0.00    -0.271 OA
HETATM    7  C12 UNL     1      17.892 -13.489  20.435  1.00  0.00     0.091 C 
HETATM    8  C17 UNL     1      16.632 -12.799  20.003  1.00  0.00     0.067 C 
ENDROOT
BRANCH   1   9
HETATM    9  C7  UNL     1      14.469 -12.004  20.726  1.00  0.00     0.030 C 
BRANCH   9  10
HETATM   10  C6  UNL     1      13.541 -11.314  21.351  1.00  0.00     0.036 A 
HETATM   11  C4  UNL     1      13.292  -9.964  21.431  1.00  0.00    -0.033 A 
HETATM   12  C3  UNL     1      12.187  -9.796  22.304  1.00  0.00     0.037 A 
HETATM   13  C5  UNL     1      14.010  -8.876  20.739  1.00  0.00     0.050 C 
HETATM   14  C2  UNL     1      11.827 -11.019  22.705  1.00  0.00     0.023 A 
HETATM   15  C1  UNL     1      10.795 -11.275  23.630  1.00  0.00     0.043 C 
HETATM   16  N5  UNL     1      12.608 -11.925  22.153  1.00  0.00    -0.357 N 
ATOM     17  H5  UNL     1      12.531 -12.932  22.298  1.00  0.00     0.166 HD
ENDBRANCH   9  10
ENDBRANCH   1   9
BRANCH   8  18
HETATM   18  C18 UNL     1      16.749 -11.755  19.007  1.00  0.00     0.087 C 
HETATM   19  N3  UNL     1      16.521 -12.011  17.765  1.00  0.00    -0.322 N 
ATOM     20  H3  UNL     1      16.257 -12.962  17.507  1.00  0.00     0.185 HD
BRANCH  19  21
HETATM   21  N4  UNL     1      16.617 -11.045  16.746  1.00  0.00    -0.346 N 
ATOM     22  H42 UNL     1      16.537 -11.373  15.784  1.00  0.00     0.176 HD
ATOM     23  H41 UNL     1      16.759 -10.051  16.927  1.00  0.00     0.176 HD
ENDBRANCH  19  21
ENDBRANCH   8  18
BRANCH   4  24
HETATM   24  C9  UNL     1      15.279 -15.925  21.649  1.00  0.00     0.239 C 
HETATM   25  C10 UNL     1      13.839 -15.718  21.402  1.00  0.00     0.065 C 
BRANCH  24  26
HETATM   26  O1  UNL     1      15.423 -16.530  22.926  1.00  0.00    -0.375 OA
ATOM     27  H1  UNL     1      14.957 -17.358  22.934  1.00  0.00     0.212 HD
ENDBRANCH  24  26
ENDBRANCH   4  24
BRANCH   7  28
HETATM   28  C13 UNL     1      18.643 -12.799  21.545  1.00  0.00     0.015 C 
BRANCH  28  29
HETATM   29  C14 UNL     1      20.133 -12.965  21.476  1.00  0.00     0.001 C 
BRANCH  29  30
HETATM   30  C15 UNL     1      20.615 -13.507  22.824  1.00  0.00    -0.005 C 
HETATM   31  C16 UNL     1      19.542 -13.381  23.880  1.00  0.00     0.005 C 
ENDBRANCH  29  30
ENDBRANCH  28  29
ENDBRANCH   7  28
TORSDOF 9
ENDMDL
MODEL 3
REMARK VINA RESULT: -7.169450993      3.351      4.338
REMARK  9 active torsions:
REMARK  status: ('A' for Active; 'I' for Inactive)
REMARK    1  A    between atoms: C6_6  and  C7_7 
REMARK    2  A    between atoms: C7_7  and  C8_8 
REMARK    3  A    between atoms: N2_11  and  C9_12 
REMARK    4  A    between atoms: C9_12  and  O1_14 
REMARK    5  A    between atoms: C12_18  and  C13_19 
REMARK    6  A    between atoms: C13_19  and  C14_20 
REMARK    7  A    between atoms: C14_20  and  C15_21 
REMARK    8  A    between atoms: C17_23  and  C18_24 
REMARK    9  A    between atoms: N3_25  and  N4_27 
ROOT
HETATM    1  C8  UNL     1      17.076 -13.155  22.128  1.00  0.00     0.134 C 
HETATM    2  N1  UNL     1      16.540 -14.296  22.848  1.00  0.00    -0.320 N 
ATOM      3  H1  UNL     1      15.671 -14.242  23.380  1.00  0.00     0.181 HD
HETATM    4  N2  UNL     1      17.277 -15.454  22.768  1.00  0.00    -0.235 N 
HETATM    5  C11 UNL     1      18.683 -15.410  22.939  1.00  0.00     0.245 C 
HETATM    6  O2  UNL     1      19.264 -16.400  23.381  1.00  0.00    -0.271 OA
HETATM    7  C12 UNL     1      19.342 -14.106  22.543  1.00  0.00     0.091 C 
HETATM    8  C17 UNL     1      18.423 -13.537  21.503  1.00  0.00     0.067 C 
ENDROOT
BRANCH   1   9
HETATM    9  C7  UNL     1      16.146 -12.891  21.022  1.00  0.00     0.030 C 
BRANCH   9  10
HETATM   10  C6  UNL     1      14.884 -12.532  21.092  1.00  0.00     0.036 A 
HETATM   11  C4  UNL     1      13.714 -13.225  20.887  1.00  0.00    -0.033 A 
HETATM   12  C3  UNL     1      12.650 -12.300  21.045  1.00  0.00     0.037 A 
HETATM   13  C5  UNL     1      13.563 -14.660  20.580  1.00  0.00     0.050 C 
HETATM   14  C2  UNL     1      13.208 -11.119  21.326  1.00  0.00     0.023 A 
HETATM   15  C1  UNL     1      12.482  -9.924  21.500  1.00  0.00     0.043 C 
HETATM   16  N5  UNL     1      14.520 -11.235  21.364  1.00  0.00    -0.357 N 
ATOM     17  H5  UNL     1      15.169 -10.475  21.565  1.00  0.00     0.166 HD
ENDBRANCH   9  10
ENDBRANCH   1   9
BRANCH   8  18
HETATM   18  C18 UNL     1      18.961 -12.528  20.616  1.00  0.00     0.087 C 
HETATM   19  N3  UNL     1      20.128 -12.676  20.092  1.00  0.00    -0.322 N 
ATOM     20  H3  UNL     1      20.657 -13.518  20.318  1.00  0.00     0.185 HD
BRANCH  19  21
HETATM   21  N4  UNL     1      20.711 -11.736  19.223  1.00  0.00    -0.346 N 
ATOM     22  H42 UNL     1      20.650 -11.924  18.222  1.00  0.00     0.176 HD
ATOM     23  H41 UNL     1      21.183 -10.890  19.546  1.00  0.00     0.176 HD
ENDBRANCH  19  21
ENDBRANCH   8  18
BRANCH   4  24
HETATM   24  C9  UNL     1      16.597 -16.695  22.508  1.00  0.00     0.239 C 
HETATM   25  C10 UNL     1      16.466 -17.065  21.085  1.00  0.00     0.065 C 
BRANCH  24  26
HETATM   26  O1  UNL     1      15.292 -16.640  23.069  1.00  0.00    -0.375 OA
ATOM     27  H1  UNL     1      14.786 -15.975  22.617  1.00  0.00     0.212 HD
ENDBRANCH  24  26
ENDBRANCH   4  24
BRANCH   7  28
HETATM   28  C13 UNL     1      19.416 -13.315  23.825  1.00  0.00     0.015 C 
BRANCH  28  29
HETATM   29  C14 UNL     1      20.725 -13.436  24.548  1.00  0.00     0.001 C 
BRANCH  29  30
HETATM   30  C15 UNL     1      20.838 -12.266  25.529  1.00  0.00    -0.005 C 
HETATM   31  C16 UNL     1      20.869 -12.752  26.958  1.00  0.00     0.005 C 
ENDBRANCH  29  30
ENDBRANCH  28  29
ENDBRANCH   7  28
TORSDOF 9
ENDMDL
MODEL 4
REMARK VINA RESULT: -7.075194503      1.841      2.386
REMARK  9 active torsions:
REMARK  status: ('A' for Active; 'I' for Inactive)
REMARK    1  A    between atoms: C6_6  and  C7_7 
REMARK    2  A    between atoms: C7_7  and  C8_8 
REMARK    3  A    between atoms: N2_11  and  C9_12 
REMARK    4  A    between atoms: C9_12  and  O1_14 
REMARK    5  A    between atoms: C12_18  and  C13_19 
REMARK    6  A    between atoms: C13_19  and  C14_20 
REMARK    7  A    between atoms: C14_20  and  C15_21 
REMARK    8  A    between atoms: C17_23  and  C18_24 
REMARK    9  A    between atoms: N3_25  and  N4_27 
ROOT
HETATM    1  C8  UNL     1      13.980 -11.730  21.695  1.00  0.00     0.134 C 
HETATM    2  N1  UNL     1      13.869 -13.156  21.946  1.00  0.00    -0.320 N 
ATOM      3  H1  UNL     1      13.620 -13.527  22.862  1.00  0.00     0.181 HD
HETATM    4  N2  UNL     1      14.122 -13.974  20.870  1.00  0.00    -0.235 N 
HETATM    5  C11 UNL     1      15.248 -13.730  20.045  1.00  0.00     0.245 C 
HETATM    6  O2  UNL     1      15.775 -14.671  19.454  1.00  0.00    -0.271 OA
HETATM    7  C12 UNL     1      15.696 -12.285  19.974  1.00  0.00     0.091 C 
HETATM    8  C17 UNL     1      14.446 -11.504  20.251  1.00  0.00     0.067 C 
ENDROOT
BRANCH   1   9
HETATM    9  C7  UNL     1      12.619 -11.186  21.799  1.00  0.00     0.030 C 
BRANCH   9  10
HETATM   10  C6  UNL     1      12.119 -10.434  22.754  1.00  0.00     0.036 A 
HETATM   11  C4  UNL     1      11.149 -10.669  23.700  1.00  0.00    -0.033 A 
HETATM   12  C3  UNL     1      10.980  -9.464  24.429  1.00  0.00     0.037 A 
HETATM   13  C5  UNL     1      10.419 -11.927  23.945  1.00  0.00     0.050 C 
HETATM   14  C2  UNL     1      11.829  -8.576  23.904  1.00  0.00     0.023 A 
HETATM   15  C1  UNL     1      11.925  -7.233  24.319  1.00  0.00     0.043 C 
HETATM   16  N5  UNL     1      12.511  -9.128  22.921  1.00  0.00    -0.357 N 
ATOM     17  H5  UNL     1      13.225  -8.657  22.366  1.00  0.00     0.166 HD
ENDBRANCH   9  10
ENDBRANCH   1   9
BRANCH   8  18
HETATM   18  C18 UNL     1      14.420 -10.117  19.842  1.00  0.00     0.087 C 
HETATM   19  N3  UNL     1      14.800  -9.190  20.652  1.00  0.00    -0.322 N 
ATOM     20  H3  UNL     1      15.116  -9.462  21.583  1.00  0.00     0.185 HD
BRANCH  19  21
HETATM   21  N4  UNL     1      14.801  -7.824  20.320  1.00  0.00    -0.346 N 
ATOM     22  H42 UNL     1      15.186  -7.564  19.412  1.00  0.00     0.176 HD
ATOM     23  H41 UNL     1      14.439  -7.096  20.937  1.00  0.00     0.176 HD
ENDBRANCH  19  21
ENDBRANCH   8  18
BRANCH   4  24
HETATM   24  C9  UNL     1      13.228 -15.069  20.603  1.00  0.00     0.239 C 
HETATM   25  C10 UNL     1      12.137 -14.785  19.651  1.00  0.00     0.065 C 
BRANCH  24  26
HETATM   26  O1  UNL     1      12.644 -15.504  21.823  1.00  0.00    -0.375 OA
ATOM     27  H1  UNL     1      11.941 -16.114  21.634  1.00  0.00     0.212 HD
ENDBRANCH  24  26
ENDBRANCH   4  24
BRANCH   7  28
HETATM   28  C13 UNL     1      16.764 -12.168  21.033  1.00  0.00     0.015 C 
BRANCH  28  29
HETATM   29  C14 UNL     1      18.029 -11.512  20.562  1.00  0.00     0.001 C 
BRANCH  29  30
HETATM   30  C15 UNL     1      19.079 -12.605  20.343  1.00  0.00    -0.005 C 
HETATM   31  C16 UNL     1      20.244 -12.088  19.533  1.00  0.00     0.005 C 
ENDBRANCH  29  30
ENDBRANCH  28  29
ENDBRANCH   7  28
TORSDOF 9
ENDMDL
MODEL 5
REMARK VINA RESULT: -7.060922869      2.815      5.132
REMARK  9 active torsions:
REMARK  status: ('A' for Active; 'I' for Inactive)
REMARK    1  A    between atoms: C6_6  and  C7_7 
REMARK    2  A    between atoms: C7_7  and  C8_8 
REMARK    3  A    between atoms: N2_11  and  C9_12 
REMARK    4  A    between atoms: C9_12  and  O1_14 
REMARK    5  A    between atoms: C12_18  and  C13_19 
REMARK    6  A    between atoms: C13_19  and  C14_20 
REMARK    7  A    between atoms: C14_20  and  C15_21 
REMARK    8  A    between atoms: C17_23  and  C18_24 
REMARK    9  A    between atoms: N3_25  and  N4_27 
ROOT
HETATM    1  C8  UNL     1      16.680 -13.146  20.352  1.00  0.00     0.134 C 
HETATM    2  N1  UNL     1      16.363 -14.556  20.495  1.00  0.00    -0.320 N 
ATOM      3  H1  UNL     1      17.088 -15.272  20.538  1.00  0.00     0.181 HD
HETATM    4  N2  UNL     1      15.025 -14.863  20.571  1.00  0.00    -0.235 N 
HETATM    5  C11 UNL     1      14.111 -14.267  19.666  1.00  0.00     0.245 C 
HETATM    6  O2  UNL     1      13.084 -14.873  19.366  1.00  0.00    -0.271 OA
HETATM    7  C12 UNL     1      14.510 -12.901  19.150  1.00  0.00     0.091 C 
HETATM    8  C17 UNL     1      15.379 -12.343  20.238  1.00  0.00     0.067 C 
ENDROOT
BRANCH   1   9
HETATM    9  C7  UNL     1      17.330 -12.739  21.605  1.00  0.00     0.030 C 
BRANCH   9  10
HETATM   10  C6  UNL     1      18.560 -12.986  21.996  1.00  0.00     0.036 A 
HETATM   11  C4  UNL     1      19.765 -12.952  21.333  1.00  0.00    -0.033 A 
HETATM   12  C3  UNL     1      20.757 -13.377  22.252  1.00  0.00     0.037 A 
HETATM   13  C5  UNL     1      20.010 -12.537  19.939  1.00  0.00     0.050 C 
HETATM   14  C2  UNL     1      20.127 -13.648  23.399  1.00  0.00     0.023 A 
HETATM   15  C1  UNL     1      20.763 -14.155  24.549  1.00  0.00     0.043 C 
HETATM   16  N5  UNL     1      18.836 -13.419  23.271  1.00  0.00    -0.357 N 
ATOM     17  H5  UNL     1      18.143 -13.546  24.008  1.00  0.00     0.166 HD
ENDBRANCH   9  10
ENDBRANCH   1   9
BRANCH   8  18
HETATM   18  C18 UNL     1      15.575 -10.909  20.267  1.00  0.00     0.087 C 
HETATM   19  N3  UNL     1      14.574 -10.118  20.440  1.00  0.00    -0.322 N 
ATOM     20  H3  UNL     1      13.647 -10.528  20.554  1.00  0.00     0.185 HD
BRANCH  19  21
HETATM   21  N4  UNL     1      14.693  -8.717  20.478  1.00  0.00    -0.346 N 
ATOM     22  H42 UNL     1      14.190  -8.185  19.767  1.00  0.00     0.176 HD
ATOM     23  H41 UNL     1      15.249  -8.219  21.174  1.00  0.00     0.176 HD
ENDBRANCH  19  21
ENDBRANCH   8  18
BRANCH   4  24
HETATM   24  C9  UNL     1      14.579 -15.791  21.576  1.00  0.00     0.239 C 
HETATM   25  C10 UNL     1      14.536 -17.207  21.163  1.00  0.00     0.065 C 
BRANCH  24  26
HETATM   26  O1  UNL     1      13.278 -15.420  22.010  1.00  0.00    -0.375 OA
ATOM     27  H1  UNL     1      13.071 -15.887  22.811  1.00  0.00     0.212 HD
ENDBRANCH  24  26
ENDBRANCH   4  24
BRANCH   7  28
HETATM   28  C13 UNL     1      15.223 -13.180  17.851  1.00  0.00     0.015 C 
BRANCH  28  29
HETATM   29  C14 UNL     1      15.271 -12.011  16.912  1.00  0.00     0.001 C 
BRANCH  29  30
HETATM   30  C15 UNL     1      16.726 -11.545  16.805  1.00  0.00    -0.005 C 
HETATM   31  C16 UNL     1      16.968 -10.799  15.514  1.00  0.00     0.005 C 
ENDBRANCH  29  30
ENDBRANCH  28  29
ENDBRANCH   7  28
TORSDOF 9
ENDMDL
