MODEL 1
REMARK VINA RESULT: -8.311420002      0.000      0.000
REMARK  9 active torsions:
REMARK  status: ('A' for Active; 'I' for Inactive)
REMARK    1  A    between atoms: C2_2  and  N1_3 
REMARK    2  A    between atoms: C5_8  and  C6_9 
REMARK    3  A    between atoms: C6_9  and  C7_10 
REMARK    4  A    between atoms: C7_10  and  C8_11 
REMARK    5  A    between atoms: C9_14  and  C10_15 
REMARK    6  A    between atoms: C10_15  and  N4_16 
REMARK    7  A    between atoms: N4_16  and  C11_18 
REMARK    8  A    between atoms: C11_18  and  C12_19 
REMARK    9  A    between atoms: C12_19  and  C13_20 
ROOT
HETATM    1  C8  UNL     1      17.733 -11.528  20.007  1.00  0.00     0.073 A 
HETATM    2  N3  UNL     1      16.622 -11.194  20.632  1.00  0.00    -0.344 N 
ATOM      3  H3  UNL     1      16.506 -10.838  21.580  1.00  0.00     0.167 HD
HETATM    4  C9  UNL     1      15.694 -11.440  19.718  1.00  0.00     0.092 A 
HETATM    5  S1  UNL     1      16.864 -11.943  18.645  1.00  0.00    -0.053 SA
ENDROOT
BRANCH   4   6
HETATM    6  C10 UNL     1      14.348 -11.319  19.705  1.00  0.00     0.124 C 
BRANCH   6   7
HETATM    7  N4  UNL     1      13.728 -10.054  19.610  1.00  0.00    -0.376 N 
ATOM      8  H4  UNL     1      13.851  -9.508  18.757  1.00  0.00     0.164 HD
BRANCH   7   9
HETATM    9  C11 UNL     1      13.005  -9.562  20.576  1.00  0.00     0.065 C 
BRANCH   9  10
HETATM   10  C12 UNL     1      13.373  -9.844  21.987  1.00  0.00     0.091 C 
BRANCH  10  11
HETATM   11  C13 UNL     1      12.172 -10.262  22.749  1.00  0.00     0.040 A 
HETATM   12  C14 UNL     1      11.462  -9.547  23.688  1.00  0.00     0.034 A 
HETATM   13  C15 UNL     1      11.784  -8.163  24.121  1.00  0.00     0.070 C 
HETATM   14  N5  UNL     1      10.432 -10.325  24.131  1.00  0.00    -0.302 N 
HETATM   15  N6  UNL     1      10.473 -11.489  23.510  1.00  0.00    -0.266 N 
ATOM     16  H5  UNL     1       9.742 -10.051  24.830  1.00  0.00     0.186 HD
HETATM   17  C16 UNL     1      11.514 -11.492  22.661  1.00  0.00     0.268 A 
ATOM     18  H6  UNL     1       9.820 -12.260  23.652  1.00  0.00     0.190 HD
HETATM   19  O1  UNL     1      11.901 -12.399  21.889  1.00  0.00    -0.266 OA
ENDBRANCH  10  11
ENDBRANCH   9  10
ENDBRANCH   7   9
ENDBRANCH   6   7
ENDBRANCH   4   6
BRANCH   1  20
HETATM   20  C7  UNL     1      19.042 -11.548  20.289  1.00  0.00     0.018 C 
BRANCH  20  21
HETATM   21  C6  UNL     1      19.808 -12.812  20.099  1.00  0.00     0.106 C 
BRANCH  21  22
HETATM   22  C5  UNL     1      20.123 -13.447  21.406  1.00  0.00     0.086 A 
HETATM   23  N1  UNL     1      19.420 -14.467  21.936  1.00  0.00    -0.345 N 
HETATM   24  C3  UNL     1      20.019 -14.744  23.105  1.00  0.00     0.109 A 
HETATM   25  C4  UNL     1      21.090 -13.904  23.310  1.00  0.00     0.106 A 
HETATM   26  N2  UNL     1      21.130 -13.105  22.231  1.00  0.00    -0.354 N 
ATOM     27  H2  UNL     1      21.810 -12.363  22.065  1.00  0.00     0.166 HD
BRANCH  23  28
HETATM   28  C2  UNL     1      18.266 -15.113  21.350  1.00  0.00     0.125 C 
HETATM   29  C1  UNL     1      16.956 -14.567  21.875  1.00  0.00     0.027 C 
ENDBRANCH  23  28
ENDBRANCH  21  22
ENDBRANCH  20  21
ENDBRANCH   1  20
TORSDOF 9
ENDMDL
MODEL 2
REMARK VINA RESULT: -8.100294742      0.981      1.574
REMARK  9 active torsions:
REMARK  status: ('A' for Active; 'I' for Inactive)
REMARK    1  A    between atoms: C2_2  and  N1_3 
REMARK    2  A    between atoms: C5_8  and  C6_9 
REMARK    3  A    between atoms: C6_9  and  C7_10 
REMARK    4  A    between atoms: C7_10  and  C8_11 
REMARK    5  A    between atoms: C9_14  and  C10_15 
REMARK    6  A    between atoms: C10_15  and  N4_16 
REMARK    7  A    between atoms: N4_16  and  C11_18 
REMARK    8  A    between atoms: C11_18  and  C12_19 
REMARK    9  A    between atoms: C12_19  and  C13_20 
ROOT
HETATM    1  C8  UNL     1      17.830 -11.525  19.982  1.00  0.00     0.073 A 
HETATM    2  N3  UNL     1      16.713 -11.190  20.595  1.00  0.00    -0.344 N 
ATOM      3  H3  UNL     1      16.586 -10.844  21.546  1.00  0.00     0.167 HD
HETATM    4  C9  UNL     1      15.795 -11.419  19.666  1.00  0.00     0.092 A 
HETATM    5  S1  UNL     1      16.976 -11.918  18.603  1.00  0.00    -0.053 SA
ENDROOT
BRANCH   4   6
HETATM    6  C10 UNL     1      14.451 -11.288  19.636  1.00  0.00     0.124 C 
BRANCH   6   7
HETATM    7  N4  UNL     1      13.842 -10.019  19.531  1.00  0.00    -0.376 N 
ATOM      8  H4  UNL     1      13.998  -9.465  18.689  1.00  0.00     0.164 HD
BRANCH   7   9
HETATM    9  C11 UNL     1      13.086  -9.531  20.475  1.00  0.00     0.065 C 
BRANCH   9  10
HETATM   10  C12 UNL     1      13.443  -9.768  21.897  1.00  0.00     0.091 C 
BRANCH  10  11
HETATM   11  C13 UNL     1      12.262 -10.273  22.638  1.00  0.00     0.040 A 
HETATM   12  C14 UNL     1      11.702 -11.531  22.603  1.00  0.00     0.034 A 
HETATM   13  C15 UNL     1      12.208 -12.661  21.782  1.00  0.00     0.070 C 
HETATM   14  N5  UNL     1      10.628 -11.546  23.443  1.00  0.00    -0.302 N 
HETATM   15  N6  UNL     1      10.496 -10.355  23.997  1.00  0.00    -0.266 N 
ATOM     16  H5  UNL     1      10.022 -12.349  23.616  1.00  0.00     0.186 HD
HETATM   17  C16 UNL     1      11.469  -9.552  23.535  1.00  0.00     0.268 A 
ATOM     18  H6  UNL     1       9.773 -10.088  24.665  1.00  0.00     0.190 HD
HETATM   19  O1  UNL     1      11.698  -8.352  23.808  1.00  0.00    -0.266 OA
ENDBRANCH  10  11
ENDBRANCH   9  10
ENDBRANCH   7   9
ENDBRANCH   6   7
ENDBRANCH   4   6
BRANCH   1  20
HETATM   20  C7  UNL     1      19.135 -11.558  20.281  1.00  0.00     0.018 C 
BRANCH  20  21
HETATM   21  C6  UNL     1      19.888 -12.832  20.112  1.00  0.00     0.106 C 
BRANCH  21  22
HETATM   22  C5  UNL     1      20.133 -13.486  21.425  1.00  0.00     0.086 A 
HETATM   23  N1  UNL     1      19.348 -14.450  21.944  1.00  0.00    -0.345 N 
HETATM   24  C3  UNL     1      19.903 -14.768  23.123  1.00  0.00     0.109 A 
HETATM   25  C4  UNL     1      21.030 -14.009  23.346  1.00  0.00     0.106 A 
HETATM   26  N2  UNL     1      21.148 -13.217  22.267  1.00  0.00    -0.354 N 
ATOM     27  H2  UNL     1      21.883 -12.527  22.112  1.00  0.00     0.166 HD
BRANCH  23  28
HETATM   28  C2  UNL     1      18.160 -15.011  21.338  1.00  0.00     0.125 C 
HETATM   29  C1  UNL     1      16.882 -14.510  21.975  1.00  0.00     0.027 C 
ENDBRANCH  23  28
ENDBRANCH  21  22
ENDBRANCH  20  21
ENDBRANCH   1  20
TORSDOF 9
ENDMDL
MODEL 3
REMARK VINA RESULT: -8.082660801      0.862      1.735
REMARK  9 active torsions:
REMARK  status: ('A' for Active; 'I' for Inactive)
REMARK    1  A    between atoms: C2_2  and  N1_3 
REMARK    2  A    between atoms: C5_8  and  C6_9 
REMARK    3  A    between atoms: C6_9  and  C7_10 
REMARK    4  A    between atoms: C7_10  and  C8_11 
REMARK    5  A    between atoms: C9_14  and  C10_15 
REMARK    6  A    between atoms: C10_15  and  N4_16 
REMARK    7  A    between atoms: N4_16  and  C11_18 
REMARK    8  A    between atoms: C11_18  and  C12_19 
REMARK    9  A    between atoms: C12_19  and  C13_20 
ROOT
HETATM    1  C8  UNL     1      17.490 -11.518  20.093  1.00  0.00     0.073 A 
HETATM    2  N3  UNL     1      16.356 -11.136  20.645  1.00  0.00    -0.344 N 
ATOM      3  H3  UNL     1      16.193 -10.780  21.586  1.00  0.00     0.167 HD
HETATM    4  C9  UNL     1      15.481 -11.332  19.668  1.00  0.00     0.092 A 
HETATM    5  S1  UNL     1      16.696 -11.883  18.671  1.00  0.00    -0.053 SA
ENDROOT
BRANCH   4   6
HETATM    6  C10 UNL     1      14.146 -11.146  19.567  1.00  0.00     0.124 C 
BRANCH   6   7
HETATM    7  N4  UNL     1      13.580  -9.855  19.630  1.00  0.00    -0.376 N 
ATOM      8  H4  UNL     1      13.814  -9.177  18.905  1.00  0.00     0.164 HD
BRANCH   7   9
HETATM    9  C11 UNL     1      12.769  -9.500  20.586  1.00  0.00     0.065 C 
BRANCH   9  10
HETATM   10  C12 UNL     1      13.205  -9.615  22.001  1.00  0.00     0.091 C 
BRANCH  10  11
HETATM   11  C13 UNL     1      12.083 -10.101  22.839  1.00  0.00     0.040 A 
HETATM   12  C14 UNL     1      11.409  -9.434  23.838  1.00  0.00     0.034 A 
HETATM   13  C15 UNL     1      11.696  -8.042  24.272  1.00  0.00     0.070 C 
HETATM   14  N5  UNL     1      10.451 -10.267  24.339  1.00  0.00    -0.302 N 
HETATM   15  N6  UNL     1      10.502 -11.418  23.697  1.00  0.00    -0.266 N 
ATOM     16  H5  UNL     1       9.800 -10.036  25.090  1.00  0.00     0.186 HD
HETATM   17  C16 UNL     1      11.479 -11.359  22.777  1.00  0.00     0.268 A 
ATOM     18  H6  UNL     1       9.898 -12.221  23.871  1.00  0.00     0.190 HD
HETATM   19  O1  UNL     1      11.851 -12.236  21.964  1.00  0.00    -0.266 OA
ENDBRANCH  10  11
ENDBRANCH   9  10
ENDBRANCH   7   9
ENDBRANCH   6   7
ENDBRANCH   4   6
BRANCH   1  20
HETATM   20  C7  UNL     1      18.775 -11.603  20.462  1.00  0.00     0.018 C 
BRANCH  20  21
HETATM   21  C6  UNL     1      19.421 -12.942  20.545  1.00  0.00     0.106 C 
BRANCH  21  22
HETATM   22  C5  UNL     1      18.721 -13.814  21.524  1.00  0.00     0.086 A 
HETATM   23  N1  UNL     1      19.099 -13.957  22.810  1.00  0.00    -0.345 N 
HETATM   24  C3  UNL     1      18.220 -14.817  23.348  1.00  0.00     0.109 A 
HETATM   25  C4  UNL     1      17.296 -15.213  22.409  1.00  0.00     0.106 A 
HETATM   26  N2  UNL     1      17.634 -14.569  21.279  1.00  0.00    -0.354 N 
ATOM     27  H2  UNL     1      17.149 -14.641  20.385  1.00  0.00     0.166 HD
BRANCH  23  28
HETATM   28  C2  UNL     1      20.221 -13.309  23.453  1.00  0.00     0.125 C 
HETATM   29  C1  UNL     1      19.974 -13.022  24.918  1.00  0.00     0.027 C 
ENDBRANCH  23  28
ENDBRANCH  21  22
ENDBRANCH  20  21
ENDBRANCH   1  20
TORSDOF 9
ENDMDL
MODEL 4
REMARK VINA RESULT: -8.032472153      1.073      1.890
REMARK  9 active torsions:
REMARK  status: ('A' for Active; 'I' for Inactive)
REMARK    1  A    between atoms: C2_2  and  N1_3 
REMARK    2  A    between atoms: C5_8  and  C6_9 
REMARK    3  A    between atoms: C6_9  and  C7_10 
REMARK    4  A    between atoms: C7_10  and  C8_11 
REMARK    5  A    between atoms: C9_14  and  C10_15 
REMARK    6  A    between atoms: C10_15  and  N4_16 
REMARK    7  A    between atoms: N4_16  and  C11_18 
REMARK    8  A    between atoms: C11_18  and  C12_19 
REMARK    9  A    between atoms: C12_19  and  C13_20 
ROOT
HETATM    1  C8  UNL     1      16.151 -12.709  21.586  1.00  0.00     0.073 A 
HETATM    2  N3  UNL     1      14.890 -12.501  21.269  1.00  0.00    -0.344 N 
ATOM      3  H3  UNL     1      14.051 -12.893  21.696  1.00  0.00     0.167 HD
HETATM    4  C9  UNL     1      14.985 -11.654  20.253  1.00  0.00     0.092 A 
HETATM    5  S1  UNL     1      16.646 -11.679  20.370  1.00  0.00    -0.053 SA
ENDROOT
BRANCH   4   6
HETATM    6  C10 UNL     1      14.074 -11.043  19.465  1.00  0.00     0.124 C 
BRANCH   6   7
HETATM    7  N4  UNL     1      13.665  -9.715  19.714  1.00  0.00    -0.376 N 
ATOM      8  H4  UNL     1      14.074  -8.961  19.162  1.00  0.00     0.164 HD
BRANCH   7   9
HETATM    9  C11 UNL     1      12.782  -9.421  20.626  1.00  0.00     0.065 C 
BRANCH   9  10
HETATM   10  C12 UNL     1      13.169  -9.450  22.060  1.00  0.00     0.091 C 
BRANCH  10  11
HETATM   11  C13 UNL     1      12.057  -9.999  22.873  1.00  0.00     0.040 A 
HETATM   12  C14 UNL     1      11.353  -9.385  23.886  1.00  0.00     0.034 A 
HETATM   13  C15 UNL     1      11.590  -7.999  24.364  1.00  0.00     0.070 C 
HETATM   14  N5  UNL     1      10.420 -10.264  24.353  1.00  0.00    -0.302 N 
HETATM   15  N6  UNL     1      10.514 -11.393  23.677  1.00  0.00    -0.266 N 
ATOM     16  H5  UNL     1       9.756 -10.078  25.105  1.00  0.00     0.186 HD
HETATM   17  C16 UNL     1      11.496 -11.274  22.768  1.00  0.00     0.268 A 
ATOM     18  H6  UNL     1       9.936 -12.221  23.822  1.00  0.00     0.190 HD
HETATM   19  O1  UNL     1      11.904 -12.113  21.932  1.00  0.00    -0.266 OA
ENDBRANCH  10  11
ENDBRANCH   9  10
ENDBRANCH   7   9
ENDBRANCH   6   7
ENDBRANCH   4   6
BRANCH   1  20
HETATM   20  C7  UNL     1      16.822 -13.431  22.493  1.00  0.00     0.018 C 
BRANCH  20  21
HETATM   21  C6  UNL     1      17.887 -14.367  22.034  1.00  0.00     0.106 C 
BRANCH  21  22
HETATM   22  C5  UNL     1      19.220 -13.951  22.545  1.00  0.00     0.086 A 
HETATM   23  N1  UNL     1      20.209 -13.473  21.764  1.00  0.00    -0.345 N 
HETATM   24  C3  UNL     1      21.231 -13.219  22.596  1.00  0.00     0.109 A 
HETATM   25  C4  UNL     1      20.888 -13.534  23.892  1.00  0.00     0.106 A 
HETATM   26  N2  UNL     1      19.625 -13.989  23.828  1.00  0.00    -0.354 N 
ATOM     27  H2  UNL     1      19.067 -14.310  24.619  1.00  0.00     0.166 HD
BRANCH  23  28
HETATM   28  C2  UNL     1      20.158 -13.283  20.331  1.00  0.00     0.125 C 
HETATM   29  C1  UNL     1      20.516 -11.874  19.912  1.00  0.00     0.027 C 
ENDBRANCH  23  28
ENDBRANCH  21  22
ENDBRANCH  20  21
ENDBRANCH   1  20
TORSDOF 9
ENDMDL
MODEL 5
REMARK VINA RESULT: -8.022781356      1.663      2.460
REMARK  9 active torsions:
REMARK  status: ('A' for Active; 'I' for Inactive)
REMARK    1  A    between atoms: C2_2  and  N1_3 
REMARK    2  A    between atoms: C5_8  and  C6_9 
REMARK    3  A    between atoms: C6_9  and  C7_10 
REMARK    4  A    between atoms: C7_10  and  C8_11 
REMARK    5  A    between atoms: C9_14  and  C10_15 
REMARK    6  A    between atoms: C10_15  and  N4_16 
REMARK    7  A    between atoms: N4_16  and  C11_18 
REMARK    8  A    between atoms: C11_18  and  C12_19 
REMARK    9  A    between atoms: C12_19  and  C13_20 
ROOT
HETATM    1  C8  UNL     1      17.760 -12.922  21.801  1.00  0.00     0.073 A 
HETATM    2  N3  UNL     1      17.655 -11.720  21.272  1.00  0.00    -0.344 N 
ATOM      3  H3  UNL     1      18.311 -10.940  21.322  1.00  0.00     0.167 HD
HETATM    4  C9  UNL     1      16.481 -11.779  20.658  1.00  0.00     0.092 A 
HETATM    5  S1  UNL     1      16.278 -13.352  21.167  1.00  0.00    -0.053 SA
ENDROOT
BRANCH   4   6
HETATM    6  C10 UNL     1      15.771 -10.893  19.926  1.00  0.00     0.124 C 
BRANCH   6   7
HETATM    7  N4  UNL     1      14.885  -9.981  20.539  1.00  0.00    -0.376 N 
ATOM      8  H4  UNL     1      14.994  -8.984  20.350  1.00  0.00     0.164 HD
BRANCH   7   9
HETATM    9  C11 UNL     1      13.934 -10.370  21.340  1.00  0.00     0.065 C 
BRANCH   9  10
HETATM   10  C12 UNL     1      12.802  -9.454  21.636  1.00  0.00     0.091 C 
BRANCH  10  11
HETATM   11  C13 UNL     1      11.901 -10.070  22.639  1.00  0.00     0.040 A 
HETATM   12  C14 UNL     1      11.379  -9.507  23.783  1.00  0.00     0.034 A 
HETATM   13  C15 UNL     1      11.635  -8.115  24.235  1.00  0.00     0.070 C 
HETATM   14  N5  UNL     1      10.601 -10.440  24.404  1.00  0.00    -0.302 N 
HETATM   15  N6  UNL     1      10.618 -11.555  23.698  1.00  0.00    -0.266 N 
ATOM     16  H5  UNL     1      10.089 -10.299  25.275  1.00  0.00     0.186 HD
HETATM   17  C16 UNL     1      11.395 -11.372  22.617  1.00  0.00     0.268 A 
ATOM     18  H6  UNL     1      10.122 -12.414  23.935  1.00  0.00     0.190 HD
HETATM   19  O1  UNL     1      11.672 -12.178  21.700  1.00  0.00    -0.266 OA
ENDBRANCH  10  11
ENDBRANCH   9  10
ENDBRANCH   7   9
ENDBRANCH   6   7
ENDBRANCH   4   6
BRANCH   1  20
HETATM   20  C7  UNL     1      18.655 -13.584  22.546  1.00  0.00     0.018 C 
BRANCH  20  21
HETATM   21  C6  UNL     1      20.098 -13.231  22.434  1.00  0.00     0.106 C 
BRANCH  21  22
HETATM   22  C5  UNL     1      20.921 -14.044  23.368  1.00  0.00     0.086 A 
HETATM   23  N1  UNL     1      21.115 -13.734  24.665  1.00  0.00    -0.345 N 
HETATM   24  C3  UNL     1      21.904 -14.705  25.151  1.00  0.00     0.109 A 
HETATM   25  C4  UNL     1      22.206 -15.619  24.167  1.00  0.00     0.106 A 
HETATM   26  N2  UNL     1      21.577 -15.180  23.064  1.00  0.00    -0.354 N 
ATOM     27  H2  UNL     1      21.594 -15.630  22.150  1.00  0.00     0.166 HD
BRANCH  23  28
HETATM   28  C2  UNL     1      20.574 -12.590  25.366  1.00  0.00     0.125 C 
HETATM   29  C1  UNL     1      20.859 -12.622  26.852  1.00  0.00     0.027 C 
ENDBRANCH  23  28
ENDBRANCH  21  22
ENDBRANCH  20  21
ENDBRANCH   1  20
TORSDOF 9
ENDMDL
