MODEL 1
REMARK VINA RESULT: -7.390775232      0.000      0.000
REMARK  8 active torsions:
REMARK  status: ('A' for Active; 'I' for Inactive)
REMARK       I    between atoms: C2_2  and  N1_4 
REMARK    1  A    between atoms: N1_4  and  C3_6 
REMARK    2  A    between atoms: C3_6  and  C4_7 
REMARK    3  A    between atoms: C4_7  and  N2_8 
REMARK    4  A    between atoms: N5_17  and  C8_18 
REMARK    5  A    between atoms: C8_18  and  C9_19 
REMARK    6  A    between atoms: C10_20  and  C11_21 
REMARK    7  A    between atoms: C11_21  and  C12_22 
REMARK    8  A    between atoms: C12_22  and  N6_23 
ROOT
HETATM    1  N2  UNL     1      17.438 -13.845  21.913  1.00  0.00    -0.051 N 
HETATM    2  C5  UNL     1      18.738 -13.797  21.199  1.00  0.00     0.274 C 
HETATM    3  C6  UNL     1      16.919 -15.150  21.519  1.00  0.00     0.376 C 
HETATM    4  N3  UNL     1      15.549 -15.366  21.938  1.00  0.00    -0.202 N 
ATOM      5  H3  UNL     1      15.349 -16.088  22.630  1.00  0.00     0.179 HD
HETATM    6  C7  UNL     1      14.459 -14.583  21.400  1.00  0.00     0.672 C 
HETATM    7  N4  UNL     1      13.290 -15.046  21.617  1.00  0.00    -0.235 N 
ATOM      8  H41 UNL     1      12.521 -14.494  21.237  1.00  0.00     0.174 HD
ATOM      9  H42 UNL     1      13.241 -15.918  22.145  1.00  0.00     0.174 HD
HETATM   10  N5  UNL     1      14.527 -13.361  20.660  1.00  0.00    -0.198 N 
HETATM   11  C13 UNL     1      15.767 -12.619  20.468  1.00  0.00     0.067 C 
HETATM   12  C14 UNL     1      16.378 -12.800  19.127  1.00  0.00     0.041 C 
HETATM   13  C15 UNL     1      15.300 -11.144  20.497  1.00  0.00     0.041 C 
HETATM   14  C16 UNL     1      16.675 -12.734  21.646  1.00  0.00     0.269 C 
ENDROOT
BRANCH  10  15
HETATM   15  C8  UNL     1      13.295 -12.859  20.083  1.00  0.00     0.236 C 
BRANCH  15  16
HETATM   16  C9  UNL     1      12.599 -12.141  21.177  1.00  0.00    -0.086 C 
HETATM   17  C10 UNL     1      12.022 -11.554  22.047  1.00  0.00    -0.103 C 
BRANCH  17  18
HETATM   18  C11 UNL     1      11.346 -10.845  23.106  1.00  0.00     0.115 C 
BRANCH  18  19
HETATM   19  C12 UNL     1      11.689  -9.376  23.029  1.00  0.00     0.151 C 
BRANCH  19  20
HETATM   20  N6  UNL     1      11.835  -8.829  24.349  1.00  0.00    -0.342 N 
HETATM   21  N7  UNL     1      12.370  -7.715  24.452  1.00  0.00    -0.349 N 
ATOM     22  H72 UNL     1      12.687  -7.218  23.620  1.00  0.00     0.176 HD
ATOM     23  H71 UNL     1      12.474  -7.326  25.389  1.00  0.00     0.176 HD
ATOM     24  H6  UNL     1      11.513  -9.338  25.171  1.00  0.00     0.179 HD
ENDBRANCH  19  20
ENDBRANCH  18  19
ENDBRANCH  17  18
ENDBRANCH  15  16
ENDBRANCH  10  15
BRANCH   1  25
HETATM   25  C4  UNL     1      17.765 -14.003  23.301  1.00  0.00     0.258 C 
BRANCH  25  26
HETATM   26  C3  UNL     1      19.182 -13.870  23.674  1.00  0.00     0.150 C 
BRANCH  26  27
HETATM   27  N1  UNL     1      19.369 -13.404  25.016  1.00  0.00    -0.360 N 
HETATM   28  C2  UNL     1      20.670 -13.042  25.452  1.00  0.00     0.213 C 
HETATM   29  C1  UNL     1      20.861 -12.557  26.844  1.00  0.00     0.117 C 
HETATM   30  O1  UNL     1      21.634 -13.130  24.674  1.00  0.00    -0.274 OA
ATOM     31  H1  UNL     1      18.575 -13.334  25.651  1.00  0.00     0.162 HD
ENDBRANCH  26  27
ENDBRANCH  25  26
ENDBRANCH   1  25
TORSDOF 8
ENDMDL
MODEL 2
REMARK VINA RESULT: -7.348305486      2.907      7.336
REMARK  8 active torsions:
REMARK  status: ('A' for Active; 'I' for Inactive)
REMARK       I    between atoms: C2_2  and  N1_4 
REMARK    1  A    between atoms: N1_4  and  C3_6 
REMARK    2  A    between atoms: C3_6  and  C4_7 
REMARK    3  A    between atoms: C4_7  and  N2_8 
REMARK    4  A    between atoms: N5_17  and  C8_18 
REMARK    5  A    between atoms: C8_18  and  C9_19 
REMARK    6  A    between atoms: C10_20  and  C11_21 
REMARK    7  A    between atoms: C11_21  and  C12_22 
REMARK    8  A    between atoms: C12_22  and  N6_23 
ROOT
HETATM    1  N2  UNL     1      14.021 -12.374  21.052  1.00  0.00    -0.051 N 
HETATM    2  C5  UNL     1      12.889 -12.967  20.298  1.00  0.00     0.274 C 
HETATM    3  C6  UNL     1      14.538 -11.390  20.108  1.00  0.00     0.376 C 
HETATM    4  N3  UNL     1      15.787 -10.795  20.536  1.00  0.00    -0.202 N 
ATOM      5  H3  UNL     1      15.812  -9.802  20.765  1.00  0.00     0.179 HD
HETATM    6  C7  UNL     1      17.000 -11.574  20.647  1.00  0.00     0.672 C 
HETATM    7  N4  UNL     1      18.080 -10.901  20.748  1.00  0.00    -0.235 N 
ATOM      8  H41 UNL     1      18.935 -11.451  20.826  1.00  0.00     0.174 HD
ATOM      9  H42 UNL     1      17.980  -9.886  20.740  1.00  0.00     0.174 HD
HETATM   10  N5  UNL     1      17.141 -12.998  20.658  1.00  0.00    -0.198 N 
HETATM   11  C13 UNL     1      16.002 -13.905  20.716  1.00  0.00     0.067 C 
HETATM   12  C14 UNL     1      15.655 -14.521  19.410  1.00  0.00     0.041 C 
HETATM   13  C15 UNL     1      16.530 -15.076  21.579  1.00  0.00     0.041 C 
HETATM   14  C16 UNL     1      14.878 -13.342  21.518  1.00  0.00     0.269 C 
ENDROOT
BRANCH  10  15
HETATM   15  C8  UNL     1      18.485 -13.538  20.609  1.00  0.00     0.236 C 
BRANCH  15  16
HETATM   16  C9  UNL     1      19.035 -13.383  21.976  1.00  0.00    -0.086 C 
HETATM   17  C10 UNL     1      19.497 -13.250  23.073  1.00  0.00    -0.103 C 
BRANCH  17  18
HETATM   18  C11 UNL     1      20.041 -13.106  24.402  1.00  0.00     0.115 C 
BRANCH  18  19
HETATM   19  C12 UNL     1      21.324 -13.895  24.510  1.00  0.00     0.151 C 
BRANCH  19  20
HETATM   20  N6  UNL     1      22.268 -13.451  23.522  1.00  0.00    -0.342 N 
HETATM   21  N7  UNL     1      23.466 -13.434  23.841  1.00  0.00    -0.349 N 
ATOM     22  H72 UNL     1      23.754 -13.727  24.773  1.00  0.00     0.176 HD
ATOM     23  H71 UNL     1      24.136 -13.118  23.140  1.00  0.00     0.176 HD
ATOM     24  H6  UNL     1      21.964 -13.160  22.593  1.00  0.00     0.179 HD
ENDBRANCH  19  20
ENDBRANCH  18  19
ENDBRANCH  17  18
ENDBRANCH  15  16
ENDBRANCH  10  15
BRANCH   1  25
HETATM   25  C4  UNL     1      13.423 -11.583  22.088  1.00  0.00     0.258 C 
BRANCH  25  26
HETATM   26  C3  UNL     1      12.398 -10.609  21.681  1.00  0.00     0.150 C 
BRANCH  26  27
HETATM   27  N1  UNL     1      12.491  -9.366  22.386  1.00  0.00    -0.360 N 
HETATM   28  C2  UNL     1      11.720  -9.173  23.562  1.00  0.00     0.213 C 
HETATM   29  C1  UNL     1      11.820  -7.882  24.293  1.00  0.00     0.117 C 
HETATM   30  O1  UNL     1      10.973 -10.076  23.971  1.00  0.00    -0.274 OA
ATOM     31  H1  UNL     1      13.105  -8.626  22.047  1.00  0.00     0.162 HD
ENDBRANCH  26  27
ENDBRANCH  25  26
ENDBRANCH   1  25
TORSDOF 8
ENDMDL
MODEL 3
REMARK VINA RESULT: -7.247560737      1.818      2.658
REMARK  8 active torsions:
REMARK  status: ('A' for Active; 'I' for Inactive)
REMARK       I    between atoms: C2_2  and  N1_4 
REMARK    1  A    between atoms: N1_4  and  C3_6 
REMARK    2  A    between atoms: C3_6  and  C4_7 
REMARK    3  A    between atoms: C4_7  and  N2_8 
REMARK    4  A    between atoms: N5_17  and  C8_18 
REMARK    5  A    between atoms: C8_18  and  C9_19 
REMARK    6  A    between atoms: C10_20  and  C11_21 
REMARK    7  A    between atoms: C11_21  and  C12_22 
REMARK    8  A    between atoms: C12_22  and  N6_23 
ROOT
HETATM    1  N2  UNL     1      17.243 -15.007  21.590  1.00  0.00    -0.051 N 
HETATM    2  C5  UNL     1      16.790 -16.128  22.452  1.00  0.00     0.274 C 
HETATM    3  C6  UNL     1      17.193 -13.875  22.508  1.00  0.00     0.376 C 
HETATM    4  N3  UNL     1      17.409 -12.602  21.851  1.00  0.00    -0.202 N 
ATOM      5  H3  UNL     1      18.246 -12.064  22.074  1.00  0.00     0.179 HD
HETATM    6  C7  UNL     1      16.469 -12.077  20.886  1.00  0.00     0.672 C 
HETATM    7  N4  UNL     1      16.610 -10.842  20.596  1.00  0.00    -0.235 N 
ATOM      8  H41 UNL     1      15.947 -10.472  19.916  1.00  0.00     0.174 HD
ATOM      9  H42 UNL     1      17.367 -10.352  21.072  1.00  0.00     0.174 HD
HETATM   10  N5  UNL     1      15.406 -12.765  20.219  1.00  0.00    -0.198 N 
HETATM   11  C13 UNL     1      15.214 -14.207  20.314  1.00  0.00     0.067 C 
HETATM   12  C14 UNL     1      14.128 -14.610  21.242  1.00  0.00     0.041 C 
HETATM   13  C15 UNL     1      14.695 -14.584  18.906  1.00  0.00     0.041 C 
HETATM   14  C16 UNL     1      16.509 -14.937  20.430  1.00  0.00     0.269 C 
ENDROOT
BRANCH  10  15
HETATM   15  C8  UNL     1      14.493 -11.971  19.420  1.00  0.00     0.236 C 
BRANCH  15  16
HETATM   16  C9  UNL     1      13.546 -11.356  20.380  1.00  0.00    -0.086 C 
HETATM   17  C10 UNL     1      12.794 -10.860  21.169  1.00  0.00    -0.103 C 
BRANCH  17  18
HETATM   18  C11 UNL     1      11.873 -10.270  22.109  1.00  0.00     0.115 C 
BRANCH  18  19
HETATM   19  C12 UNL     1      11.280 -11.351  22.980  1.00  0.00     0.151 C 
BRANCH  19  20
HETATM   20  N6  UNL     1      10.489 -10.769  24.029  1.00  0.00    -0.342 N 
HETATM   21  N7  UNL     1      10.650  -9.563  24.267  1.00  0.00    -0.349 N 
ATOM     22  H72 UNL     1      11.322  -9.018  23.728  1.00  0.00     0.176 HD
ATOM     23  H71 UNL     1      10.089  -9.150  25.011  1.00  0.00     0.176 HD
ATOM     24  H6  UNL     1       9.821 -11.328  24.560  1.00  0.00     0.179 HD
ENDBRANCH  19  20
ENDBRANCH  18  19
ENDBRANCH  17  18
ENDBRANCH  15  16
ENDBRANCH  10  15
BRANCH   1  25
HETATM   25  C4  UNL     1      18.644 -15.224  21.378  1.00  0.00     0.258 C 
BRANCH  25  26
HETATM   26  C3  UNL     1      19.436 -15.672  22.534  1.00  0.00     0.150 C 
BRANCH  26  27
HETATM   27  N1  UNL     1      20.716 -15.037  22.620  1.00  0.00    -0.360 N 
HETATM   28  C2  UNL     1      20.948 -14.075  23.638  1.00  0.00     0.213 C 
HETATM   29  C1  UNL     1      22.279 -13.418  23.727  1.00  0.00     0.117 C 
HETATM   30  O1  UNL     1      20.047 -13.790  24.443  1.00  0.00    -0.274 OA
ATOM     31  H1  UNL     1      21.454 -15.273  21.957  1.00  0.00     0.162 HD
ENDBRANCH  26  27
ENDBRANCH  25  26
ENDBRANCH   1  25
TORSDOF 8
ENDMDL
MODEL 4
REMARK VINA RESULT: -7.229824484      1.260      1.382
REMARK  8 active torsions:
REMARK  status: ('A' for Active; 'I' for Inactive)
REMARK       I    between atoms: C2_2  and  N1_4 
REMARK    1  A    between atoms: N1_4  and  C3_6 
REMARK    2  A    between atoms: C3_6  and  C4_7 
REMARK    3  A    between atoms: C4_7  and  N2_8 
REMARK    4  A    between atoms: N5_17  and  C8_18 
REMARK    5  A    between atoms: C8_18  and  C9_19 
REMARK    6  A    between atoms: C10_20  and  C11_21 
REMARK    7  A    between atoms: C11_21  and  C12_22 
REMARK    8  A    between atoms: C12_22  and  N6_23 
ROOT
HETATM    1  N2  UNL     1      17.436 -13.733  22.065  1.00  0.00    -0.051 N 
HETATM    2  C5  UNL     1      18.798 -13.981  21.529  1.00  0.00     0.274 C 
HETATM    3  C6  UNL     1      16.728 -14.949  21.682  1.00  0.00     0.376 C 
HETATM    4  N3  UNL     1      15.302 -14.876  21.925  1.00  0.00    -0.202 N 
ATOM      5  H3  UNL     1      14.886 -15.490  22.625  1.00  0.00     0.179 HD
HETATM    6  C7  UNL     1      14.455 -13.955  21.201  1.00  0.00     0.672 C 
HETATM    7  N4  UNL     1      13.201 -14.178  21.286  1.00  0.00    -0.235 N 
ATOM      8  H41 UNL     1      12.604 -13.528  20.775  1.00  0.00     0.174 HD
ATOM      9  H42 UNL     1      12.924 -14.979  21.853  1.00  0.00     0.174 HD
HETATM   10  N5  UNL     1      14.845 -12.831  20.406  1.00  0.00    -0.198 N 
HETATM   11  C13 UNL     1      16.217 -12.346  20.340  1.00  0.00     0.067 C 
HETATM   12  C14 UNL     1      16.939 -12.746  19.105  1.00  0.00     0.041 C 
HETATM   13  C15 UNL     1      16.041 -10.813  20.219  1.00  0.00     0.041 C 
HETATM   14  C16 UNL     1      16.938 -12.527  21.633  1.00  0.00     0.269 C 
ENDROOT
BRANCH  10  15
HETATM   15  C8  UNL     1      13.810 -12.162  19.642  1.00  0.00     0.236 C 
BRANCH  15  16
HETATM   16  C9  UNL     1      13.178 -11.196  20.572  1.00  0.00    -0.086 C 
HETATM   17  C10 UNL     1      12.654 -10.430  21.328  1.00  0.00    -0.103 C 
BRANCH  17  18
HETATM   18  C11 UNL     1      12.029  -9.491  22.227  1.00  0.00     0.115 C 
BRANCH  18  19
HETATM   19  C12 UNL     1      11.575 -10.212  23.474  1.00  0.00     0.151 C 
BRANCH  19  20
HETATM   20  N6  UNL     1      10.810 -11.378  23.126  1.00  0.00    -0.342 N 
HETATM   21  N7  UNL     1      10.099 -11.882  24.007  1.00  0.00    -0.349 N 
ATOM     22  H72 UNL     1      10.069 -11.472  24.940  1.00  0.00     0.176 HD
ATOM     23  H71 UNL     1       9.556 -12.709  23.760  1.00  0.00     0.176 HD
ATOM     24  H6  UNL     1      10.852 -11.776  22.188  1.00  0.00     0.179 HD
ENDBRANCH  19  20
ENDBRANCH  18  19
ENDBRANCH  17  18
ENDBRANCH  15  16
ENDBRANCH  10  15
BRANCH   1  25
HETATM   25  C4  UNL     1      17.557 -13.833  23.490  1.00  0.00     0.258 C 
BRANCH  25  26
HETATM   26  C3  UNL     1      18.785 -14.449  24.017  1.00  0.00     0.150 C 
BRANCH  26  27
HETATM   27  N1  UNL     1      19.186 -13.913  25.283  1.00  0.00    -0.360 N 
HETATM   28  C2  UNL     1      20.407 -13.195  25.379  1.00  0.00     0.213 C 
HETATM   29  C1  UNL     1      20.820 -12.637  26.693  1.00  0.00     0.117 C 
HETATM   30  O1  UNL     1      21.117 -13.037  24.373  1.00  0.00    -0.274 OA
ATOM     31  H1  UNL     1      18.601 -14.045  26.107  1.00  0.00     0.162 HD
ENDBRANCH  26  27
ENDBRANCH  25  26
ENDBRANCH   1  25
TORSDOF 8
ENDMDL
MODEL 5
REMARK VINA RESULT: -7.118976911      2.869      7.440
REMARK  8 active torsions:
REMARK  status: ('A' for Active; 'I' for Inactive)
REMARK       I    between atoms: C2_2  and  N1_4 
REMARK    1  A    between atoms: N1_4  and  C3_6 
REMARK    2  A    between atoms: C3_6  and  C4_7 
REMARK    3  A    between atoms: C4_7  and  N2_8 
REMARK    4  A    between atoms: N5_17  and  C8_18 
REMARK    5  A    between atoms: C8_18  and  C9_19 
REMARK    6  A    between atoms: C10_20  and  C11_21 
REMARK    7  A    between atoms: C11_21  and  C12_22 
REMARK    8  A    between atoms: C12_22  and  N6_23 
ROOT
HETATM    1  N2  UNL     1      14.991 -12.097  20.645  1.00  0.00    -0.051 N 
HETATM    2  C5  UNL     1      13.768 -12.691  20.050  1.00  0.00     0.274 C 
HETATM    3  C6  UNL     1      15.737 -11.680  19.463  1.00  0.00     0.376 C 
HETATM    4  N3  UNL     1      17.081 -11.234  19.769  1.00  0.00    -0.202 N 
ATOM      5  H3  UNL     1      17.327 -10.257  19.615  1.00  0.00     0.179 HD
HETATM    6  C7  UNL     1      18.081 -12.141  20.287  1.00  0.00     0.672 C 
HETATM    7  N4  UNL     1      19.284 -11.715  20.243  1.00  0.00    -0.235 N 
ATOM      8  H41 UNL     1      19.990 -12.355  20.609  1.00  0.00     0.174 HD
ATOM      9  H42 UNL     1      19.418 -10.784  19.850  1.00  0.00     0.174 HD
HETATM   10  N5  UNL     1      17.893 -13.447  20.839  1.00  0.00    -0.198 N 
HETATM   11  C13 UNL     1      16.576 -14.010  21.109  1.00  0.00     0.067 C 
HETATM   12  C14 UNL     1      16.122 -14.995  20.095  1.00  0.00     0.041 C 
HETATM   13  C15 UNL     1      16.807 -14.840  22.394  1.00  0.00     0.041 C 
HETATM   14  C16 UNL     1      15.595 -12.966  21.523  1.00  0.00     0.269 C 
ENDROOT
BRANCH  10  15
HETATM   15  C8  UNL     1      19.079 -14.226  21.134  1.00  0.00     0.236 C 
BRANCH  15  16
HETATM   16  C9  UNL     1      19.566 -13.742  22.448  1.00  0.00    -0.086 C 
HETATM   17  C10 UNL     1      19.975 -13.365  23.508  1.00  0.00    -0.103 C 
BRANCH  17  18
HETATM   18  C11 UNL     1      20.448 -12.904  24.791  1.00  0.00     0.115 C 
BRANCH  18  19
HETATM   19  C12 UNL     1      21.675 -13.690  25.188  1.00  0.00     0.151 C 
BRANCH  19  20
HETATM   20  N6  UNL     1      22.860 -13.049  24.688  1.00  0.00    -0.342 N 
HETATM   21  N7  UNL     1      23.606 -13.714  23.955  1.00  0.00    -0.349 N 
ATOM     22  H72 UNL     1      23.373 -14.680  23.724  1.00  0.00     0.176 HD
ATOM     23  H71 UNL     1      24.447 -13.260  23.601  1.00  0.00     0.176 HD
ATOM     24  H6  UNL     1      23.080 -12.083  24.929  1.00  0.00     0.179 HD
ENDBRANCH  19  20
ENDBRANCH  18  19
ENDBRANCH  17  18
ENDBRANCH  15  16
ENDBRANCH  10  15
BRANCH   1  25
HETATM   25  C4  UNL     1      14.570 -10.866  21.246  1.00  0.00     0.258 C 
BRANCH  25  26
HETATM   26  C3  UNL     1      13.215 -10.392  20.924  1.00  0.00     0.150 C 
BRANCH  26  27
HETATM   27  N1  UNL     1      12.623  -9.619  21.976  1.00  0.00    -0.360 N 
HETATM   28  C2  UNL     1      11.728 -10.246  22.881  1.00  0.00     0.213 C 
HETATM   29  C1  UNL     1      11.117  -9.442  23.972  1.00  0.00     0.117 C 
HETATM   30  O1  UNL     1      11.462 -11.453  22.757  1.00  0.00    -0.274 OA
ATOM     31  H1  UNL     1      12.844  -8.629  22.073  1.00  0.00     0.162 HD
ENDBRANCH  26  27
ENDBRANCH  25  26
ENDBRANCH   1  25
TORSDOF 8
ENDMDL
