MODEL 1
REMARK VINA RESULT: -8.136389412      0.000      0.000
REMARK  10 active torsions:
REMARK  status: ('A' for Active; 'I' for Inactive)
REMARK    1  A    between atoms: C2_2  and  C3_3 
REMARK    2  A    between atoms: C3_3  and  C4_4 
REMARK    3  A    between atoms: C4_4  and  C5_5 
REMARK    4  A    between atoms: C5_5  and  C6_6 
REMARK    5  A    between atoms: C6_6  and  N1_7 
REMARK    6  A    between atoms: C7_8  and  C8_9 
REMARK    7  A    between atoms: C8_9  and  O1_10 
REMARK    8  A    between atoms: C11_14  and  C12_15 
REMARK    9  A    between atoms: C12_15  and  N2_16 
REMARK   10  A    between atoms: N4_23  and  O3_25 
ROOT
HETATM    1  N1  UNL     1      15.081 -13.608  20.832  1.00  0.00    -0.351 N 
HETATM    2  C7  UNL     1      14.149 -14.552  21.030  1.00  0.00     0.035 A 
HETATM    3  C9  UNL     1      12.804 -14.173  21.090  1.00  0.00     0.028 A 
HETATM    4  C10 UNL     1      12.413 -12.863  20.951  1.00  0.00     0.013 A 
HETATM    5  C11 UNL     1      13.391 -11.919  20.750  1.00  0.00    -0.016 A 
HETATM    6  C16 UNL     1      14.723 -12.313  20.693  1.00  0.00     0.016 A 
HETATM    7  C17 UNL     1      15.704 -11.233  20.468  1.00  0.00     0.069 C 
ENDROOT
BRANCH   5   8
HETATM    8  C12 UNL     1      12.983 -10.503  20.599  1.00  0.00     0.189 C 
BRANCH   8   9
HETATM    9  N2  UNL     1      12.560  -9.932  21.857  1.00  0.00    -0.280 N 
HETATM   10  C13 UNL     1      13.035  -8.757  22.308  1.00  0.00     0.185 A 
HETATM   11  C14 UNL     1      12.602  -8.258  23.512  1.00  0.00     0.276 A 
HETATM   12  O2  UNL     1      13.033  -7.162  23.949  1.00  0.00    -0.266 OA
HETATM   13  N3  UNL     1      11.702  -8.964  24.221  1.00  0.00    -0.152 N 
HETATM   14  C15 UNL     1      11.235 -10.137  23.760  1.00  0.00     0.719 A 
ATOM     15  H3  UNL     1      11.370  -8.605  25.116  1.00  0.00     0.188 HD
HETATM   16  N4  UNL     1      10.377 -10.816  24.430  1.00  0.00    -0.097 N 
HETATM   17  N5  UNL     1      11.680 -10.591  22.582  1.00  0.00    -0.128 N 
ATOM     18  H4  UNL     1      10.042 -10.464  25.327  1.00  0.00     0.213 HD
ATOM     19  H5  UNL     1      11.323 -11.481  22.233  1.00  0.00     0.206 HD
BRANCH  16  20
HETATM   20  O3  UNL     1       9.909 -12.011  23.949  1.00  0.00    -0.276 OA
ATOM     21  H3  UNL     1       9.317 -12.541  24.470  1.00  0.00     0.245 HD
ENDBRANCH  16  20
ENDBRANCH   8   9
ENDBRANCH   5   8
BRANCH   1  22
HETATM   22  C6  UNL     1      16.456 -13.976  20.764  1.00  0.00     0.132 C 
BRANCH  22  23
HETATM   23  C5  UNL     1      17.188 -13.934  22.062  1.00  0.00     0.047 C 
BRANCH  23  24
HETATM   24  C4  UNL     1      18.612 -13.615  21.816  1.00  0.00    -0.025 C 
BRANCH  24  25
HETATM   25  C3  UNL     1      19.030 -12.632  21.040  1.00  0.00    -0.005 C 
BRANCH  25  26
HETATM   26  C2  UNL     1      20.180 -12.797  20.146  1.00  0.00    -0.011 C 
HETATM   27  C1  UNL     1      20.498 -11.907  19.235  1.00  0.00     0.011 C 
ENDBRANCH  25  26
ENDBRANCH  24  25
ENDBRANCH  23  24
ENDBRANCH  22  23
ENDBRANCH   1  22
BRANCH   2  28
HETATM   28  C8  UNL     1      14.403 -15.981  21.202  1.00  0.00     0.221 C 
BRANCH  28  29
HETATM   29  O1  UNL     1      13.966 -16.345  22.495  1.00  0.00    -0.395 OA
ATOM     30  H1  UNL     1      14.737 -16.523  23.023  1.00  0.00     0.209 HD
ENDBRANCH  28  29
ENDBRANCH   2  28
TORSDOF 10
ENDMDL
MODEL 2
REMARK VINA RESULT: -7.708306202      2.957      4.781
REMARK  10 active torsions:
REMARK  status: ('A' for Active; 'I' for Inactive)
REMARK    1  A    between atoms: C2_2  and  C3_3 
REMARK    2  A    between atoms: C3_3  and  C4_4 
REMARK    3  A    between atoms: C4_4  and  C5_5 
REMARK    4  A    between atoms: C5_5  and  C6_6 
REMARK    5  A    between atoms: C6_6  and  N1_7 
REMARK    6  A    between atoms: C7_8  and  C8_9 
REMARK    7  A    between atoms: C8_9  and  O1_10 
REMARK    8  A    between atoms: C11_14  and  C12_15 
REMARK    9  A    between atoms: C12_15  and  N2_16 
REMARK   10  A    between atoms: N4_23  and  O3_25 
ROOT
HETATM    1  N1  UNL     1      18.243 -13.361  20.844  1.00  0.00    -0.351 N 
HETATM    2  C7  UNL     1      18.808 -12.511  19.973  1.00  0.00     0.035 A 
HETATM    3  C9  UNL     1      17.997 -11.871  19.030  1.00  0.00     0.028 A 
HETATM    4  C10 UNL     1      16.641 -12.089  18.972  1.00  0.00     0.013 A 
HETATM    5  C11 UNL     1      16.093 -12.966  19.877  1.00  0.00    -0.016 A 
HETATM    6  C16 UNL     1      16.913 -13.592  20.808  1.00  0.00     0.016 A 
HETATM    7  C17 UNL     1      16.238 -14.513  21.743  1.00  0.00     0.069 C 
ENDROOT
BRANCH   5   8
HETATM    8  C12 UNL     1      14.633 -13.211  19.825  1.00  0.00     0.189 C 
BRANCH   8   9
HETATM    9  N2  UNL     1      13.902 -12.256  20.625  1.00  0.00    -0.280 N 
HETATM   10  C13 UNL     1      12.875 -12.618  21.415  1.00  0.00     0.185 A 
HETATM   11  C14 UNL     1      12.211 -11.670  22.155  1.00  0.00     0.276 A 
HETATM   12  O2  UNL     1      11.250 -11.989  22.899  1.00  0.00    -0.266 OA
HETATM   13  N3  UNL     1      12.608 -10.387  22.072  1.00  0.00    -0.152 N 
HETATM   14  C15 UNL     1      13.635 -10.038  21.280  1.00  0.00     0.719 A 
ATOM     15  H3  UNL     1      12.124  -9.673  22.617  1.00  0.00     0.188 HD
HETATM   16  N4  UNL     1      14.018  -8.816  21.194  1.00  0.00    -0.097 N 
HETATM   17  N5  UNL     1      14.258 -10.988  20.573  1.00  0.00    -0.128 N 
ATOM     18  H4  UNL     1      13.539  -8.096  21.735  1.00  0.00     0.213 HD
ATOM     19  H5  UNL     1      15.038 -10.721  19.973  1.00  0.00     0.206 HD
BRANCH  16  20
HETATM   20  O3  UNL     1      15.068  -8.473  20.382  1.00  0.00    -0.276 OA
ATOM     21  H3  UNL     1      15.897  -8.930  20.449  1.00  0.00     0.245 HD
ENDBRANCH  16  20
ENDBRANCH   8   9
ENDBRANCH   5   8
BRANCH   1  22
HETATM   22  C6  UNL     1      19.054 -14.018  21.815  1.00  0.00     0.132 C 
BRANCH  22  23
HETATM   23  C5  UNL     1      19.404 -13.196  23.008  1.00  0.00     0.047 C 
BRANCH  23  24
HETATM   24  C4  UNL     1      18.908 -13.865  24.232  1.00  0.00    -0.025 C 
BRANCH  24  25
HETATM   25  C3  UNL     1      19.535 -13.849  25.393  1.00  0.00    -0.005 C 
BRANCH  25  26
HETATM   26  C2  UNL     1      20.513 -12.808  25.723  1.00  0.00    -0.011 C 
HETATM   27  C1  UNL     1      20.854 -12.529  26.960  1.00  0.00     0.011 C 
ENDBRANCH  25  26
ENDBRANCH  24  25
ENDBRANCH  23  24
ENDBRANCH  22  23
ENDBRANCH   1  22
BRANCH   2  28
HETATM   28  C8  UNL     1      20.229 -12.179  19.902  1.00  0.00     0.221 C 
BRANCH  28  29
HETATM   29  O1  UNL     1      20.529 -11.849  18.561  1.00  0.00    -0.395 OA
ATOM     30  H1  UNL     1      20.797 -12.646  18.119  1.00  0.00     0.209 HD
ENDBRANCH  28  29
ENDBRANCH   2  28
TORSDOF 10
ENDMDL
MODEL 3
REMARK VINA RESULT: -7.580067930      2.948      4.298
REMARK  10 active torsions:
REMARK  status: ('A' for Active; 'I' for Inactive)
REMARK    1  A    between atoms: C2_2  and  C3_3 
REMARK    2  A    between atoms: C3_3  and  C4_4 
REMARK    3  A    between atoms: C4_4  and  C5_5 
REMARK    4  A    between atoms: C5_5  and  C6_6 
REMARK    5  A    between atoms: C6_6  and  N1_7 
REMARK    6  A    between atoms: C7_8  and  C8_9 
REMARK    7  A    between atoms: C8_9  and  O1_10 
REMARK    8  A    between atoms: C11_14  and  C12_15 
REMARK    9  A    between atoms: C12_15  and  N2_16 
REMARK   10  A    between atoms: N4_23  and  O3_25 
ROOT
HETATM    1  N1  UNL     1      18.360 -13.343  21.099  1.00  0.00    -0.351 N 
HETATM    2  C7  UNL     1      18.889 -12.580  20.131  1.00  0.00     0.035 A 
HETATM    3  C9  UNL     1      18.032 -11.923  19.242  1.00  0.00     0.028 A 
HETATM    4  C10 UNL     1      16.666 -12.038  19.334  1.00  0.00     0.013 A 
HETATM    5  C11 UNL     1      16.154 -12.828  20.336  1.00  0.00    -0.016 A 
HETATM    6  C16 UNL     1      17.020 -13.472  21.211  1.00  0.00     0.016 A 
HETATM    7  C17 UNL     1      16.383 -14.294  22.259  1.00  0.00     0.069 C 
ENDROOT
BRANCH   5   8
HETATM    8  C12 UNL     1      14.683 -12.961  20.446  1.00  0.00     0.189 C 
BRANCH   8   9
HETATM    9  N2  UNL     1      14.061 -11.719  20.841  1.00  0.00    -0.280 N 
HETATM   10  C13 UNL     1      14.554 -10.521  20.476  1.00  0.00     0.185 A 
HETATM   11  C14 UNL     1      13.926  -9.369  20.881  1.00  0.00     0.276 A 
HETATM   12  O2  UNL     1      14.371  -8.241  20.549  1.00  0.00    -0.266 OA
HETATM   13  N3  UNL     1      12.820  -9.464  21.641  1.00  0.00    -0.152 N 
HETATM   14  C15 UNL     1      12.338 -10.666  21.999  1.00  0.00     0.719 A 
ATOM     15  H3  UNL     1      12.343  -8.617  21.947  1.00  0.00     0.188 HD
HETATM   16  N4  UNL     1      11.284 -10.765  22.725  1.00  0.00    -0.097 N 
HETATM   17  N5  UNL     1      12.975 -11.768  21.587  1.00  0.00    -0.128 N 
ATOM     18  H4  UNL     1      10.802  -9.922  23.036  1.00  0.00     0.213 HD
ATOM     19  H5  UNL     1      12.607 -12.679  21.859  1.00  0.00     0.206 HD
BRANCH  16  20
HETATM   20  O3  UNL     1      10.802 -11.998  23.084  1.00  0.00    -0.276 OA
ATOM     21  H3  UNL     1      10.188 -12.083  23.803  1.00  0.00     0.245 HD
ENDBRANCH  16  20
ENDBRANCH   8   9
ENDBRANCH   5   8
BRANCH   1  22
HETATM   22  C6  UNL     1      19.218 -14.015  22.017  1.00  0.00     0.132 C 
BRANCH  22  23
HETATM   23  C5  UNL     1      19.548 -13.249  23.253  1.00  0.00     0.047 C 
BRANCH  23  24
HETATM   24  C4  UNL     1      20.972 -13.459  23.599  1.00  0.00    -0.025 C 
BRANCH  24  25
HETATM   25  C3  UNL     1      21.490 -13.222  24.789  1.00  0.00    -0.005 C 
BRANCH  25  26
HETATM   26  C2  UNL     1      20.803 -12.376  25.770  1.00  0.00    -0.011 C 
HETATM   27  C1  UNL     1      20.851 -12.613  27.061  1.00  0.00     0.011 C 
ENDBRANCH  25  26
ENDBRANCH  24  25
ENDBRANCH  23  24
ENDBRANCH  22  23
ENDBRANCH   1  22
BRANCH   2  28
HETATM   28  C8  UNL     1      20.316 -12.362  19.898  1.00  0.00     0.221 C 
BRANCH  28  29
HETATM   29  O1  UNL     1      20.471 -11.891  18.576  1.00  0.00    -0.395 OA
ATOM     30  H1  UNL     1      19.982 -12.470  18.002  1.00  0.00     0.209 HD
ENDBRANCH  28  29
ENDBRANCH   2  28
TORSDOF 10
ENDMDL
MODEL 4
REMARK VINA RESULT: -7.560874360      4.862      8.416
REMARK  10 active torsions:
REMARK  status: ('A' for Active; 'I' for Inactive)
REMARK    1  A    between atoms: C2_2  and  C3_3 
REMARK    2  A    between atoms: C3_3  and  C4_4 
REMARK    3  A    between atoms: C4_4  and  C5_5 
REMARK    4  A    between atoms: C5_5  and  C6_6 
REMARK    5  A    between atoms: C6_6  and  N1_7 
REMARK    6  A    between atoms: C7_8  and  C8_9 
REMARK    7  A    between atoms: C8_9  and  O1_10 
REMARK    8  A    between atoms: C11_14  and  C12_15 
REMARK    9  A    between atoms: C12_15  and  N2_16 
REMARK   10  A    between atoms: N4_23  and  O3_25 
ROOT
HETATM    1  N1  UNL     1      17.229 -13.452  20.746  1.00  0.00    -0.351 N 
HETATM    2  C7  UNL     1      17.790 -12.519  19.961  1.00  0.00     0.035 A 
HETATM    3  C9  UNL     1      19.182 -12.385  19.958  1.00  0.00     0.028 A 
HETATM    4  C10 UNL     1      19.988 -13.181  20.735  1.00  0.00     0.013 A 
HETATM    5  C11 UNL     1      19.384 -14.126  21.529  1.00  0.00    -0.016 A 
HETATM    6  C16 UNL     1      18.000 -14.246  21.519  1.00  0.00     0.016 A 
HETATM    7  C17 UNL     1      17.438 -15.291  22.398  1.00  0.00     0.069 C 
ENDROOT
BRANCH   5   8
HETATM    8  C12 UNL     1      20.242 -14.990  22.373  1.00  0.00     0.189 C 
BRANCH   8   9
HETATM    9  N2  UNL     1      20.983 -14.221  23.346  1.00  0.00    -0.280 N 
HETATM   10  C13 UNL     1      20.375 -13.514  24.316  1.00  0.00     0.185 A 
HETATM   11  C14 UNL     1      21.126 -12.797  25.215  1.00  0.00     0.276 A 
HETATM   12  O2  UNL     1      20.577 -12.131  26.128  1.00  0.00    -0.266 OA
HETATM   13  N3  UNL     1      22.467 -12.820  25.105  1.00  0.00    -0.152 N 
HETATM   14  C15 UNL     1      23.062 -13.530  24.132  1.00  0.00     0.719 A 
ATOM     15  H3  UNL     1      23.037 -12.293  25.766  1.00  0.00     0.188 HD
HETATM   16  N4  UNL     1      24.340 -13.555  24.019  1.00  0.00    -0.097 N 
HETATM   17  N5  UNL     1      22.299 -14.216  23.273  1.00  0.00    -0.128 N 
ATOM     18  H4  UNL     1      24.917 -13.030  24.677  1.00  0.00     0.213 HD
ATOM     19  H5  UNL     1      22.752 -14.755  22.536  1.00  0.00     0.206 HD
BRANCH  16  20
HETATM   20  O3  UNL     1      24.935 -14.284  23.022  1.00  0.00    -0.276 OA
ATOM     21  H3  UNL     1      25.777 -14.699  23.167  1.00  0.00     0.245 HD
ENDBRANCH  16  20
ENDBRANCH   8   9
ENDBRANCH   5   8
BRANCH   1  22
HETATM   22  C6  UNL     1      15.812 -13.606  20.757  1.00  0.00     0.132 C 
BRANCH  22  23
HETATM   23  C5  UNL     1      15.085 -12.699  21.692  1.00  0.00     0.047 C 
BRANCH  23  24
HETATM   24  C4  UNL     1      13.758 -12.368  21.126  1.00  0.00    -0.025 C 
BRANCH  24  25
HETATM   25  C3  UNL     1      13.417 -11.172  20.682  1.00  0.00    -0.005 C 
BRANCH  25  26
HETATM   26  C2  UNL     1      13.153 -10.060  21.600  1.00  0.00    -0.011 C 
HETATM   27  C1  UNL     1      11.947  -9.781  22.040  1.00  0.00     0.011 C 
ENDBRANCH  25  26
ENDBRANCH  24  25
ENDBRANCH  23  24
ENDBRANCH  22  23
ENDBRANCH   1  22
BRANCH   2  28
HETATM   28  C8  UNL     1      17.072 -11.595  19.085  1.00  0.00     0.221 C 
BRANCH  28  29
HETATM   29  O1  UNL     1      16.735 -10.453  19.844  1.00  0.00    -0.395 OA
ATOM     30  H1  UNL     1      16.329  -9.824  19.259  1.00  0.00     0.209 HD
ENDBRANCH  28  29
ENDBRANCH   2  28
TORSDOF 10
ENDMDL
MODEL 5
REMARK VINA RESULT: -7.517329805      2.543      3.372
REMARK  10 active torsions:
REMARK  status: ('A' for Active; 'I' for Inactive)
REMARK    1  A    between atoms: C2_2  and  C3_3 
REMARK    2  A    between atoms: C3_3  and  C4_4 
REMARK    3  A    between atoms: C4_4  and  C5_5 
REMARK    4  A    between atoms: C5_5  and  C6_6 
REMARK    5  A    between atoms: C6_6  and  N1_7 
REMARK    6  A    between atoms: C7_8  and  C8_9 
REMARK    7  A    between atoms: C8_9  and  O1_10 
REMARK    8  A    between atoms: C11_14  and  C12_15 
REMARK    9  A    between atoms: C12_15  and  N2_16 
REMARK   10  A    between atoms: N4_23  and  O3_25 
ROOT
HETATM    1  N1  UNL     1      16.986 -12.046  19.425  1.00  0.00    -0.351 N 
HETATM    2  C7  UNL     1      16.598 -11.867  18.154  1.00  0.00     0.035 A 
HETATM    3  C9  UNL     1      15.240 -11.980  17.838  1.00  0.00     0.028 A 
HETATM    4  C10 UNL     1      14.295 -12.268  18.793  1.00  0.00     0.013 A 
HETATM    5  C11 UNL     1      14.724 -12.447  20.087  1.00  0.00    -0.016 A 
HETATM    6  C16 UNL     1      16.077 -12.331  20.383  1.00  0.00     0.016 A 
HETATM    7  C17 UNL     1      16.446 -12.533  21.798  1.00  0.00     0.069 C 
ENDROOT
BRANCH   5   8
HETATM    8  C12 UNL     1      13.716 -12.760  21.127  1.00  0.00     0.189 C 
BRANCH   8   9
HETATM    9  N2  UNL     1      13.176 -11.562  21.725  1.00  0.00    -0.280 N 
HETATM   10  C13 UNL     1      13.730 -10.351  21.534  1.00  0.00     0.185 A 
HETATM   11  C14 UNL     1      13.179  -9.242  22.128  1.00  0.00     0.276 A 
HETATM   12  O2  UNL     1      13.682  -8.103  21.961  1.00  0.00    -0.266 OA
HETATM   13  N3  UNL     1      12.085  -9.394  22.896  1.00  0.00    -0.152 N 
HETATM   14  C15 UNL     1      11.541 -10.608  23.080  1.00  0.00     0.719 A 
ATOM     15  H3  UNL     1      11.665  -8.579  23.343  1.00  0.00     0.188 HD
HETATM   16  N4  UNL     1      10.498 -10.761  23.812  1.00  0.00    -0.097 N 
HETATM   17  N5  UNL     1      12.105 -11.666  22.485  1.00  0.00    -0.128 N 
ATOM     18  H4  UNL     1      10.072  -9.951  24.263  1.00  0.00     0.213 HD
ATOM     19  H5  UNL     1      11.689 -12.587  22.625  1.00  0.00     0.206 HD
BRANCH  16  20
HETATM   20  O3  UNL     1       9.952 -12.006  23.992  1.00  0.00    -0.276 OA
ATOM     21  H3  UNL     1      10.187 -12.722  23.414  1.00  0.00     0.245 HD
ENDBRANCH  16  20
ENDBRANCH   8   9
ENDBRANCH   5   8
BRANCH   1  22
HETATM   22  C6  UNL     1      18.365 -11.930  19.766  1.00  0.00     0.132 C 
BRANCH  22  23
HETATM   23  C5  UNL     1      19.006 -13.187  20.248  1.00  0.00     0.047 C 
BRANCH  23  24
HETATM   24  C4  UNL     1      20.269 -12.860  20.947  1.00  0.00    -0.025 C 
BRANCH  24  25
HETATM   25  C3  UNL     1      20.627 -13.368  22.111  1.00  0.00    -0.005 C 
BRANCH  25  26
HETATM   26  C2  UNL     1      19.696 -13.426  23.242  1.00  0.00    -0.011 C 
HETATM   27  C1  UNL     1      20.036 -13.055  24.455  1.00  0.00     0.011 C 
ENDBRANCH  25  26
ENDBRANCH  24  25
ENDBRANCH  23  24
ENDBRANCH  22  23
ENDBRANCH   1  22
BRANCH   2  28
HETATM   28  C8  UNL     1      17.477 -11.562  17.027  1.00  0.00     0.221 C 
BRANCH  28  29
HETATM   29  O1  UNL     1      16.894 -10.500  16.299  1.00  0.00    -0.395 OA
ATOM     30  H1  UNL     1      17.318 -10.464  15.449  1.00  0.00     0.209 HD
ENDBRANCH  28  29
ENDBRANCH   2  28
TORSDOF 10
ENDMDL
