MODEL 1
REMARK VINA RESULT: -8.222019395      0.000      0.000
REMARK  6 active torsions:
REMARK  status: ('A' for Active; 'I' for Inactive)
REMARK    1  A    between atoms: O1_2  and  C2_3 
REMARK    2  A    between atoms: C2_3  and  C3_5 
REMARK    3  A    between atoms: C7_11  and  C8_12 
REMARK    4  A    between atoms: C8_12  and  O5_14 
REMARK    5  A    between atoms: O5_14  and  N2_15 
REMARK    6  A    between atoms: N2_15  and  C9_17 
ROOT
HETATM    1  C3  UNL     1      52.170  -8.189  42.804  1.00  0.00     0.187 C 
HETATM    2  C4  UNL     1      53.334  -8.165  43.775  1.00  0.00     0.035 C 
HETATM    3  C5  UNL     1      53.605  -6.809  44.336  1.00  0.00     0.038 C 
HETATM    4  C6  UNL     1      52.532  -5.828  43.921  1.00  0.00     0.175 C 
HETATM    5  O3  UNL     1      51.294  -6.435  44.046  1.00  0.00    -0.294 OA
HETATM    6  N1  UNL     1      51.440  -6.953  42.801  1.00  0.00    -0.166 NA
HETATM    7  C7  UNL     1      52.355  -5.899  42.429  1.00  0.00     0.219 C 
ENDROOT
BRANCH   7   8
HETATM    8  C8  UNL     1      51.728  -4.717  41.800  1.00  0.00     0.303 C 
HETATM    9  O4  UNL     1      50.513  -4.754  41.484  1.00  0.00    -0.261 OA
BRANCH   8  10
HETATM   10  O5  UNL     1      52.409  -3.540  41.531  1.00  0.00    -0.196 OA
BRANCH  10  11
HETATM   11  N2  UNL     1      52.887  -2.733  42.526  1.00  0.00    -0.246 N 
ATOM     12  H2  UNL     1      52.202  -2.271  43.125  1.00  0.00     0.196 HD
BRANCH  11  13
HETATM   13  C9  UNL     1      54.244  -2.489  42.789  1.00  0.00     0.091 C 
HETATM   14  C10 UNL     1      54.816  -1.116  42.610  1.00  0.00     0.090 C 
HETATM   15  N3  UNL     1      55.085  -3.394  43.192  1.00  0.00    -0.388 N 
ATOM     16  H32 UNL     1      54.696  -4.328  43.314  1.00  0.00     0.157 HD
ATOM     17  H31 UNL     1      56.071  -3.217  43.383  1.00  0.00     0.157 HD
ENDBRANCH  11  13
ENDBRANCH  10  11
ENDBRANCH   8  10
ENDBRANCH   7   8
BRANCH   1  18
HETATM   18  C2  UNL     1      51.302  -9.369  43.032  1.00  0.00     0.278 C 
HETATM   19  O2  UNL     1      50.061  -9.162  43.085  1.00  0.00    -0.263 OA
BRANCH  18  20
HETATM   20  O1  UNL     1      51.758 -10.652  43.187  1.00  0.00    -0.325 OA
HETATM   21  C1  UNL     1      50.895 -11.745  43.534  1.00  0.00     0.213 C 
ENDBRANCH  18  20
ENDBRANCH   1  18
TORSDOF 6
ENDMDL
MODEL 2
REMARK VINA RESULT: -8.118974492      2.196      2.910
REMARK  6 active torsions:
REMARK  status: ('A' for Active; 'I' for Inactive)
REMARK    1  A    between atoms: O1_2  and  C2_3 
REMARK    2  A    between atoms: C2_3  and  C3_5 
REMARK    3  A    between atoms: C7_11  and  C8_12 
REMARK    4  A    between atoms: C8_12  and  O5_14 
REMARK    5  A    between atoms: O5_14  and  N2_15 
REMARK    6  A    between atoms: N2_15  and  C9_17 
ROOT
HETATM    1  C3  UNL     1      52.525  -9.602  42.549  1.00  0.00     0.187 C 
HETATM    2  C4  UNL     1      53.470 -10.470  43.356  1.00  0.00     0.035 C 
HETATM    3  C5  UNL     1      54.612  -9.711  43.942  1.00  0.00     0.038 C 
HETATM    4  C6  UNL     1      54.442  -8.224  43.724  1.00  0.00     0.175 C 
HETATM    5  O3  UNL     1      53.127  -7.878  43.982  1.00  0.00    -0.294 OA
HETATM    6  N1  UNL     1      52.807  -8.202  42.704  1.00  0.00    -0.166 NA
HETATM    7  C7  UNL     1      54.164  -7.973  42.267  1.00  0.00     0.219 C 
ENDROOT
BRANCH   7   8
HETATM    8  C8  UNL     1      54.445  -6.603  41.787  1.00  0.00     0.303 C 
HETATM    9  O4  UNL     1      55.608  -6.299  41.422  1.00  0.00    -0.261 OA
BRANCH   8  10
HETATM   10  O5  UNL     1      53.486  -5.605  41.710  1.00  0.00    -0.196 OA
BRANCH  10  11
HETATM   11  N2  UNL     1      52.938  -5.036  42.826  1.00  0.00    -0.246 N 
ATOM     12  H2  UNL     1      53.542  -4.927  43.642  1.00  0.00     0.196 HD
BRANCH  11  13
HETATM   13  C9  UNL     1      51.612  -4.590  42.940  1.00  0.00     0.091 C 
HETATM   14  C10 UNL     1      50.842  -4.183  41.721  1.00  0.00     0.090 C 
HETATM   15  N3  UNL     1      50.966  -4.493  44.063  1.00  0.00    -0.388 N 
ATOM     16  H32 UNL     1      51.490  -4.770  44.893  1.00  0.00     0.157 HD
ATOM     17  H31 UNL     1      50.003  -4.169  44.145  1.00  0.00     0.157 HD
ENDBRANCH  11  13
ENDBRANCH  10  11
ENDBRANCH   8  10
ENDBRANCH   7   8
BRANCH   1  18
HETATM   18  C2  UNL     1      51.109  -9.938  42.831  1.00  0.00     0.278 C 
HETATM   19  O2  UNL     1      50.353  -8.987  43.162  1.00  0.00    -0.263 OA
BRANCH  18  20
HETATM   20  O1  UNL     1      50.580 -11.200  42.757  1.00  0.00    -0.325 OA
HETATM   21  C1  UNL     1      50.522 -12.083  43.887  1.00  0.00     0.213 C 
ENDBRANCH  18  20
ENDBRANCH   1  18
TORSDOF 6
ENDMDL
MODEL 3
REMARK VINA RESULT: -8.068456778      2.423      6.677
REMARK  6 active torsions:
REMARK  status: ('A' for Active; 'I' for Inactive)
REMARK    1  A    between atoms: O1_2  and  C2_3 
REMARK    2  A    between atoms: C2_3  and  C3_5 
REMARK    3  A    between atoms: C7_11  and  C8_12 
REMARK    4  A    between atoms: C8_12  and  O5_14 
REMARK    5  A    between atoms: O5_14  and  N2_15 
REMARK    6  A    between atoms: N2_15  and  C9_17 
ROOT
HETATM    1  C3  UNL     1      52.675  -6.439  43.340  1.00  0.00     0.187 C 
HETATM    2  C4  UNL     1      53.896  -5.867  44.032  1.00  0.00     0.035 C 
HETATM    3  C5  UNL     1      55.013  -6.848  44.160  1.00  0.00     0.038 C 
HETATM    4  C6  UNL     1      54.703  -8.123  43.407  1.00  0.00     0.175 C 
HETATM    5  O3  UNL     1      54.154  -7.798  42.179  1.00  0.00    -0.294 OA
HETATM    6  N1  UNL     1      52.931  -7.727  42.760  1.00  0.00    -0.166 NA
HETATM    7  C7  UNL     1      53.343  -8.616  43.821  1.00  0.00     0.219 C 
ENDROOT
BRANCH   7   8
HETATM    8  C8  UNL     1      53.079 -10.050  43.576  1.00  0.00     0.303 C 
HETATM    9  O4  UNL     1      53.931 -10.906  43.924  1.00  0.00    -0.261 OA
BRANCH   8  10
HETATM   10  O5  UNL     1      51.925 -10.525  42.974  1.00  0.00    -0.196 OA
BRANCH  10  11
HETATM   11  N2  UNL     1      50.934 -11.141  43.687  1.00  0.00    -0.246 N 
ATOM     12  H2  UNL     1      50.325 -10.548  44.251  1.00  0.00     0.196 HD
BRANCH  11  13
HETATM   13  C9  UNL     1      50.687 -12.523  43.703  1.00  0.00     0.091 C 
HETATM   14  C10 UNL     1      51.825 -13.496  43.730  1.00  0.00     0.090 C 
HETATM   15  N3  UNL     1      49.501 -13.054  43.697  1.00  0.00    -0.388 N 
ATOM     16  H32 UNL     1      48.726 -12.392  43.679  1.00  0.00     0.157 HD
ATOM     17  H31 UNL     1      49.322 -14.058  43.709  1.00  0.00     0.157 HD
ENDBRANCH  11  13
ENDBRANCH  10  11
ENDBRANCH   8  10
ENDBRANCH   7   8
BRANCH   1  18
HETATM   18  C2  UNL     1      52.104  -5.475  42.369  1.00  0.00     0.278 C 
HETATM   19  O2  UNL     1      50.863  -5.541  42.163  1.00  0.00    -0.263 OA
BRANCH  18  20
HETATM   20  O1  UNL     1      52.830  -4.531  41.691  1.00  0.00    -0.325 OA
HETATM   21  C1  UNL     1      53.511  -4.815  40.460  1.00  0.00     0.213 C 
ENDBRANCH  18  20
ENDBRANCH   1  18
TORSDOF 6
ENDMDL
MODEL 4
REMARK VINA RESULT: -8.053936622      2.759      6.815
REMARK  6 active torsions:
REMARK  status: ('A' for Active; 'I' for Inactive)
REMARK    1  A    between atoms: O1_2  and  C2_3 
REMARK    2  A    between atoms: C2_3  and  C3_5 
REMARK    3  A    between atoms: C7_11  and  C8_12 
REMARK    4  A    between atoms: C8_12  and  O5_14 
REMARK    5  A    between atoms: O5_14  and  N2_15 
REMARK    6  A    between atoms: N2_15  and  C9_17 
ROOT
HETATM    1  C3  UNL     1      52.915  -6.965  43.468  1.00  0.00     0.187 C 
HETATM    2  C4  UNL     1      54.101  -6.544  42.623  1.00  0.00     0.035 C 
HETATM    3  C5  UNL     1      54.790  -7.691  41.962  1.00  0.00     0.038 C 
HETATM    4  C6  UNL     1      54.020  -8.975  42.168  1.00  0.00     0.175 C 
HETATM    5  O3  UNL     1      52.671  -8.728  41.978  1.00  0.00    -0.294 OA
HETATM    6  N1  UNL     1      52.574  -8.346  43.276  1.00  0.00    -0.166 NA
HETATM    7  C7  UNL     1      53.726  -9.141  43.634  1.00  0.00     0.219 C 
ENDROOT
BRANCH   7   8
HETATM    8  C8  UNL     1      53.425 -10.519  44.076  1.00  0.00     0.303 C 
HETATM    9  O4  UNL     1      54.318 -11.400  44.013  1.00  0.00    -0.261 OA
BRANCH   8  10
HETATM   10  O5  UNL     1      52.191 -10.913  44.570  1.00  0.00    -0.196 OA
BRANCH  10  11
HETATM   11  N2  UNL     1      51.199 -11.384  43.755  1.00  0.00    -0.246 N 
ATOM     12  H2  UNL     1      50.736 -10.712  43.144  1.00  0.00     0.196 HD
BRANCH  11  13
HETATM   13  C9  UNL     1      50.768 -12.719  43.692  1.00  0.00     0.091 C 
HETATM   14  C10 UNL     1      51.764 -13.833  43.586  1.00  0.00     0.090 C 
HETATM   15  N3  UNL     1      49.523 -13.087  43.718  1.00  0.00    -0.388 N 
ATOM     16  H32 UNL     1      48.844 -12.329  43.790  1.00  0.00     0.157 HD
ATOM     17  H31 UNL     1      49.209 -14.056  43.672  1.00  0.00     0.157 HD
ENDBRANCH  11  13
ENDBRANCH  10  11
ENDBRANCH   8  10
ENDBRANCH   7   8
BRANCH   1  18
HETATM   18  C2  UNL     1      51.762  -6.055  43.271  1.00  0.00     0.278 C 
HETATM   19  O2  UNL     1      51.168  -5.655  44.306  1.00  0.00    -0.263 OA
BRANCH  18  20
HETATM   20  O1  UNL     1      51.307  -5.629  42.050  1.00  0.00    -0.325 OA
HETATM   21  C1  UNL     1      51.210  -4.241  41.701  1.00  0.00     0.213 C 
ENDBRANCH  18  20
ENDBRANCH   1  18
TORSDOF 6
ENDMDL
MODEL 5
REMARK VINA RESULT: -8.031548716      2.550      6.705
REMARK  6 active torsions:
REMARK  status: ('A' for Active; 'I' for Inactive)
REMARK    1  A    between atoms: O1_2  and  C2_3 
REMARK    2  A    between atoms: C2_3  and  C3_5 
REMARK    3  A    between atoms: C7_11  and  C8_12 
REMARK    4  A    between atoms: C8_12  and  O5_14 
REMARK    5  A    between atoms: O5_14  and  N2_15 
REMARK    6  A    between atoms: N2_15  and  C9_17 
ROOT
HETATM    1  C3  UNL     1      53.736  -6.329  42.412  1.00  0.00     0.187 C 
HETATM    2  C4  UNL     1      54.798  -6.466  43.485  1.00  0.00     0.035 C 
HETATM    3  C5  UNL     1      54.844  -7.826  44.097  1.00  0.00     0.038 C 
HETATM    4  C6  UNL     1      53.927  -8.780  43.364  1.00  0.00     0.175 C 
HETATM    5  O3  UNL     1      54.073  -8.588  42.001  1.00  0.00    -0.294 OA
HETATM    6  N1  UNL     1      53.154  -7.592  42.058  1.00  0.00    -0.166 NA
HETATM    7  C7  UNL     1      52.563  -8.156  43.249  1.00  0.00     0.219 C 
ENDROOT
BRANCH   7   8
HETATM    8  C8  UNL     1      51.446  -9.095  43.011  1.00  0.00     0.303 C 
HETATM    9  O4  UNL     1      50.288  -8.647  42.822  1.00  0.00    -0.261 OA
BRANCH   8  10
HETATM   10  O5  UNL     1      51.596 -10.473  42.982  1.00  0.00    -0.196 OA
BRANCH  10  11
HETATM   11  N2  UNL     1      50.993 -11.289  43.898  1.00  0.00    -0.246 N 
ATOM     12  H2  UNL     1      50.694 -10.867  44.778  1.00  0.00     0.196 HD
BRANCH  11  13
HETATM   13  C9  UNL     1      50.751 -12.661  43.725  1.00  0.00     0.091 C 
HETATM   14  C10 UNL     1      51.890 -13.635  43.703  1.00  0.00     0.090 C 
HETATM   15  N3  UNL     1      49.571 -13.183  43.574  1.00  0.00    -0.388 N 
ATOM     16  H32 UNL     1      48.795 -12.521  43.590  1.00  0.00     0.157 HD
ATOM     17  H31 UNL     1      49.395 -14.180  43.448  1.00  0.00     0.157 HD
ENDBRANCH  11  13
ENDBRANCH  10  11
ENDBRANCH   8  10
ENDBRANCH   7   8
BRANCH   1  18
HETATM   18  C2  UNL     1      54.250  -5.584  41.237  1.00  0.00     0.278 C 
HETATM   19  O2  UNL     1      55.483  -5.680  40.996  1.00  0.00    -0.263 OA
BRANCH  18  20
HETATM   20  O1  UNL     1      53.480  -4.807  40.410  1.00  0.00    -0.325 OA
HETATM   21  C1  UNL     1      52.200  -4.292  40.803  1.00  0.00     0.213 C 
ENDBRANCH  18  20
ENDBRANCH   1  18
TORSDOF 6
ENDMDL
