MODEL 1
REMARK VINA RESULT: -7.767896286      0.000      0.000
REMARK  4 active torsions:
REMARK  status: ('A' for Active; 'I' for Inactive)
REMARK    1  A    between atoms: C2_2  and  N1_3 
REMARK    2  A    between atoms: C3_4  and  C4_5 
REMARK    3  A    between atoms: N3_9  and  O2_10 
REMARK    4  A    between atoms: C7_15  and  N5_16 
ROOT
HETATM    1  C4  UNL     1      53.247  -6.796  42.965  1.00  0.00     0.115 A 
HETATM    2  N2  UNL     1      51.888  -6.739  42.769  1.00  0.00    -0.235 N 
ATOM      3  H2  UNL     1      51.467  -5.838  42.543  1.00  0.00     0.197 HD
HETATM    4  O1  UNL     1      51.117  -7.772  42.855  1.00  0.00    -0.127 OA
HETATM    5  N3  UNL     1      51.568  -8.961  43.138  1.00  0.00    -0.089 N 
HETATM    6  C5  UNL     1      52.879  -9.130  43.350  1.00  0.00     0.198 A 
HETATM    7  C6  UNL     1      53.460 -10.402  43.673  1.00  0.00     0.125 C 
HETATM    8  N4  UNL     1      53.918 -11.454  43.939  1.00  0.00    -0.190 NA
HETATM    9  C7  UNL     1      53.741  -8.038  43.264  1.00  0.00     0.100 A 
ENDROOT
BRANCH   5  10
HETATM   10  O2  UNL     1      50.748 -10.057  43.230  1.00  0.00    -0.260 OA
ATOM     11  H2  UNL     1      50.509 -10.447  44.063  1.00  0.00     0.247 HD
ENDBRANCH   5  10
BRANCH   9  12
HETATM   12  N5  UNL     1      54.995  -8.218  43.503  1.00  0.00    -0.395 N 
ATOM     13  H52 UNL     1      55.541  -8.789  42.857  1.00  0.00     0.156 HD
ATOM     14  H51 UNL     1      55.436  -7.823  44.333  1.00  0.00     0.156 HD
ENDBRANCH   9  12
BRANCH   1  15
HETATM   15  C3  UNL     1      54.040  -5.586  42.902  1.00  0.00     0.105 A 
HETATM   16  N1  UNL     1      54.393  -4.800  41.888  1.00  0.00    -0.180 N 
HETATM   17  C10 UNL     1      55.104  -3.726  42.362  1.00  0.00     0.678 A 
HETATM   18  N6  UNL     1      55.185  -3.862  43.689  1.00  0.00    -0.194 N 
HETATM   19  N7  UNL     1      55.607  -2.737  41.670  1.00  0.00    -0.234 N 
HETATM   20  C8  UNL     1      54.549  -4.979  44.037  1.00  0.00     0.052 A 
ATOM     21  H6  UNL     1      55.655  -3.219  44.328  1.00  0.00     0.184 HD
HETATM   22  C9  UNL     1      54.417  -5.491  45.431  1.00  0.00     0.071 C 
ATOM     23  H72 UNL     1      55.544  -2.633  40.657  1.00  0.00     0.174 HD
ATOM     24  H71 UNL     1      56.135  -1.939  42.022  1.00  0.00     0.174 HD
BRANCH  16  25
HETATM   25  C2  UNL     1      54.082  -4.959  40.499  1.00  0.00     0.143 C 
HETATM   26  C1  UNL     1      52.666  -4.462  40.176  1.00  0.00     0.027 C 
ENDBRANCH  16  25
ENDBRANCH   1  15
TORSDOF 4
ENDMDL
MODEL 2
REMARK VINA RESULT: -7.518524748      0.820      2.392
REMARK  4 active torsions:
REMARK  status: ('A' for Active; 'I' for Inactive)
REMARK    1  A    between atoms: C2_2  and  N1_3 
REMARK    2  A    between atoms: C3_4  and  C4_5 
REMARK    3  A    between atoms: N3_9  and  O2_10 
REMARK    4  A    between atoms: C7_15  and  N5_16 
ROOT
HETATM    1  C4  UNL     1      53.155  -6.267  42.680  1.00  0.00     0.115 A 
HETATM    2  N2  UNL     1      51.782  -6.238  42.630  1.00  0.00    -0.235 N 
ATOM      3  H2  UNL     1      51.321  -5.342  42.471  1.00  0.00     0.197 HD
HETATM    4  O1  UNL     1      51.046  -7.290  42.776  1.00  0.00    -0.127 OA
HETATM    5  N3  UNL     1      51.550  -8.473  42.983  1.00  0.00    -0.089 N 
HETATM    6  C5  UNL     1      52.879  -8.616  43.050  1.00  0.00     0.198 A 
HETATM    7  C6  UNL     1      53.518  -9.880  43.282  1.00  0.00     0.125 C 
HETATM    8  N4  UNL     1      54.024 -10.926  43.474  1.00  0.00    -0.190 NA
HETATM    9  C7  UNL     1      53.704  -7.502  42.897  1.00  0.00     0.100 A 
ENDROOT
BRANCH   5  10
HETATM   10  O2  UNL     1      50.768  -9.590  43.137  1.00  0.00    -0.260 OA
ATOM     11  H2  UNL     1      50.271  -9.968  42.421  1.00  0.00     0.247 HD
ENDBRANCH   5  10
BRANCH   9  12
HETATM   12  N5  UNL     1      54.980  -7.657  42.997  1.00  0.00    -0.395 N 
ATOM     13  H52 UNL     1      55.592  -6.905  42.680  1.00  0.00     0.156 HD
ATOM     14  H51 UNL     1      55.380  -8.523  43.359  1.00  0.00     0.156 HD
ENDBRANCH   9  12
BRANCH   1  15
HETATM   15  C3  UNL     1      53.911  -5.037  42.560  1.00  0.00     0.105 A 
HETATM   16  N1  UNL     1      54.476  -4.242  43.466  1.00  0.00    -0.180 N 
HETATM   17  C10 UNL     1      55.141  -3.222  42.833  1.00  0.00     0.678 A 
HETATM   18  N6  UNL     1      54.977  -3.400  41.518  1.00  0.00    -0.194 N 
HETATM   19  N7  UNL     1      55.824  -2.254  43.387  1.00  0.00    -0.234 N 
HETATM   20  C8  UNL     1      54.237  -4.491  41.331  1.00  0.00     0.052 A 
ATOM     21  H6  UNL     1      55.355  -2.801  40.783  1.00  0.00     0.184 HD
HETATM   22  C9  UNL     1      53.825  -5.028  40.002  1.00  0.00     0.071 C 
ATOM     23  H72 UNL     1      55.949  -2.118  44.390  1.00  0.00     0.174 HD
ATOM     24  H71 UNL     1      56.318  -1.496  42.917  1.00  0.00     0.174 HD
BRANCH  16  25
HETATM   25  C2  UNL     1      54.471  -4.386  44.891  1.00  0.00     0.143 C 
HETATM   26  C1  UNL     1      55.468  -5.456  45.354  1.00  0.00     0.027 C 
ENDBRANCH  16  25
ENDBRANCH   1  15
TORSDOF 4
ENDMDL
MODEL 3
REMARK VINA RESULT: -7.401053072      1.954      2.407
REMARK  4 active torsions:
REMARK  status: ('A' for Active; 'I' for Inactive)
REMARK    1  A    between atoms: C2_2  and  N1_3 
REMARK    2  A    between atoms: C3_4  and  C4_5 
REMARK    3  A    between atoms: N3_9  and  O2_10 
REMARK    4  A    between atoms: C7_15  and  N5_16 
ROOT
HETATM    1  C4  UNL     1      54.058  -6.179  42.644  1.00  0.00     0.115 A 
HETATM    2  N2  UNL     1      55.174  -6.784  42.116  1.00  0.00    -0.235 N 
ATOM      3  H2  UNL     1      55.995  -6.209  41.928  1.00  0.00     0.197 HD
HETATM    4  O1  UNL     1      55.234  -8.046  41.848  1.00  0.00    -0.127 OA
HETATM    5  N3  UNL     1      54.234  -8.854  42.056  1.00  0.00    -0.089 N 
HETATM    6  C5  UNL     1      53.096  -8.369  42.568  1.00  0.00     0.198 A 
HETATM    7  C6  UNL     1      51.943  -9.186  42.823  1.00  0.00     0.125 C 
HETATM    8  N4  UNL     1      51.007  -9.872  43.023  1.00  0.00    -0.190 NA
HETATM    9  C7  UNL     1      52.996  -7.012  42.870  1.00  0.00     0.100 A 
ENDROOT
BRANCH   5  10
HETATM   10  O2  UNL     1      54.298 -10.195  41.771  1.00  0.00    -0.260 OA
ATOM     11  H2  UNL     1      53.803 -10.590  41.063  1.00  0.00     0.247 HD
ENDBRANCH   5  10
BRANCH   9  12
HETATM   12  N5  UNL     1      51.880  -6.560  43.332  1.00  0.00    -0.395 N 
ATOM     13  H52 UNL     1      51.822  -5.578  43.602  1.00  0.00     0.156 HD
ATOM     14  H51 UNL     1      51.073  -7.171  43.454  1.00  0.00     0.156 HD
ENDBRANCH   9  12
BRANCH   1  15
HETATM   15  C3  UNL     1      54.048  -4.748  42.870  1.00  0.00     0.105 A 
HETATM   16  N1  UNL     1      53.495  -3.740  42.199  1.00  0.00    -0.180 N 
HETATM   17  C10 UNL     1      53.723  -2.562  42.867  1.00  0.00     0.678 A 
HETATM   18  N6  UNL     1      54.428  -2.860  43.963  1.00  0.00    -0.194 N 
HETATM   19  N7  UNL     1      53.325  -1.364  42.523  1.00  0.00    -0.234 N 
HETATM   20  C8  UNL     1      54.635  -4.175  43.984  1.00  0.00     0.052 A 
ATOM     21  H6  UNL     1      54.752  -2.192  44.663  1.00  0.00     0.184 HD
HETATM   22  C9  UNL     1      55.389  -4.905  45.044  1.00  0.00     0.071 C 
ATOM     23  H72 UNL     1      52.787  -1.138  41.687  1.00  0.00     0.174 HD
ATOM     24  H71 UNL     1      53.495  -0.490  43.019  1.00  0.00     0.174 HD
BRANCH  16  25
HETATM   25  C2  UNL     1      52.731  -3.800  40.989  1.00  0.00     0.143 C 
HETATM   26  C1  UNL     1      51.225  -3.860  41.275  1.00  0.00     0.027 C 
ENDBRANCH  16  25
ENDBRANCH   1  15
TORSDOF 4
ENDMDL
MODEL 4
REMARK VINA RESULT: -7.361857195      1.778      2.788
REMARK  4 active torsions:
REMARK  status: ('A' for Active; 'I' for Inactive)
REMARK    1  A    between atoms: C2_2  and  N1_3 
REMARK    2  A    between atoms: C3_4  and  C4_5 
REMARK    3  A    between atoms: N3_9  and  O2_10 
REMARK    4  A    between atoms: C7_15  and  N5_16 
ROOT
HETATM    1  C4  UNL     1      52.640  -8.779  43.225  1.00  0.00     0.115 A 
HETATM    2  N2  UNL     1      51.349  -8.777  42.753  1.00  0.00    -0.235 N 
ATOM      3  H2  UNL     1      51.006  -7.942  42.280  1.00  0.00     0.197 HD
HETATM    4  O1  UNL     1      50.548  -9.784  42.881  1.00  0.00    -0.127 OA
HETATM    5  N3  UNL     1      50.902 -10.889  43.470  1.00  0.00    -0.089 N 
HETATM    6  C5  UNL     1      52.140 -10.999  43.968  1.00  0.00     0.198 A 
HETATM    7  C6  UNL     1      52.611 -12.177  44.638  1.00  0.00     0.125 C 
HETATM    8  N4  UNL     1      52.979 -13.152  45.187  1.00  0.00    -0.190 NA
HETATM    9  C7  UNL     1      53.031  -9.934  43.848  1.00  0.00     0.100 A 
ENDROOT
BRANCH   5  10
HETATM   10  O2  UNL     1      50.051 -11.957  43.605  1.00  0.00    -0.260 OA
ATOM     11  H2  UNL     1      50.222 -12.673  44.205  1.00  0.00     0.247 HD
ENDBRANCH   5  10
BRANCH   9  12
HETATM   12  N5  UNL     1      54.208 -10.049  44.362  1.00  0.00    -0.395 N 
ATOM     13  H52 UNL     1      54.830 -10.774  44.006  1.00  0.00     0.156 HD
ATOM     14  H51 UNL     1      54.510  -9.448  45.129  1.00  0.00     0.156 HD
ENDBRANCH   9  12
BRANCH   1  15
HETATM   15  C3  UNL     1      53.462  -7.594  43.090  1.00  0.00     0.105 A 
HETATM   16  N1  UNL     1      53.381  -6.383  43.636  1.00  0.00    -0.180 N 
HETATM   17  C10 UNL     1      54.452  -5.624  43.234  1.00  0.00     0.678 A 
HETATM   18  N6  UNL     1      55.196  -6.387  42.428  1.00  0.00    -0.194 N 
HETATM   19  N7  UNL     1      54.722  -4.389  43.571  1.00  0.00    -0.234 N 
HETATM   20  C8  UNL     1      54.617  -7.582  42.327  1.00  0.00     0.052 A 
ATOM     21  H6  UNL     1      56.062  -6.103  41.968  1.00  0.00     0.184 HD
HETATM   22  C9  UNL     1      55.134  -8.719  41.513  1.00  0.00     0.071 C 
ATOM     23  H72 UNL     1      54.154  -3.807  44.186  1.00  0.00     0.174 HD
ATOM     24  H71 UNL     1      55.517  -3.825  43.272  1.00  0.00     0.174 HD
BRANCH  16  25
HETATM   25  C2  UNL     1      52.389  -5.889  44.543  1.00  0.00     0.143 C 
HETATM   26  C1  UNL     1      51.347  -5.023  43.823  1.00  0.00     0.027 C 
ENDBRANCH  16  25
ENDBRANCH   1  15
TORSDOF 4
ENDMDL
MODEL 5
REMARK VINA RESULT: -7.360375970      3.001      6.297
REMARK  4 active torsions:
REMARK  status: ('A' for Active; 'I' for Inactive)
REMARK    1  A    between atoms: C2_2  and  N1_3 
REMARK    2  A    between atoms: C3_4  and  C4_5 
REMARK    3  A    between atoms: N3_9  and  O2_10 
REMARK    4  A    between atoms: C7_15  and  N5_16 
ROOT
HETATM    1  C4  UNL     1      54.113  -4.299  42.059  1.00  0.00     0.115 A 
HETATM    2  N2  UNL     1      54.504  -4.240  40.742  1.00  0.00    -0.235 N 
ATOM      3  H2  UNL     1      54.232  -5.001  40.120  1.00  0.00     0.197 HD
HETATM    4  O1  UNL     1      55.198  -3.266  40.253  1.00  0.00    -0.127 OA
HETATM    5  N3  UNL     1      55.588  -2.254  40.974  1.00  0.00    -0.089 N 
HETATM    6  C5  UNL     1      55.263  -2.210  42.272  1.00  0.00     0.198 A 
HETATM    7  C6  UNL     1      55.656  -1.137  43.140  1.00  0.00     0.125 C 
HETATM    8  N4  UNL     1      55.989  -0.248  43.837  1.00  0.00    -0.190 NA
HETATM    9  C7  UNL     1      54.513  -3.243  42.833  1.00  0.00     0.100 A 
ENDROOT
BRANCH   5  10
HETATM   10  O2  UNL     1      56.326  -1.220  40.454  1.00  0.00    -0.260 OA
ATOM     11  H2  UNL     1      56.447  -0.398  40.914  1.00  0.00     0.247 HD
ENDBRANCH   5  10
BRANCH   9  12
HETATM   12  N5  UNL     1      54.238  -3.197  44.092  1.00  0.00    -0.395 N 
ATOM     13  H52 UNL     1      53.352  -3.585  44.415  1.00  0.00     0.156 HD
ATOM     14  H51 UNL     1      54.876  -2.758  44.756  1.00  0.00     0.156 HD
ENDBRANCH   9  12
BRANCH   1  15
HETATM   15  C3  UNL     1      53.379  -5.449  42.546  1.00  0.00     0.105 A 
HETATM   16  N1  UNL     1      53.767  -6.557  43.172  1.00  0.00    -0.180 N 
HETATM   17  C10 UNL     1      52.668  -7.319  43.484  1.00  0.00     0.678 A 
HETATM   18  N6  UNL     1      51.593  -6.661  43.038  1.00  0.00    -0.194 N 
HETATM   19  N7  UNL     1      52.648  -8.468  44.109  1.00  0.00    -0.234 N 
HETATM   20  C8  UNL     1      52.000  -5.529  42.468  1.00  0.00     0.052 A 
ATOM     21  H6  UNL     1      50.625  -6.974  43.120  1.00  0.00     0.184 HD
HETATM   22  C9  UNL     1      51.103  -4.515  41.841  1.00  0.00     0.071 C 
ATOM     23  H72 UNL     1      53.468  -8.969  44.449  1.00  0.00     0.174 HD
ATOM     24  H71 UNL     1      51.832  -9.033  44.340  1.00  0.00     0.174 HD
BRANCH  16  25
HETATM   25  C2  UNL     1      55.096  -6.946  43.537  1.00  0.00     0.143 C 
HETATM   26  C1  UNL     1      55.520  -6.322  44.873  1.00  0.00     0.027 C 
ENDBRANCH  16  25
ENDBRANCH   1  15
TORSDOF 4
ENDMDL
