MODEL 1
REMARK VINA RESULT: -8.730110326      0.000      0.000
REMARK  5 active torsions:
REMARK  status: ('A' for Active; 'I' for Inactive)
REMARK    1  A    between atoms: C2_2  and  O2_4 
REMARK    2  A    between atoms: O2_4  and  C3_5 
REMARK    3  A    between atoms: C4_6  and  O3_7 
REMARK    4  A    between atoms: C5_9  and  S1_10 
REMARK    5  A    between atoms: C7_16  and  O4_17 
ROOT
HETATM    1  S1  UNL     1      52.889 -10.099  43.487  1.00  0.00    -0.015 SA
HETATM    2  C6  UNL     1      51.422 -11.060  43.374  1.00  0.00     0.135 C 
HETATM    3  N1  UNL     1      50.480 -11.698  43.307  1.00  0.00    -0.184 NA
ENDROOT
BRANCH   1   4
HETATM    4  C5  UNL     1      52.900  -8.767  42.250  1.00  0.00     0.295 C 
HETATM    5  C4  UNL     1      52.092  -7.585  42.686  1.00  0.00     0.191 C 
HETATM    6  C3  UNL     1      52.786  -6.694  43.658  1.00  0.00     0.185 C 
HETATM    7  C8  UNL     1      54.195  -6.388  43.168  1.00  0.00     0.181 C 
HETATM    8  C7  UNL     1      54.947  -7.605  42.756  1.00  0.00     0.340 C 
HETATM    9  C9  UNL     1      54.979  -5.698  44.190  1.00  0.00     0.071 C 
HETATM   10  N2  UNL     1      54.221  -8.438  41.822  1.00  0.00    -0.031 N 
ATOM     11  H22 UNL     1      54.750  -9.283  41.607  1.00  0.00     0.281 HD
ATOM     12  H21 UNL     1      54.202  -8.008  40.896  1.00  0.00     0.281 HD
HETATM   13  N3  UNL     1      55.618  -5.152  45.013  1.00  0.00    -0.197 NA
BRANCH   5  14
HETATM   14  O3  UNL     1      50.871  -8.025  43.190  1.00  0.00    -0.390 OA
ATOM     15  H3  UNL     1      50.351  -8.442  42.514  1.00  0.00     0.210 HD
ENDBRANCH   5  14
BRANCH   6  16
HETATM   16  O2  UNL     1      52.103  -5.438  43.646  1.00  0.00    -0.312 OA
BRANCH  16  17
HETATM   17  C2  UNL     1      51.679  -4.827  42.493  1.00  0.00     0.255 C 
HETATM   18  C1  UNL     1      52.574  -3.776  41.920  1.00  0.00     0.126 C 
HETATM   19  O1  UNL     1      50.583  -5.159  41.969  1.00  0.00    -0.266 OA
ENDBRANCH  16  17
ENDBRANCH   6  16
BRANCH   8  20
HETATM   20  O4  UNL     1      56.103  -7.178  42.083  1.00  0.00    -0.369 OA
ATOM     21  H4  UNL     1      55.941  -6.278  41.825  1.00  0.00     0.212 HD
ENDBRANCH   8  20
ENDBRANCH   1   4
TORSDOF 5
ENDMDL
MODEL 2
REMARK VINA RESULT: -8.351582693      2.411      3.741
REMARK  5 active torsions:
REMARK  status: ('A' for Active; 'I' for Inactive)
REMARK    1  A    between atoms: C2_2  and  O2_4 
REMARK    2  A    between atoms: O2_4  and  C3_5 
REMARK    3  A    between atoms: C4_6  and  O3_7 
REMARK    4  A    between atoms: C5_9  and  S1_10 
REMARK    5  A    between atoms: C7_16  and  O4_17 
ROOT
HETATM    1  S1  UNL     1      53.341  -8.984  42.251  1.00  0.00    -0.015 SA
HETATM    2  C6  UNL     1      51.760  -9.485  42.830  1.00  0.00     0.135 C 
HETATM    3  N1  UNL     1      50.730  -9.818  43.189  1.00  0.00    -0.184 NA
ENDROOT
BRANCH   1   4
HETATM    4  C5  UNL     1      53.869  -7.434  43.040  1.00  0.00     0.295 C 
HETATM    5  C4  UNL     1      54.302  -6.409  42.039  1.00  0.00     0.191 C 
HETATM    6  C3  UNL     1      53.180  -5.691  41.373  1.00  0.00     0.185 C 
HETATM    7  C8  UNL     1      52.176  -5.215  42.414  1.00  0.00     0.181 C 
HETATM    8  C7  UNL     1      51.782  -6.282  43.374  1.00  0.00     0.340 C 
HETATM    9  C9  UNL     1      50.960  -4.699  41.789  1.00  0.00     0.071 C 
HETATM   10  N2  UNL     1      52.911  -6.952  43.982  1.00  0.00    -0.031 N 
ATOM     11  H22 UNL     1      52.596  -7.706  44.592  1.00  0.00     0.281 HD
ATOM     12  H21 UNL     1      53.358  -6.349  44.673  1.00  0.00     0.281 HD
HETATM   13  N3  UNL     1      49.975  -4.292  41.291  1.00  0.00    -0.197 NA
BRANCH   5  14
HETATM   14  O3  UNL     1      55.142  -7.009  41.104  1.00  0.00    -0.390 OA
ATOM     15  H3  UNL     1      56.052  -6.797  41.273  1.00  0.00     0.210 HD
ENDBRANCH   5  14
BRANCH   6  16
HETATM   16  O2  UNL     1      53.720  -4.499  40.798  1.00  0.00    -0.312 OA
BRANCH  16  17
HETATM   17  C2  UNL     1      54.776  -3.816  41.344  1.00  0.00     0.255 C 
HETATM   18  C1  UNL     1      54.460  -2.861  42.451  1.00  0.00     0.126 C 
HETATM   19  O1  UNL     1      55.943  -4.006  40.912  1.00  0.00    -0.266 OA
ENDBRANCH  16  17
ENDBRANCH   6  16
BRANCH   8  20
HETATM   20  O4  UNL     1      51.082  -5.665  44.424  1.00  0.00    -0.369 OA
ATOM     21  H4  UNL     1      51.667  -5.672  45.172  1.00  0.00     0.212 HD
ENDBRANCH   8  20
ENDBRANCH   1   4
TORSDOF 5
ENDMDL
MODEL 3
REMARK VINA RESULT: -8.298667365      1.455      1.605
REMARK  5 active torsions:
REMARK  status: ('A' for Active; 'I' for Inactive)
REMARK    1  A    between atoms: C2_2  and  O2_4 
REMARK    2  A    between atoms: O2_4  and  C3_5 
REMARK    3  A    between atoms: C4_6  and  O3_7 
REMARK    4  A    between atoms: C5_9  and  S1_10 
REMARK    5  A    between atoms: C7_16  and  O4_17 
ROOT
HETATM    1  S1  UNL     1      53.032 -10.278  44.402  1.00  0.00    -0.015 SA
HETATM    2  C6  UNL     1      52.845 -12.013  44.601  1.00  0.00     0.135 C 
HETATM    3  N1  UNL     1      52.737 -13.139  44.743  1.00  0.00    -0.184 NA
ENDROOT
BRANCH   1   4
HETATM    4  C5  UNL     1      52.720  -9.774  42.684  1.00  0.00     0.295 C 
HETATM    5  C4  UNL     1      51.742  -8.645  42.594  1.00  0.00     0.191 C 
HETATM    6  C3  UNL     1      52.326  -7.305  42.884  1.00  0.00     0.185 C 
HETATM    7  C8  UNL     1      53.621  -7.122  42.104  1.00  0.00     0.181 C 
HETATM    8  C7  UNL     1      54.551  -8.275  42.240  1.00  0.00     0.340 C 
HETATM    9  C9  UNL     1      54.332  -5.916  42.524  1.00  0.00     0.071 C 
HETATM   10  N2  UNL     1      53.929  -9.551  41.958  1.00  0.00    -0.031 N 
ATOM     11  H22 UNL     1      54.587 -10.314  42.112  1.00  0.00     0.281 HD
ATOM     12  H21 UNL     1      53.772  -9.660  40.955  1.00  0.00     0.281 HD
HETATM   13  N3  UNL     1      54.914  -4.953  42.865  1.00  0.00    -0.197 NA
BRANCH   5  14
HETATM   14  O3  UNL     1      50.657  -8.912  43.424  1.00  0.00    -0.390 OA
ATOM     15  H3  UNL     1      50.512  -8.203  44.039  1.00  0.00     0.210 HD
ENDBRANCH   5  14
BRANCH   6  16
HETATM   16  O2  UNL     1      51.427  -6.327  42.356  1.00  0.00    -0.312 OA
BRANCH  16  17
HETATM   17  C2  UNL     1      51.337  -5.050  42.848  1.00  0.00     0.255 C 
HETATM   18  C1  UNL     1      51.224  -3.948  41.843  1.00  0.00     0.126 C 
HETATM   19  O1  UNL     1      51.351  -4.849  44.091  1.00  0.00    -0.266 OA
ENDBRANCH  16  17
ENDBRANCH   6  16
BRANCH   8  20
HETATM   20  O4  UNL     1      55.564  -8.114  41.281  1.00  0.00    -0.369 OA
ATOM     21  H4  UNL     1      55.869  -7.218  41.366  1.00  0.00     0.212 HD
ENDBRANCH   8  20
ENDBRANCH   1   4
TORSDOF 5
ENDMDL
MODEL 4
REMARK VINA RESULT: -7.979395768      2.362      3.641
REMARK  5 active torsions:
REMARK  status: ('A' for Active; 'I' for Inactive)
REMARK    1  A    between atoms: C2_2  and  O2_4 
REMARK    2  A    between atoms: O2_4  and  C3_5 
REMARK    3  A    between atoms: C4_6  and  O3_7 
REMARK    4  A    between atoms: C5_9  and  S1_10 
REMARK    5  A    between atoms: C7_16  and  O4_17 
ROOT
HETATM    1  S1  UNL     1      53.714  -8.904  42.343  1.00  0.00    -0.015 SA
HETATM    2  C6  UNL     1      52.143  -9.642  42.613  1.00  0.00     0.135 C 
HETATM    3  N1  UNL     1      51.122 -10.125  42.770  1.00  0.00    -0.184 NA
ENDROOT
BRANCH   1   4
HETATM    4  C5  UNL     1      54.021  -7.559  43.526  1.00  0.00     0.295 C 
HETATM    5  C4  UNL     1      54.788  -6.430  42.911  1.00  0.00     0.191 C 
HETATM    6  C3  UNL     1      53.964  -5.513  42.077  1.00  0.00     0.185 C 
HETATM    7  C8  UNL     1      52.700  -5.120  42.829  1.00  0.00     0.181 C 
HETATM    8  C7  UNL     1      51.981  -6.287  43.409  1.00  0.00     0.340 C 
HETATM    9  C9  UNL     1      51.766  -4.398  41.967  1.00  0.00     0.071 C 
HETATM   10  N2  UNL     1      52.832  -7.149  44.200  1.00  0.00    -0.031 N 
ATOM     11  H22 UNL     1      52.311  -7.960  44.535  1.00  0.00     0.281 HD
ATOM     12  H21 UNL     1      53.058  -6.711  45.093  1.00  0.00     0.281 HD
HETATM   13  N3  UNL     1      51.007  -3.826  41.275  1.00  0.00    -0.197 NA
BRANCH   5  14
HETATM   14  O3  UNL     1      55.859  -6.946  42.186  1.00  0.00    -0.390 OA
ATOM     15  H3  UNL     1      56.012  -6.443  41.395  1.00  0.00     0.210 HD
ENDBRANCH   5  14
BRANCH   6  16
HETATM   16  O2  UNL     1      54.703  -4.298  41.924  1.00  0.00    -0.312 OA
BRANCH  16  17
HETATM   17  C2  UNL     1      54.842  -3.375  42.928  1.00  0.00     0.255 C 
HETATM   18  C1  UNL     1      54.325  -1.999  42.653  1.00  0.00     0.126 C 
HETATM   19  O1  UNL     1      55.383  -3.701  44.017  1.00  0.00    -0.266 OA
ENDBRANCH  16  17
ENDBRANCH   6  16
BRANCH   8  20
HETATM   20  O4  UNL     1      51.007  -5.786  44.288  1.00  0.00    -0.369 OA
ATOM     21  H4  UNL     1      50.822  -4.899  44.001  1.00  0.00     0.212 HD
ENDBRANCH   8  20
ENDBRANCH   1   4
TORSDOF 5
ENDMDL
MODEL 5
REMARK VINA RESULT: -7.920348978      2.190      2.379
REMARK  5 active torsions:
REMARK  status: ('A' for Active; 'I' for Inactive)
REMARK    1  A    between atoms: C2_2  and  O2_4 
REMARK    2  A    between atoms: O2_4  and  C3_5 
REMARK    3  A    between atoms: C4_6  and  O3_7 
REMARK    4  A    between atoms: C5_9  and  S1_10 
REMARK    5  A    between atoms: C7_16  and  O4_17 
ROOT
HETATM    1  S1  UNL     1      53.258  -9.095  44.142  1.00  0.00    -0.015 SA
HETATM    2  C6  UNL     1      53.386 -10.846  44.082  1.00  0.00     0.135 C 
HETATM    3  N1  UNL     1      53.460 -11.984  44.060  1.00  0.00    -0.184 NA
ENDROOT
BRANCH   1   4
HETATM    4  C5  UNL     1      54.642  -8.304  43.268  1.00  0.00     0.295 C 
HETATM    5  C4  UNL     1      54.180  -7.473  42.113  1.00  0.00     0.191 C 
HETATM    6  C3  UNL     1      53.652  -6.134  42.495  1.00  0.00     0.185 C 
HETATM    7  C8  UNL     1      54.612  -5.451  43.459  1.00  0.00     0.181 C 
HETATM    8  C7  UNL     1      55.028  -6.327  44.587  1.00  0.00     0.340 C 
HETATM    9  C9  UNL     1      54.031  -4.234  44.023  1.00  0.00     0.071 C 
HETATM   10  N2  UNL     1      55.522  -7.618  44.159  1.00  0.00    -0.031 N 
ATOM     11  H22 UNL     1      55.747  -8.203  44.964  1.00  0.00     0.281 HD
ATOM     12  H21 UNL     1      56.452  -7.529  43.748  1.00  0.00     0.281 HD
HETATM   13  N3  UNL     1      53.564  -3.260  44.488  1.00  0.00    -0.197 NA
BRANCH   5  14
HETATM   14  O3  UNL     1      53.243  -8.193  41.377  1.00  0.00    -0.390 OA
ATOM     15  H3  UNL     1      53.666  -8.825  40.808  1.00  0.00     0.210 HD
ENDBRANCH   5  14
BRANCH   6  16
HETATM   16  O2  UNL     1      53.659  -5.322  41.318  1.00  0.00    -0.312 OA
BRANCH  16  17
HETATM   17  C2  UNL     1      52.524  -4.767  40.784  1.00  0.00     0.255 C 
HETATM   18  C1  UNL     1      51.413  -4.460  41.736  1.00  0.00     0.126 C 
HETATM   19  O1  UNL     1      52.454  -4.540  39.547  1.00  0.00    -0.266 OA
ENDBRANCH  16  17
ENDBRANCH   6  16
BRANCH   8  20
HETATM   20  O4  UNL     1      56.099  -5.695  45.239  1.00  0.00    -0.369 OA
ATOM     21  H4  UNL     1      55.758  -4.875  45.575  1.00  0.00     0.212 HD
ENDBRANCH   8  20
ENDBRANCH   1   4
TORSDOF 5
ENDMDL
