MODEL 1
REMARK VINA RESULT: -8.142076666      0.000      0.000
REMARK  3 active torsions:
REMARK  status: ('A' for Active; 'I' for Inactive)
REMARK    1  A    between atoms: O1_1  and  C1_3 
REMARK    2  A    between atoms: C1_3  and  C2_4 
REMARK    3  A    between atoms: C1_3  and  C8_10 
ROOT
HETATM    1  C1  UNL     1      -3.916  -1.065  20.684  1.00  0.00     0.144 C 
ENDROOT
BRANCH   1   2
HETATM    2  O1  UNL     1      -2.608  -1.345  20.282  1.00  0.00    -0.393 OA
ATOM      3  H1  UNL     1      -2.398  -0.893  19.473  1.00  0.00     0.210 HD
ENDBRANCH   1   2
BRANCH   1   4
HETATM    4  C2  UNL     1      -4.618  -2.327  21.163  1.00  0.00     0.016 C 
HETATM    5  C3  UNL     1      -6.039  -2.042  21.430  1.00  0.00     0.007 C 
HETATM    6  C4  UNL     1      -7.075  -2.894  20.813  1.00  0.00     0.000 C 
HETATM    7  C5  UNL     1      -6.622  -4.215  20.281  1.00  0.00     0.000 C 
HETATM    8  C6  UNL     1      -5.430  -3.922  19.381  1.00  0.00     0.000 C 
HETATM    9  C7  UNL     1      -4.322  -3.476  20.250  1.00  0.00     0.007 C 
ENDBRANCH   1   4
BRANCH   1  10
HETATM   10  C8  UNL     1      -4.706  -0.346  19.653  1.00  0.00     0.105 C 
HETATM   11  C9  UNL     1      -4.229  -0.545  18.243  1.00  0.00     0.027 C 
HETATM   12  C10 UNL     1      -4.515   0.752  17.499  1.00  0.00     0.002 C 
HETATM   13  C11 UNL     1      -3.375   1.727  17.625  1.00  0.00     0.002 C 
HETATM   14  C12 UNL     1      -3.437   2.585  18.840  1.00  0.00     0.019 C 
HETATM   15  C13 UNL     1      -3.692   1.814  20.121  1.00  0.00     0.114 C 
HETATM   16  N1  UNL     1      -4.855   1.024  19.971  1.00  0.00    -0.415 N 
ATOM     17  H1  UNL     1      -5.781   1.433  20.091  1.00  0.00     0.153 HD
ENDBRANCH   1  10
TORSDOF 3
ENDMDL
MODEL 2
REMARK VINA RESULT: -8.128937870      2.463      6.178
REMARK  3 active torsions:
REMARK  status: ('A' for Active; 'I' for Inactive)
REMARK    1  A    between atoms: O1_1  and  C1_3 
REMARK    2  A    between atoms: C1_3  and  C2_4 
REMARK    3  A    between atoms: C1_3  and  C8_10 
ROOT
HETATM    1  C1  UNL     1      -4.595   2.617  19.680  1.00  0.00     0.144 C 
ENDROOT
BRANCH   1   2
HETATM    2  O1  UNL     1      -5.541   3.268  18.885  1.00  0.00    -0.393 OA
ATOM      3  H1  UNL     1      -6.335   2.752  18.812  1.00  0.00     0.210 HD
ENDBRANCH   1   2
BRANCH   1   4
HETATM    4  C2  UNL     1      -3.597   3.609  20.258  1.00  0.00     0.016 C 
HETATM    5  C3  UNL     1      -2.366   3.616  19.448  1.00  0.00     0.007 C 
HETATM    6  C4  UNL     1      -1.839   4.898  18.942  1.00  0.00     0.000 C 
HETATM    7  C5  UNL     1      -2.355   6.137  19.601  1.00  0.00     0.000 C 
HETATM    8  C6  UNL     1      -3.873   6.026  19.578  1.00  0.00     0.000 C 
HETATM    9  C7  UNL     1      -4.249   4.936  20.500  1.00  0.00     0.007 C 
ENDBRANCH   1   4
BRANCH   1  10
HETATM   10  C8  UNL     1      -3.920   1.491  18.986  1.00  0.00     0.105 C 
HETATM   11  C9  UNL     1      -4.490   1.151  17.639  1.00  0.00     0.027 C 
HETATM   12  C10 UNL     1      -4.326  -0.353  17.463  1.00  0.00     0.002 C 
HETATM   13  C11 UNL     1      -5.502  -1.108  18.023  1.00  0.00     0.002 C 
HETATM   14  C12 UNL     1      -5.395  -1.416  19.475  1.00  0.00     0.019 C 
HETATM   15  C13 UNL     1      -5.008  -0.223  20.327  1.00  0.00     0.114 C 
HETATM   16  N1  UNL     1      -3.820   0.352  19.819  1.00  0.00    -0.415 N 
ATOM     17  H1  UNL     1      -2.910  -0.047  20.048  1.00  0.00     0.153 HD
ENDBRANCH   1  10
TORSDOF 3
ENDMDL
MODEL 3
REMARK VINA RESULT: -7.568916536      2.218      3.420
REMARK  3 active torsions:
REMARK  status: ('A' for Active; 'I' for Inactive)
REMARK    1  A    between atoms: O1_1  and  C1_3 
REMARK    2  A    between atoms: C1_3  and  C2_4 
REMARK    3  A    between atoms: C1_3  and  C8_10 
ROOT
HETATM    1  C1  UNL     1      -4.005   1.475  18.503  1.00  0.00     0.144 C 
ENDROOT
BRANCH   1   2
HETATM    2  O1  UNL     1      -5.069   1.735  17.637  1.00  0.00    -0.393 OA
ATOM      3  H1  UNL     1      -5.264   2.665  17.610  1.00  0.00     0.210 HD
ENDBRANCH   1   2
BRANCH   1   4
HETATM    4  C2  UNL     1      -3.947  -0.002  18.863  1.00  0.00     0.016 C 
HETATM    5  C3  UNL     1      -4.328  -0.192  20.274  1.00  0.00     0.007 C 
HETATM    6  C4  UNL     1      -5.379  -1.170  20.614  1.00  0.00     0.000 C 
HETATM    7  C5  UNL     1      -5.715  -2.180  19.564  1.00  0.00     0.000 C 
HETATM    8  C6  UNL     1      -5.976  -1.392  18.289  1.00  0.00     0.000 C 
HETATM    9  C7  UNL     1      -4.686  -0.823  17.851  1.00  0.00     0.007 C 
ENDBRANCH   1   4
BRANCH   1  10
HETATM   10  C8  UNL     1      -4.004   2.342  19.709  1.00  0.00     0.105 C 
HETATM   11  C9  UNL     1      -4.961   3.497  19.653  1.00  0.00     0.027 C 
HETATM   12  C10 UNL     1      -4.315   4.636  20.432  1.00  0.00     0.002 C 
HETATM   13  C11 UNL     1      -3.429   5.476  19.553  1.00  0.00     0.002 C 
HETATM   14  C12 UNL     1      -2.035   4.970  19.428  1.00  0.00     0.019 C 
HETATM   15  C13 UNL     1      -1.948   3.492  19.102  1.00  0.00     0.114 C 
HETATM   16  N1  UNL     1      -2.695   2.756  20.051  1.00  0.00    -0.415 N 
ATOM     17  H1  UNL     1      -2.299   2.529  20.963  1.00  0.00     0.153 HD
ENDBRANCH   1  10
TORSDOF 3
ENDMDL
MODEL 4
REMARK VINA RESULT: -7.498380813      2.073      3.378
REMARK  3 active torsions:
REMARK  status: ('A' for Active; 'I' for Inactive)
REMARK    1  A    between atoms: O1_1  and  C1_3 
REMARK    2  A    between atoms: C1_3  and  C2_4 
REMARK    3  A    between atoms: C1_3  and  C8_10 
ROOT
HETATM    1  C1  UNL     1      -4.176   1.201  18.862  1.00  0.00     0.144 C 
ENDROOT
BRANCH   1   2
HETATM    2  O1  UNL     1      -4.743   1.669  17.675  1.00  0.00    -0.393 OA
ATOM      3  H1  UNL     1      -4.100   1.688  16.976  1.00  0.00     0.210 HD
ENDBRANCH   1   2
BRANCH   1   4
HETATM    4  C2  UNL     1      -4.850  -0.085  19.316  1.00  0.00     0.016 C 
HETATM    5  C3  UNL     1      -5.040  -0.986  18.166  1.00  0.00     0.007 C 
HETATM    6  C4  UNL     1      -4.559  -2.379  18.251  1.00  0.00     0.000 C 
HETATM    7  C5  UNL     1      -4.267  -2.900  19.621  1.00  0.00     0.000 C 
HETATM    8  C6  UNL     1      -3.350  -1.876  20.275  1.00  0.00     0.000 C 
HETATM    9  C7  UNL     1      -4.149  -0.658  20.509  1.00  0.00     0.007 C 
ENDBRANCH   1   4
BRANCH   1  10
HETATM   10  C8  UNL     1      -4.145   2.222  19.940  1.00  0.00     0.105 C 
HETATM   11  C9  UNL     1      -5.023   3.416  19.700  1.00  0.00     0.027 C 
HETATM   12  C10 UNL     1      -4.321   4.608  20.339  1.00  0.00     0.002 C 
HETATM   13  C11 UNL     1      -3.362   5.265  19.382  1.00  0.00     0.002 C 
HETATM   14  C12 UNL     1      -2.002   4.661  19.370  1.00  0.00     0.019 C 
HETATM   15  C13 UNL     1      -2.005   3.150  19.248  1.00  0.00     0.114 C 
HETATM   16  N1  UNL     1      -2.820   2.597  20.264  1.00  0.00    -0.415 N 
ATOM     17  H1  UNL     1      -2.459   2.473  21.209  1.00  0.00     0.153 HD
ENDBRANCH   1  10
TORSDOF 3
ENDMDL
MODEL 5
REMARK VINA RESULT: -7.393765438      1.839      5.513
REMARK  3 active torsions:
REMARK  status: ('A' for Active; 'I' for Inactive)
REMARK    1  A    between atoms: O1_1  and  C1_3 
REMARK    2  A    between atoms: C1_3  and  C2_4 
REMARK    3  A    between atoms: C1_3  and  C8_10 
ROOT
HETATM    1  C1  UNL     1      -4.285   1.064  19.731  1.00  0.00     0.144 C 
ENDROOT
BRANCH   1   2
HETATM    2  O1  UNL     1      -5.445   1.057  20.508  1.00  0.00    -0.393 OA
ATOM      3  H1  UNL     1      -5.673   0.172  20.769  1.00  0.00     0.210 HD
ENDBRANCH   1   2
BRANCH   1   4
HETATM    4  C2  UNL     1      -4.146   2.377  18.975  1.00  0.00     0.016 C 
HETATM    5  C3  UNL     1      -4.893   3.440  19.670  1.00  0.00     0.007 C 
HETATM    6  C4  UNL     1      -4.210   4.705  20.000  1.00  0.00     0.000 C 
HETATM    7  C5  UNL     1      -2.935   4.985  19.272  1.00  0.00     0.000 C 
HETATM    8  C6  UNL     1      -2.073   3.742  19.438  1.00  0.00     0.000 C 
HETATM    9  C7  UNL     1      -2.709   2.659  18.662  1.00  0.00     0.007 C 
ENDBRANCH   1   4
BRANCH   1  10
HETATM   10  C8  UNL     1      -4.175  -0.111  18.829  1.00  0.00     0.105 C 
HETATM   11  C9  UNL     1      -5.488  -0.684  18.380  1.00  0.00     0.027 C 
HETATM   12  C10 UNL     1      -5.278  -2.184  18.224  1.00  0.00     0.002 C 
HETATM   13  C11 UNL     1      -5.531  -2.917  19.515  1.00  0.00     0.002 C 
HETATM   14  C12 UNL     1      -4.347  -2.996  20.415  1.00  0.00     0.019 C 
HETATM   15  C13 UNL     1      -3.649  -1.666  20.624  1.00  0.00     0.114 C 
HETATM   16  N1  UNL     1      -3.323  -1.103  19.369  1.00  0.00    -0.415 N 
ATOM     17  H1  UNL     1      -2.490  -1.406  18.864  1.00  0.00     0.153 HD
ENDBRANCH   1  10
TORSDOF 3
ENDMDL
