MODEL 1
REMARK VINA RESULT: -7.379965108      0.000      0.000
REMARK  3 active torsions:
REMARK  status: ('A' for Active; 'I' for Inactive)
REMARK    1  A    between atoms: C2_2  and  C3_3 
REMARK    2  A    between atoms: C3_3  and  C4_4 
REMARK    3  A    between atoms: C13_13  and  N1_14 
ROOT
HETATM    1  C4  UNL     1      -4.227   0.691  18.725  1.00  0.00    -0.008 C 
HETATM    2  C5  UNL     1      -4.998  -0.269  17.883  1.00  0.00     0.009 C 
HETATM    3  C6  UNL     1      -4.651  -1.715  18.138  1.00  0.00    -0.012 C 
HETATM    4  C7  UNL     1      -5.848  -2.546  18.303  1.00  0.00     0.009 C 
HETATM    5  C8  UNL     1      -6.285  -2.898  19.664  1.00  0.00    -0.014 C 
HETATM    6  C9  UNL     1      -5.462  -3.966  20.341  1.00  0.00     0.005 C 
HETATM    7  C10 UNL     1      -4.668  -3.247  21.385  1.00  0.00     0.007 C 
HETATM    8  C11 UNL     1      -5.018  -1.784  21.293  1.00  0.00     0.022 C 
HETATM    9  C12 UNL     1      -6.367  -1.792  20.646  1.00  0.00     0.011 C 
HETATM   10  C13 UNL     1      -3.979  -1.068  20.481  1.00  0.00     0.128 C 
HETATM   11  C14 UNL     1      -4.322   0.357  20.197  1.00  0.00     0.043 C 
HETATM   12  C15 UNL     1      -3.624  -1.770  19.213  1.00  0.00     0.043 C 
ENDROOT
BRANCH  10  13
HETATM   13  N1  UNL     1      -2.755  -1.053  21.303  1.00  0.00    -0.070 N 
ATOM     14  H13 UNL     1      -2.581  -1.933  21.789  1.00  0.00     0.275 HD
ATOM     15  H12 UNL     1      -1.896  -1.044  20.753  1.00  0.00     0.275 HD
ATOM     16  H11 UNL     1      -2.844  -0.254  21.930  1.00  0.00     0.275 HD
ENDBRANCH  10  13
BRANCH   1  17
HETATM   17  C3  UNL     1      -4.804   2.076  18.500  1.00  0.00     0.031 C 
BRANCH  17  18
HETATM   18  C2  UNL     1      -4.548   2.950  19.666  1.00  0.00    -0.037 C 
HETATM   19  C1  UNL     1      -4.895   4.218  19.715  1.00  0.00     0.007 C 
ENDBRANCH  17  18
ENDBRANCH   1  17
TORSDOF 3
ENDMDL
MODEL 2
REMARK VINA RESULT: -6.945562856      1.291      1.725
REMARK  3 active torsions:
REMARK  status: ('A' for Active; 'I' for Inactive)
REMARK    1  A    between atoms: C2_2  and  C3_3 
REMARK    2  A    between atoms: C3_3  and  C4_4 
REMARK    3  A    between atoms: C13_13  and  N1_14 
ROOT
HETATM    1  C4  UNL     1      -4.169   0.046  18.218  1.00  0.00    -0.008 C 
HETATM    2  C5  UNL     1      -4.847  -1.136  17.611  1.00  0.00     0.009 C 
HETATM    3  C6  UNL     1      -4.549  -2.436  18.317  1.00  0.00    -0.012 C 
HETATM    4  C7  UNL     1      -5.767  -3.211  18.579  1.00  0.00     0.009 C 
HETATM    5  C8  UNL     1      -6.365  -3.159  19.923  1.00  0.00    -0.014 C 
HETATM    6  C9  UNL     1      -5.640  -3.963  20.974  1.00  0.00     0.005 C 
HETATM    7  C10 UNL     1      -4.965  -2.952  21.845  1.00  0.00     0.007 C 
HETATM    8  C11 UNL     1      -5.285  -1.589  21.289  1.00  0.00     0.022 C 
HETATM    9  C12 UNL     1      -6.548  -1.817  20.522  1.00  0.00     0.011 C 
HETATM   10  C13 UNL     1      -4.149  -1.117  20.429  1.00  0.00     0.128 C 
HETATM   11  C14 UNL     1      -4.440   0.154  19.703  1.00  0.00     0.043 C 
HETATM   12  C15 UNL     1      -3.657  -2.150  19.472  1.00  0.00     0.043 C 
ENDROOT
BRANCH  10  13
HETATM   13  N1  UNL     1      -3.030  -0.834  21.347  1.00  0.00    -0.070 N 
ATOM     14  H13 UNL     1      -3.214  -0.061  21.985  1.00  0.00     0.275 HD
ATOM     15  H12 UNL     1      -2.896  -1.553  22.058  1.00  0.00     0.275 HD
ATOM     16  H11 UNL     1      -2.210  -0.689  20.757  1.00  0.00     0.275 HD
ENDBRANCH  10  13
BRANCH   1  17
HETATM   17  C3  UNL     1      -4.699   1.291  17.533  1.00  0.00     0.031 C 
BRANCH  17  18
HETATM   18  C2  UNL     1      -3.945   1.571  16.291  1.00  0.00    -0.037 C 
HETATM   19  C1  UNL     1      -2.752   1.078  16.036  1.00  0.00     0.007 C 
ENDBRANCH  17  18
ENDBRANCH   1  17
TORSDOF 3
ENDMDL
MODEL 3
REMARK VINA RESULT: -5.861570980      1.727      2.660
REMARK  3 active torsions:
REMARK  status: ('A' for Active; 'I' for Inactive)
REMARK    1  A    between atoms: C2_2  and  C3_3 
REMARK    2  A    between atoms: C3_3  and  C4_4 
REMARK    3  A    between atoms: C13_13  and  N1_14 
ROOT
HETATM    1  C4  UNL     1      -4.778   0.215  18.329  1.00  0.00    -0.008 C 
HETATM    2  C5  UNL     1      -4.863   0.331  19.814  1.00  0.00     0.009 C 
HETATM    3  C6  UNL     1      -5.640  -0.786  20.468  1.00  0.00    -0.012 C 
HETATM    4  C7  UNL     1      -4.927  -1.351  21.618  1.00  0.00     0.009 C 
HETATM    5  C8  UNL     1      -4.177  -2.605  21.442  1.00  0.00    -0.014 C 
HETATM    6  C9  UNL     1      -5.027  -3.850  21.370  1.00  0.00     0.005 C 
HETATM    7  C10 UNL     1      -4.980  -4.275  19.936  1.00  0.00     0.007 C 
HETATM    8  C11 UNL     1      -4.130  -3.275  19.195  1.00  0.00     0.022 C 
HETATM    9  C12 UNL     1      -3.275  -2.685  20.271  1.00  0.00     0.011 C 
HETATM   10  C13 UNL     1      -5.013  -2.265  18.523  1.00  0.00     0.128 C 
HETATM   11  C14 UNL     1      -4.259  -1.139  17.896  1.00  0.00     0.043 C 
HETATM   12  C15 UNL     1      -6.088  -1.729  19.408  1.00  0.00     0.043 C 
ENDROOT
BRANCH  10  13
HETATM   13  N1  UNL     1      -5.695  -2.980  17.428  1.00  0.00    -0.070 N 
ATOM     14  H13 UNL     1      -5.244  -2.860  16.522  1.00  0.00     0.275 HD
ATOM     15  H12 UNL     1      -5.597  -3.994  17.483  1.00  0.00     0.275 HD
ATOM     16  H11 UNL     1      -6.665  -2.664  17.444  1.00  0.00     0.275 HD
ENDBRANCH  10  13
BRANCH   1  17
HETATM   17  C3  UNL     1      -3.825   1.285  17.832  1.00  0.00     0.031 C 
BRANCH  17  18
HETATM   18  C2  UNL     1      -3.710   2.387  18.813  1.00  0.00    -0.037 C 
HETATM   19  C1  UNL     1      -2.679   3.201  18.875  1.00  0.00     0.007 C 
ENDBRANCH  17  18
ENDBRANCH   1  17
TORSDOF 3
ENDMDL
MODEL 4
REMARK VINA RESULT: -5.594636045      1.228      1.536
REMARK  3 active torsions:
REMARK  status: ('A' for Active; 'I' for Inactive)
REMARK    1  A    between atoms: C2_2  and  C3_3 
REMARK    2  A    between atoms: C3_3  and  C4_4 
REMARK    3  A    between atoms: C13_13  and  N1_14 
ROOT
HETATM    1  C4  UNL     1      -4.070   0.417  19.475  1.00  0.00    -0.008 C 
HETATM    2  C5  UNL     1      -3.806  -0.598  18.414  1.00  0.00     0.009 C 
HETATM    3  C6  UNL     1      -3.787  -2.018  18.925  1.00  0.00    -0.012 C 
HETATM    4  C7  UNL     1      -4.594  -2.913  18.089  1.00  0.00     0.009 C 
HETATM    5  C8  UNL     1      -5.953  -3.267  18.535  1.00  0.00    -0.014 C 
HETATM    6  C9  UNL     1      -6.013  -4.275  19.656  1.00  0.00     0.005 C 
HETATM    7  C10 UNL     1      -6.423  -3.495  20.864  1.00  0.00     0.007 C 
HETATM    8  C11 UNL     1      -6.578  -2.056  20.443  1.00  0.00     0.022 C 
HETATM    9  C12 UNL     1      -6.824  -2.152  18.971  1.00  0.00     0.011 C 
HETATM   10  C13 UNL     1      -5.330  -1.296  20.785  1.00  0.00     0.128 C 
HETATM   11  C14 UNL     1      -5.323   0.102  20.262  1.00  0.00     0.043 C 
HETATM   12  C15 UNL     1      -4.075  -1.997  20.384  1.00  0.00     0.043 C 
ENDROOT
BRANCH  10  13
HETATM   13  N1  UNL     1      -5.299  -1.199  22.256  1.00  0.00    -0.070 N 
ATOM     14  H13 UNL     1      -5.681  -0.323  22.614  1.00  0.00     0.275 HD
ATOM     15  H12 UNL     1      -5.961  -1.821  22.719  1.00  0.00     0.275 HD
ATOM     16  H11 UNL     1      -4.330  -1.361  22.530  1.00  0.00     0.275 HD
ENDBRANCH  10  13
BRANCH   1  17
HETATM   17  C3  UNL     1      -4.244   1.763  18.797  1.00  0.00     0.031 C 
BRANCH  17  18
HETATM   18  C2  UNL     1      -3.656   2.847  19.615  1.00  0.00    -0.037 C 
HETATM   19  C1  UNL     1      -2.496   3.409  19.354  1.00  0.00     0.007 C 
ENDBRANCH  17  18
ENDBRANCH   1  17
TORSDOF 3
ENDMDL
MODEL 5
REMARK VINA RESULT: -5.374217660      1.874      3.018
REMARK  3 active torsions:
REMARK  status: ('A' for Active; 'I' for Inactive)
REMARK    1  A    between atoms: C2_2  and  C3_3 
REMARK    2  A    between atoms: C3_3  and  C4_4 
REMARK    3  A    between atoms: C13_13  and  N1_14 
ROOT
HETATM    1  C4  UNL     1      -4.710   0.242  19.517  1.00  0.00    -0.008 C 
HETATM    2  C5  UNL     1      -3.656  -0.516  20.253  1.00  0.00     0.009 C 
HETATM    3  C6  UNL     1      -4.185  -1.708  21.013  1.00  0.00    -0.012 C 
HETATM    4  C7  UNL     1      -3.382  -2.911  20.775  1.00  0.00     0.009 C 
HETATM    5  C8  UNL     1      -3.866  -3.906  19.803  1.00  0.00    -0.014 C 
HETATM    6  C9  UNL     1      -5.001  -4.773  20.292  1.00  0.00     0.005 C 
HETATM    7  C10 UNL     1      -6.210  -4.289  19.555  1.00  0.00     0.007 C 
HETATM    8  C11 UNL     1      -5.774  -3.149  18.670  1.00  0.00     0.022 C 
HETATM    9  C12 UNL     1      -4.311  -3.394  18.487  1.00  0.00     0.011 C 
HETATM   10  C13 UNL     1      -6.074  -1.844  19.348  1.00  0.00     0.128 C 
HETATM   11  C14 UNL     1      -5.533  -0.657  18.621  1.00  0.00     0.043 C 
HETATM   12  C15 UNL     1      -5.650  -1.803  20.778  1.00  0.00     0.043 C 
ENDROOT
BRANCH  10  13
HETATM   13  N1  UNL     1      -7.543  -1.709  19.346  1.00  0.00    -0.070 N 
ATOM     14  H13 UNL     1      -7.941  -1.597  20.278  1.00  0.00     0.275 HD
ATOM     15  H12 UNL     1      -7.868  -0.821  18.965  1.00  0.00     0.275 HD
ATOM     16  H11 UNL     1      -7.902  -2.522  18.846  1.00  0.00     0.275 HD
ENDBRANCH  10  13
BRANCH   1  17
HETATM   17  C3  UNL     1      -4.020   1.286  18.660  1.00  0.00     0.031 C 
BRANCH  17  18
HETATM   18  C2  UNL     1      -4.195   0.987  17.221  1.00  0.00    -0.037 C 
HETATM   19  C1  UNL     1      -3.201   0.943  16.361  1.00  0.00     0.007 C 
ENDBRANCH  17  18
ENDBRANCH   1  17
TORSDOF 3
ENDMDL
