MODEL 1
REMARK VINA RESULT: -8.164934763      0.000      0.000
REMARK  2 active torsions:
REMARK  status: ('A' for Active; 'I' for Inactive)
REMARK    1  A    between atoms: C5_5  and  N1_6 
REMARK    2  A    between atoms: N1_6  and  C6_8 
ROOT
HETATM    1  C1  UNL     1      -6.047  -2.527  19.183  1.00  0.00     0.040 C 
HETATM    2  C2  UNL     1      -4.859  -1.838  18.526  1.00  0.00     0.182 C 
HETATM    3  C3  UNL     1      -5.239  -0.572  17.860  1.00  0.00     0.034 C 
HETATM    4  C4  UNL     1      -4.196   0.504  18.165  1.00  0.00     0.028 C 
HETATM    5  C5  UNL     1      -4.143   0.726  19.643  1.00  0.00     0.102 C 
HETATM    6  C13 UNL     1      -4.040  -0.603  20.400  1.00  0.00     0.257 C 
HETATM    7  N2  UNL     1      -3.850  -1.731  19.542  1.00  0.00    -0.069 N 
ATOM      8  H21 UNL     1      -2.917  -1.722  19.130  1.00  0.00     0.277 HD
ATOM      9  H22 UNL     1      -3.785  -2.594  20.083  1.00  0.00     0.277 HD
ENDROOT
BRANCH   5  10
HETATM   10  N1  UNL     1      -3.184   1.634  20.125  1.00  0.00    -0.411 N 
ATOM     11  H1  UNL     1      -2.350   1.260  20.578  1.00  0.00     0.154 HD
BRANCH  10  12
HETATM   12  C6  UNL     1      -3.315   3.024  20.016  1.00  0.00     0.077 C 
HETATM   13  C7  UNL     1      -4.696   3.533  20.105  1.00  0.00     0.024 C 
HETATM   14  C8  UNL     1      -4.898   4.837  19.339  1.00  0.00     0.002 C 
HETATM   15  C9  UNL     1      -4.072   5.873  20.049  1.00  0.00     0.000 C 
HETATM   16  C10 UNL     1      -2.603   5.695  19.850  1.00  0.00     0.000 C 
HETATM   17  C11 UNL     1      -2.228   4.860  18.673  1.00  0.00     0.002 C 
HETATM   18  C12 UNL     1      -2.633   3.442  18.717  1.00  0.00     0.024 C 
ENDBRANCH  10  12
ENDBRANCH   5  10
TORSDOF 2
ENDMDL
MODEL 2
REMARK VINA RESULT: -7.304461530      1.729      6.278
REMARK  2 active torsions:
REMARK  status: ('A' for Active; 'I' for Inactive)
REMARK    1  A    between atoms: C5_5  and  N1_6 
REMARK    2  A    between atoms: N1_6  and  C6_8 
ROOT
HETATM    1  C1  UNL     1      -1.938   3.669  19.321  1.00  0.00     0.040 C 
HETATM    2  C2  UNL     1      -3.221   3.350  18.567  1.00  0.00     0.182 C 
HETATM    3  C3  UNL     1      -3.028   2.296  17.546  1.00  0.00     0.034 C 
HETATM    4  C4  UNL     1      -4.199   1.314  17.594  1.00  0.00     0.028 C 
HETATM    5  C5  UNL     1      -4.249   0.680  18.948  1.00  0.00     0.102 C 
HETATM    6  C13 UNL     1      -4.157   1.735  20.057  1.00  0.00     0.257 C 
HETATM    7  N2  UNL     1      -4.213   3.077  19.568  1.00  0.00    -0.069 N 
ATOM      8  H21 UNL     1      -5.148   3.302  19.227  1.00  0.00     0.277 HD
ATOM      9  H22 UNL     1      -4.151   3.747  20.335  1.00  0.00     0.277 HD
ENDROOT
BRANCH   5  10
HETATM   10  N1  UNL     1      -5.310  -0.205  19.207  1.00  0.00    -0.411 N 
ATOM     11  H1  UNL     1      -6.263   0.129  19.066  1.00  0.00     0.154 HD
BRANCH  10  12
HETATM   12  C6  UNL     1      -5.125  -1.521  19.650  1.00  0.00     0.077 C 
HETATM   13  C7  UNL     1      -5.732  -2.561  18.799  1.00  0.00     0.024 C 
HETATM   14  C8  UNL     1      -6.119  -3.814  19.579  1.00  0.00     0.002 C 
HETATM   15  C9  UNL     1      -4.832  -4.426  20.053  1.00  0.00     0.000 C 
HETATM   16  C10 UNL     1      -4.176  -3.649  21.147  1.00  0.00     0.000 C 
HETATM   17  C11 UNL     1      -5.077  -2.709  21.873  1.00  0.00     0.002 C 
HETATM   18  C12 UNL     1      -5.631  -1.590  21.088  1.00  0.00     0.024 C 
ENDBRANCH  10  12
ENDBRANCH   5  10
TORSDOF 2
ENDMDL
MODEL 3
REMARK VINA RESULT: -7.254087324      1.457      5.958
REMARK  2 active torsions:
REMARK  status: ('A' for Active; 'I' for Inactive)
REMARK    1  A    between atoms: C5_5  and  N1_6 
REMARK    2  A    between atoms: N1_6  and  C6_8 
ROOT
HETATM    1  C1  UNL     1      -2.620   5.319  18.900  1.00  0.00     0.040 C 
HETATM    2  C2  UNL     1      -2.873   4.129  19.816  1.00  0.00     0.182 C 
HETATM    3  C3  UNL     1      -4.315   3.843  19.984  1.00  0.00     0.034 C 
HETATM    4  C4  UNL     1      -4.553   2.334  19.904  1.00  0.00     0.028 C 
HETATM    5  C5  UNL     1      -4.109   1.842  18.563  1.00  0.00     0.102 C 
HETATM    6  C13 UNL     1      -2.710   2.364  18.216  1.00  0.00     0.257 C 
HETATM    7  N2  UNL     1      -2.077   3.052  19.298  1.00  0.00    -0.069 N 
ATOM      8  H21 UNL     1      -1.814   2.404  20.039  1.00  0.00     0.277 HD
ATOM      9  H22 UNL     1      -1.150   3.381  19.028  1.00  0.00     0.277 HD
ENDROOT
BRANCH   5  10
HETATM   10  N1  UNL     1      -4.183   0.458  18.327  1.00  0.00    -0.411 N 
ATOM     11  H1  UNL     1      -3.940   0.113  17.399  1.00  0.00     0.154 HD
BRANCH  10  12
HETATM   12  C6  UNL     1      -4.572  -0.470  19.301  1.00  0.00     0.077 C 
HETATM   13  C7  UNL     1      -3.466  -1.100  20.045  1.00  0.00     0.024 C 
HETATM   14  C8  UNL     1      -3.811  -2.498  20.549  1.00  0.00     0.002 C 
HETATM   15  C9  UNL     1      -4.894  -2.319  21.574  1.00  0.00     0.000 C 
HETATM   16  C10 UNL     1      -6.212  -1.939  20.982  1.00  0.00     0.000 C 
HETATM   17  C11 UNL     1      -6.353  -2.239  19.528  1.00  0.00     0.002 C 
HETATM   18  C12 UNL     1      -5.461  -1.501  18.614  1.00  0.00     0.024 C 
ENDBRANCH  10  12
ENDBRANCH   5  10
TORSDOF 2
ENDMDL
MODEL 4
REMARK VINA RESULT: -7.195960162      1.300      1.893
REMARK  2 active torsions:
REMARK  status: ('A' for Active; 'I' for Inactive)
REMARK    1  A    between atoms: C5_5  and  N1_6 
REMARK    2  A    between atoms: N1_6  and  C6_8 
ROOT
HETATM    1  C1  UNL     1      -4.544  -3.695  18.552  1.00  0.00     0.040 C 
HETATM    2  C2  UNL     1      -4.727  -2.962  19.874  1.00  0.00     0.182 C 
HETATM    3  C3  UNL     1      -3.492  -2.274  20.313  1.00  0.00     0.034 C 
HETATM    4  C4  UNL     1      -3.839  -0.881  20.838  1.00  0.00     0.028 C 
HETATM    5  C5  UNL     1      -4.476  -0.089  19.741  1.00  0.00     0.102 C 
HETATM    6  C13 UNL     1      -5.589  -0.891  19.054  1.00  0.00     0.257 C 
HETATM    7  N2  UNL     1      -5.883  -2.128  19.709  1.00  0.00    -0.069 N 
ATOM      8  H21 UNL     1      -6.347  -1.966  20.603  1.00  0.00     0.277 HD
ATOM      9  H22 UNL     1      -6.628  -2.629  19.224  1.00  0.00     0.277 HD
ENDROOT
BRANCH   5  10
HETATM   10  N1  UNL     1      -4.933   1.201  20.057  1.00  0.00    -0.411 N 
ATOM     11  H1  UNL     1      -5.870   1.300  20.447  1.00  0.00     0.154 HD
BRANCH  10  12
HETATM   12  C6  UNL     1      -4.169   2.359  19.863  1.00  0.00     0.077 C 
HETATM   13  C7  UNL     1      -4.866   3.626  20.151  1.00  0.00     0.024 C 
HETATM   14  C8  UNL     1      -4.329   4.797  19.331  1.00  0.00     0.002 C 
HETATM   15  C9  UNL     1      -2.922   5.029  19.804  1.00  0.00     0.000 C 
HETATM   16  C10 UNL     1      -1.968   3.966  19.368  1.00  0.00     0.000 C 
HETATM   17  C11 UNL     1      -2.433   3.145  18.213  1.00  0.00     0.002 C 
HETATM   18  C12 UNL     1      -3.629   2.311  18.437  1.00  0.00     0.024 C 
ENDBRANCH  10  12
ENDBRANCH   5  10
TORSDOF 2
ENDMDL
MODEL 5
REMARK VINA RESULT: -7.128960676      1.498      5.983
REMARK  2 active torsions:
REMARK  status: ('A' for Active; 'I' for Inactive)
REMARK    1  A    between atoms: C5_5  and  N1_6 
REMARK    2  A    between atoms: N1_6  and  C6_8 
ROOT
HETATM    1  C1  UNL     1      -4.911   5.476  20.746  1.00  0.00     0.040 C 
HETATM    2  C2  UNL     1      -4.356   4.852  19.473  1.00  0.00     0.182 C 
HETATM    3  C3  UNL     1      -2.952   4.408  19.628  1.00  0.00     0.034 C 
HETATM    4  C4  UNL     1      -2.773   3.034  18.981  1.00  0.00     0.028 C 
HETATM    5  C5  UNL     1      -3.674   2.053  19.662  1.00  0.00     0.102 C 
HETATM    6  C13 UNL     1      -5.100   2.604  19.786  1.00  0.00     0.257 C 
HETATM    7  N2  UNL     1      -5.295   3.836  19.087  1.00  0.00    -0.069 N 
ATOM      8  H21 UNL     1      -5.279   3.690  18.078  1.00  0.00     0.277 HD
ATOM      9  H22 UNL     1      -6.254   4.167  19.192  1.00  0.00     0.277 HD
ENDROOT
BRANCH   5  10
HETATM   10  N1  UNL     1      -3.702   0.743  19.155  1.00  0.00    -0.411 N 
ATOM     11  H1  UNL     1      -3.253   0.562  18.257  1.00  0.00     0.154 HD
BRANCH  10  12
HETATM   12  C6  UNL     1      -4.317  -0.327  19.818  1.00  0.00     0.077 C 
HETATM   13  C7  UNL     1      -3.422  -1.137  20.666  1.00  0.00     0.024 C 
HETATM   14  C8  UNL     1      -3.885  -2.585  20.801  1.00  0.00     0.002 C 
HETATM   15  C9  UNL     1      -5.180  -2.541  21.562  1.00  0.00     0.000 C 
HETATM   16  C10 UNL     1      -6.317  -1.994  20.763  1.00  0.00     0.000 C 
HETATM   17  C11 UNL     1      -6.111  -2.016  19.287  1.00  0.00     0.002 C 
HETATM   18  C12 UNL     1      -5.023  -1.169  18.761  1.00  0.00     0.024 C 
ENDBRANCH  10  12
ENDBRANCH   5  10
TORSDOF 2
ENDMDL
