MODEL 1
REMARK VINA RESULT: -6.603819747      0.000      0.000
REMARK  3 active torsions:
REMARK  status: ('A' for Active; 'I' for Inactive)
REMARK    1  A    between atoms: C2_2  and  C3_3 
REMARK    2  A    between atoms: C12_15  and  C13_16 
REMARK    3  A    between atoms: C13_16  and  O1_17 
ROOT
HETATM    1  C3  UNL     1      -6.480  -2.456  21.615  1.00  0.00    -0.012 C 
HETATM    2  C4  UNL     1      -5.046  -2.669  21.855  1.00  0.00     0.009 C 
HETATM    3  C5  UNL     1      -4.108  -2.850  20.749  1.00  0.00    -0.010 C 
HETATM    4  C6  UNL     1      -3.239  -1.651  20.349  1.00  0.00     0.038 C 
HETATM    5  C7  UNL     1      -4.000  -0.648  19.542  1.00  0.00     0.193 C 
HETATM    6  N1  UNL     1      -5.338  -0.730  20.117  1.00  0.00    -0.061 N 
ATOM      7  H11 UNL     1      -5.920   0.102  20.023  1.00  0.00     0.278 HD
ATOM      8  H12 UNL     1      -5.391  -0.745  21.135  1.00  0.00     0.278 HD
HETATM    9  C8  UNL     1      -5.817  -1.944  19.419  1.00  0.00     0.127 C 
HETATM   10  C9  UNL     1      -6.962  -2.374  20.163  1.00  0.00     0.043 C 
HETATM   11  C10 UNL     1      -4.850  -3.111  19.481  1.00  0.00     0.043 C 
HETATM   12  C11 UNL     1      -5.761  -1.436  18.057  1.00  0.00     0.047 C 
HETATM   13  C12 UNL     1      -4.291  -0.934  18.121  1.00  0.00     0.042 C 
ENDROOT
BRANCH  13  14
HETATM   14  C13 UNL     1      -4.319   0.415  17.385  1.00  0.00     0.170 C 
BRANCH  14  15
HETATM   15  O1  UNL     1      -4.903   1.392  18.189  1.00  0.00    -0.400 OA
ATOM     16  H1  UNL     1      -5.793   1.562  17.906  1.00  0.00     0.209 HD
ENDBRANCH  14  15
ENDBRANCH  13  14
BRANCH   1  17
HETATM   17  C2  UNL     1      -7.360  -3.411  22.401  1.00  0.00     0.000 C 
HETATM   18  C1  UNL     1      -8.767  -3.452  21.840  1.00  0.00     0.005 C 
ENDBRANCH   1  17
TORSDOF 3
ENDMDL
MODEL 2
REMARK VINA RESULT: -6.428065225      1.965      4.699
REMARK  3 active torsions:
REMARK  status: ('A' for Active; 'I' for Inactive)
REMARK    1  A    between atoms: C2_2  and  C3_3 
REMARK    2  A    between atoms: C12_15  and  C13_16 
REMARK    3  A    between atoms: C13_16  and  O1_17 
ROOT
HETATM    1  C3  UNL     1      -4.798   0.106  18.283  1.00  0.00    -0.012 C 
HETATM    2  C4  UNL     1      -4.632  -1.220  17.672  1.00  0.00     0.009 C 
HETATM    3  C5  UNL     1      -4.262  -2.386  18.471  1.00  0.00    -0.010 C 
HETATM    4  C6  UNL     1      -5.375  -3.374  18.846  1.00  0.00     0.038 C 
HETATM    5  C7  UNL     1      -6.221  -2.868  19.971  1.00  0.00     0.193 C 
HETATM    6  N1  UNL     1      -6.238  -1.429  19.732  1.00  0.00    -0.061 N 
ATOM      7  H11 UNL     1      -7.041  -0.920  20.102  1.00  0.00     0.278 HD
ATOM      8  H12 UNL     1      -6.401  -1.135  18.769  1.00  0.00     0.278 HD
HETATM    9  C8  UNL     1      -4.920  -1.081  20.308  1.00  0.00     0.127 C 
HETATM   10  C9  UNL     1      -4.625   0.225  19.801  1.00  0.00     0.043 C 
HETATM   11  C10 UNL     1      -3.784  -1.958  19.818  1.00  0.00     0.043 C 
HETATM   12  C11 UNL     1      -5.184  -1.480  21.682  1.00  0.00     0.047 C 
HETATM   13  C12 UNL     1      -5.692  -2.912  21.351  1.00  0.00     0.042 C 
ENDROOT
BRANCH  13  14
HETATM   14  C13 UNL     1      -6.891  -3.114  22.290  1.00  0.00     0.170 C 
BRANCH  14  15
HETATM   15  O1  UNL     1      -8.081  -3.084  21.566  1.00  0.00    -0.400 OA
ATOM     16  H1  UNL     1      -8.427  -2.200  21.539  1.00  0.00     0.209 HD
ENDBRANCH  14  15
ENDBRANCH  13  14
BRANCH   1  17
HETATM   17  C2  UNL     1      -3.993   1.186  17.582  1.00  0.00     0.000 C 
HETATM   18  C1  UNL     1      -3.344   0.657  16.319  1.00  0.00     0.005 C 
ENDBRANCH   1  17
TORSDOF 3
ENDMDL
MODEL 3
REMARK VINA RESULT: -5.854918616      1.283      1.956
REMARK  3 active torsions:
REMARK  status: ('A' for Active; 'I' for Inactive)
REMARK    1  A    between atoms: C2_2  and  C3_3 
REMARK    2  A    between atoms: C12_15  and  C13_16 
REMARK    3  A    between atoms: C13_16  and  O1_17 
ROOT
HETATM    1  C3  UNL     1      -5.151  -2.373  21.076  1.00  0.00    -0.012 C 
HETATM    2  C4  UNL     1      -5.229  -3.334  19.968  1.00  0.00     0.009 C 
HETATM    3  C5  UNL     1      -5.653  -2.924  18.631  1.00  0.00    -0.010 C 
HETATM    4  C6  UNL     1      -4.564  -2.721  17.570  1.00  0.00     0.038 C 
HETATM    5  C7  UNL     1      -3.843  -1.421  17.744  1.00  0.00     0.193 C 
HETATM    6  N1  UNL     1      -3.831  -1.258  19.193  1.00  0.00    -0.061 N 
ATOM      7  H11 UNL     1      -3.079  -0.684  19.576  1.00  0.00     0.278 HD
ATOM      8  H12 UNL     1      -3.580  -2.084  19.737  1.00  0.00     0.278 HD
HETATM    9  C8  UNL     1      -5.206  -0.744  19.382  1.00  0.00     0.127 C 
HETATM   10  C9  UNL     1      -5.475  -0.905  20.779  1.00  0.00     0.043 C 
HETATM   11  C10 UNL     1      -6.271  -1.566  18.681  1.00  0.00     0.043 C 
HETATM   12  C11 UNL     1      -5.072   0.488  18.622  1.00  0.00     0.047 C 
HETATM   13  C12 UNL     1      -4.506  -0.166  17.330  1.00  0.00     0.042 C 
ENDROOT
BRANCH  13  14
HETATM   14  C13 UNL     1      -3.402   0.798  16.870  1.00  0.00     0.170 C 
BRANCH  14  15
HETATM   15  O1  UNL     1      -3.151   1.750  17.855  1.00  0.00    -0.400 OA
ATOM     16  H1  UNL     1      -2.850   2.560  17.461  1.00  0.00     0.209 HD
ENDBRANCH  14  15
ENDBRANCH  13  14
BRANCH   1  17
HETATM   17  C2  UNL     1      -5.903  -2.831  22.312  1.00  0.00     0.000 C 
HETATM   18  C1  UNL     1      -7.376  -3.033  22.018  1.00  0.00     0.005 C 
ENDBRANCH   1  17
TORSDOF 3
ENDMDL
MODEL 4
REMARK VINA RESULT: -5.844990516      1.880      2.888
REMARK  3 active torsions:
REMARK  status: ('A' for Active; 'I' for Inactive)
REMARK    1  A    between atoms: C2_2  and  C3_3 
REMARK    2  A    between atoms: C12_15  and  C13_16 
REMARK    3  A    between atoms: C13_16  and  O1_17 
ROOT
HETATM    1  C3  UNL     1      -4.301  -3.043  19.710  1.00  0.00    -0.012 C 
HETATM    2  C4  UNL     1      -4.497  -2.827  18.270  1.00  0.00     0.009 C 
HETATM    3  C5  UNL     1      -5.206  -1.652  17.765  1.00  0.00    -0.010 C 
HETATM    4  C6  UNL     1      -4.363  -0.501  17.201  1.00  0.00     0.038 C 
HETATM    5  C7  UNL     1      -3.749   0.330  18.283  1.00  0.00     0.193 C 
HETATM    6  N1  UNL     1      -3.476  -0.656  19.323  1.00  0.00    -0.061 N 
ATOM      7  H11 UNL     1      -2.723  -0.429  19.973  1.00  0.00     0.278 HD
ATOM      8  H12 UNL     1      -3.049  -1.529  19.014  1.00  0.00     0.278 HD
HETATM    9  C8  UNL     1      -4.833  -0.761  19.905  1.00  0.00     0.127 C 
HETATM   10  C9  UNL     1      -4.815  -1.969  20.675  1.00  0.00     0.043 C 
HETATM   11  C10 UNL     1      -5.929  -0.969  18.878  1.00  0.00     0.043 C 
HETATM   12  C11 UNL     1      -4.964   0.609  20.375  1.00  0.00     0.047 C 
HETATM   13  C12 UNL     1      -4.594   1.289  19.026  1.00  0.00     0.042 C 
ENDROOT
BRANCH  13  14
HETATM   14  C13 UNL     1      -3.695   2.467  19.430  1.00  0.00     0.170 C 
BRANCH  14  15
HETATM   15  O1  UNL     1      -2.872   2.103  20.494  1.00  0.00    -0.400 OA
ATOM     16  H1  UNL     1      -3.307   1.461  21.041  1.00  0.00     0.209 HD
ENDBRANCH  14  15
ENDBRANCH  13  14
BRANCH   1  17
HETATM   17  C2  UNL     1      -4.758  -4.416  20.170  1.00  0.00     0.000 C 
HETATM   18  C1  UNL     1      -6.247  -4.601  19.960  1.00  0.00     0.005 C 
ENDBRANCH   1  17
TORSDOF 3
ENDMDL
MODEL 5
REMARK VINA RESULT: -5.601610979      1.092      1.160
REMARK  3 active torsions:
REMARK  status: ('A' for Active; 'I' for Inactive)
REMARK    1  A    between atoms: C2_2  and  C3_3 
REMARK    2  A    between atoms: C12_15  and  C13_16 
REMARK    3  A    between atoms: C13_16  and  O1_17 
ROOT
HETATM    1  C3  UNL     1      -6.514  -2.504  20.771  1.00  0.00    -0.012 C 
HETATM    2  C4  UNL     1      -5.178  -2.542  21.382  1.00  0.00     0.009 C 
HETATM    3  C5  UNL     1      -3.972  -2.318  20.588  1.00  0.00    -0.010 C 
HETATM    4  C6  UNL     1      -3.304  -0.940  20.682  1.00  0.00     0.038 C 
HETATM    5  C7  UNL     1      -4.029   0.093  19.878  1.00  0.00     0.193 C 
HETATM    6  N1  UNL     1      -5.420  -0.325  20.008  1.00  0.00    -0.061 N 
ATOM      7  H11 UNL     1      -6.123   0.407  19.896  1.00  0.00     0.278 HD
ATOM      8  H12 UNL     1      -5.728  -0.582  20.946  1.00  0.00     0.278 HD
HETATM    9  C8  UNL     1      -5.435  -1.405  18.996  1.00  0.00     0.127 C 
HETATM   10  C9  UNL     1      -6.614  -2.165  19.281  1.00  0.00     0.043 C 
HETATM   11  C10 UNL     1      -4.291  -2.391  19.133  1.00  0.00     0.043 C 
HETATM   12  C11 UNL     1      -5.142  -0.594  17.824  1.00  0.00     0.047 C 
HETATM   13  C12 UNL     1      -3.879   0.100  18.407  1.00  0.00     0.042 C 
ENDROOT
BRANCH  13  14
HETATM   14  C13 UNL     1      -4.003   1.561  17.947  1.00  0.00     0.170 C 
BRANCH  14  15
HETATM   15  O1  UNL     1      -4.751   2.294  18.865  1.00  0.00    -0.400 OA
ATOM     16  H1  UNL     1      -5.022   3.120  18.483  1.00  0.00     0.209 HD
ENDBRANCH  14  15
ENDBRANCH  13  14
BRANCH   1  17
HETATM   17  C2  UNL     1      -7.342  -3.738  21.080  1.00  0.00     0.000 C 
HETATM   18  C1  UNL     1      -7.227  -4.770  19.976  1.00  0.00     0.005 C 
ENDBRANCH   1  17
TORSDOF 3
ENDMDL
