MODEL 1
REMARK VINA RESULT: -7.160162508      0.000      0.000
REMARK  1 active torsions:
REMARK  status: ('A' for Active; 'I' for Inactive)
REMARK    1  A    between atoms: C6_12  and  O1_13 
ROOT
HETATM    1  N1  UNL     1      39.719  -2.877   5.109  1.00  0.00    -0.195 NA
HETATM    2  C1  UNL     1      38.627  -2.701   5.461  1.00  0.00     0.086 C 
HETATM    3  C2  UNL     1      37.243  -2.495   5.916  1.00  0.00     0.229 C 
HETATM    4  C3  UNL     1      37.130  -2.714   7.372  1.00  0.00     0.070 A 
HETATM    5  C4  UNL     1      37.471  -1.630   8.191  1.00  0.00     0.118 A 
HETATM    6  N2  UNL     1      37.382  -1.788   9.530  1.00  0.00    -0.319 N 
ATOM      7  H2  UNL     1      37.626  -1.014  10.149  1.00  0.00     0.170 HD
HETATM    8  C5  UNL     1      36.975  -2.957  10.052  1.00  0.00     0.179 A 
HETATM    9  S1  UNL     1      36.857  -3.176  11.661  1.00  0.00    -0.040 SA
HETATM   10  N3  UNL     1      36.645  -4.001   9.249  1.00  0.00    -0.313 N 
ATOM     11  H3  UNL     1      36.339  -4.878   9.671  1.00  0.00     0.170 HD
HETATM   12  C6  UNL     1      36.714  -3.905   7.913  1.00  0.00     0.154 A 
HETATM   13  N4  UNL     1      37.896  -0.416   7.586  1.00  0.00    -0.353 N 
ATOM     14  H4  UNL     1      38.451   0.250   8.122  1.00  0.00     0.163 HD
HETATM   15  C7  UNL     1      37.548  -0.126   6.232  1.00  0.00     0.216 C 
HETATM   16  C8  UNL     1      36.587   1.005   6.187  1.00  0.00     0.011 A 
HETATM   17  C9  UNL     1      36.731   2.354   6.429  1.00  0.00     0.030 A 
HETATM   18  C10 UNL     1      35.643   3.188   6.308  1.00  0.00     0.088 A 
HETATM   19  N5  UNL     1      34.431   2.681   5.954  1.00  0.00    -0.373 N 
ATOM     20  H5  UNL     1      33.622   3.296   5.864  1.00  0.00     0.164 HD
HETATM   21  C11 UNL     1      34.310   1.348   5.720  1.00  0.00     0.118 A 
HETATM   22  C12 UNL     1      35.349   0.473   5.822  1.00  0.00     0.068 A 
HETATM   23  N6  UNL     1      35.497  -0.931   5.639  1.00  0.00    -0.313 N 
ATOM     24  H6  UNL     1      34.749  -1.623   5.586  1.00  0.00     0.181 HD
HETATM   25  N7  UNL     1      36.860  -1.170   5.548  1.00  0.00    -0.180 NA
ENDROOT
BRANCH  12  26
HETATM   26  O1  UNL     1      36.382  -4.959   7.098  1.00  0.00    -0.345 OA
ATOM     27  H1  UNL     1      35.615  -5.487   7.285  1.00  0.00     0.219 HD
ENDBRANCH  12  26
TORSDOF 1
ENDMDL
MODEL 2
REMARK VINA RESULT: -7.107431417      3.463      6.010
REMARK  1 active torsions:
REMARK  status: ('A' for Active; 'I' for Inactive)
REMARK    1  A    between atoms: C6_12  and  O1_13 
ROOT
HETATM    1  N1  UNL     1      36.741  -1.079   9.583  1.00  0.00    -0.195 NA
HETATM    2  C1  UNL     1      36.205  -1.399   8.604  1.00  0.00     0.086 C 
HETATM    3  C2  UNL     1      35.520  -1.789   7.362  1.00  0.00     0.229 C 
HETATM    4  C3  UNL     1      35.930  -0.919   6.241  1.00  0.00     0.070 A 
HETATM    5  C4  UNL     1      37.123  -1.264   5.592  1.00  0.00     0.118 A 
HETATM    6  N2  UNL     1      37.535  -0.494   4.561  1.00  0.00    -0.319 N 
ATOM      7  H2  UNL     1      38.401  -0.723   4.072  1.00  0.00     0.170 HD
HETATM    8  C5  UNL     1      36.813   0.570   4.175  1.00  0.00     0.179 A 
HETATM    9  S1  UNL     1      37.284   1.515   2.935  1.00  0.00    -0.040 SA
HETATM   10  N3  UNL     1      35.657   0.895   4.810  1.00  0.00    -0.313 N 
ATOM     11  H3  UNL     1      35.127   1.709   4.496  1.00  0.00     0.170 HD
HETATM   12  C6  UNL     1      35.197   0.170   5.840  1.00  0.00     0.154 A 
HETATM   13  N4  UNL     1      37.848  -2.401   6.041  1.00  0.00    -0.353 N 
ATOM     14  H4  UNL     1      38.842  -2.484   5.831  1.00  0.00     0.163 HD
HETATM   15  C7  UNL     1      37.190  -3.426   6.785  1.00  0.00     0.216 C 
HETATM   16  C8  UNL     1      37.112  -4.669   5.976  1.00  0.00     0.011 A 
HETATM   17  C9  UNL     1      38.069  -5.580   5.583  1.00  0.00     0.030 A 
HETATM   18  C10 UNL     1      37.702  -6.664   4.817  1.00  0.00     0.088 A 
HETATM   19  N5  UNL     1      36.403  -6.833   4.451  1.00  0.00    -0.373 N 
ATOM     20  H5  UNL     1      36.128  -7.635   3.883  1.00  0.00     0.164 HD
HETATM   21  C11 UNL     1      35.476  -5.923   4.848  1.00  0.00     0.118 A 
HETATM   22  C12 UNL     1      35.776  -4.831   5.606  1.00  0.00     0.068 A 
HETATM   23  N6  UNL     1      35.023  -3.751   6.147  1.00  0.00    -0.313 N 
ATOM     24  H6  UNL     1      34.080  -3.468   5.880  1.00  0.00     0.181 HD
HETATM   25  N7  UNL     1      35.829  -3.159   7.109  1.00  0.00    -0.180 NA
ENDROOT
BRANCH  12  26
HETATM   26  O1  UNL     1      34.029   0.496   6.485  1.00  0.00    -0.345 OA
ATOM     27  H1  UNL     1      33.350   0.980   6.031  1.00  0.00     0.219 HD
ENDBRANCH  12  26
TORSDOF 1
ENDMDL
MODEL 3
REMARK VINA RESULT: -6.914555193      3.760      6.135
REMARK  1 active torsions:
REMARK  status: ('A' for Active; 'I' for Inactive)
REMARK    1  A    between atoms: C6_12  and  O1_13 
ROOT
HETATM    1  N1  UNL     1      38.797   1.928   7.544  1.00  0.00    -0.195 NA
HETATM    2  C1  UNL     1      37.784   1.455   7.232  1.00  0.00     0.086 C 
HETATM    3  C2  UNL     1      36.494   0.872   6.834  1.00  0.00     0.229 C 
HETATM    4  C3  UNL     1      36.061   1.397   5.523  1.00  0.00     0.070 A 
HETATM    5  C4  UNL     1      36.599   0.765   4.394  1.00  0.00     0.118 A 
HETATM    6  N2  UNL     1      36.231   1.215   3.174  1.00  0.00    -0.319 N 
ATOM      7  H2  UNL     1      36.609   0.773   2.336  1.00  0.00     0.170 HD
HETATM    8  C5  UNL     1      35.370   2.239   3.058  1.00  0.00     0.179 A 
HETATM    9  S1  UNL     1      34.907   2.802   1.601  1.00  0.00    -0.040 SA
HETATM   10  N3  UNL     1      34.854   2.844   4.159  1.00  0.00    -0.313 N 
ATOM     11  H3  UNL     1      34.201   3.620   4.042  1.00  0.00     0.170 HD
HETATM   12  C6  UNL     1      35.182   2.443   5.396  1.00  0.00     0.154 A 
HETATM   13  N4  UNL     1      37.506  -0.314   4.574  1.00  0.00    -0.353 N 
ATOM     14  H4  UNL     1      38.150  -0.566   3.826  1.00  0.00     0.163 HD
HETATM   15  C7  UNL     1      37.517  -1.048   5.799  1.00  0.00     0.216 C 
HETATM   16  C8  UNL     1      37.016  -2.426   5.569  1.00  0.00     0.011 A 
HETATM   17  C9  UNL     1      37.561  -3.515   4.923  1.00  0.00     0.030 A 
HETATM   18  C10 UNL     1      36.854  -4.695   4.862  1.00  0.00     0.088 A 
HETATM   19  N5  UNL     1      35.625  -4.784   5.436  1.00  0.00    -0.373 N 
ATOM     20  H5  UNL     1      35.098  -5.657   5.393  1.00  0.00     0.164 HD
HETATM   21  C11 UNL     1      35.105  -3.699   6.068  1.00  0.00     0.118 A 
HETATM   22  C12 UNL     1      35.755  -2.506   6.162  1.00  0.00     0.068 A 
HETATM   23  N6  UNL     1      35.451  -1.244   6.748  1.00  0.00    -0.313 N 
ATOM     24  H6  UNL     1      34.536  -0.918   7.059  1.00  0.00     0.181 HD
HETATM   25  N7  UNL     1      36.649  -0.546   6.811  1.00  0.00    -0.180 NA
ENDROOT
BRANCH  12  26
HETATM   26  O1  UNL     1      34.662   3.052   6.511  1.00  0.00    -0.345 OA
ATOM     27  H1  UNL     1      34.715   3.995   6.611  1.00  0.00     0.219 HD
ENDBRANCH  12  26
TORSDOF 1
ENDMDL
MODEL 4
REMARK VINA RESULT: -6.735380952      3.512      6.099
REMARK  1 active torsions:
REMARK  status: ('A' for Active; 'I' for Inactive)
REMARK    1  A    between atoms: C6_12  and  O1_13 
ROOT
HETATM    1  N1  UNL     1      37.260  -2.898   9.571  1.00  0.00    -0.195 NA
HETATM    2  C1  UNL     1      36.650  -3.008   8.589  1.00  0.00     0.086 C 
HETATM    3  C2  UNL     1      35.871  -3.129   7.347  1.00  0.00     0.229 C 
HETATM    4  C3  UNL     1      36.143  -1.994   6.442  1.00  0.00     0.070 A 
HETATM    5  C4  UNL     1      37.284  -2.101   5.638  1.00  0.00     0.118 A 
HETATM    6  N2  UNL     1      37.571  -1.083   4.796  1.00  0.00    -0.319 N 
ATOM      7  H2  UNL     1      38.397  -1.135   4.199  1.00  0.00     0.170 HD
HETATM    8  C5  UNL     1      36.774  -0.003   4.739  1.00  0.00     0.179 A 
HETATM    9  S1  UNL     1      37.093   1.238   3.733  1.00  0.00    -0.040 SA
HETATM   10  N3  UNL     1      35.669   0.091   5.522  1.00  0.00    -0.313 N 
ATOM     11  H3  UNL     1      35.081   0.922   5.459  1.00  0.00     0.170 HD
HETATM   12  C6  UNL     1      35.334  -0.886   6.378  1.00  0.00     0.154 A 
HETATM   13  N4  UNL     1      38.092  -3.266   5.738  1.00  0.00    -0.353 N 
ATOM     14  H4  UNL     1      39.065  -3.235   5.436  1.00  0.00     0.163 HD
HETATM   15  C7  UNL     1      37.546  -4.477   6.259  1.00  0.00     0.216 C 
HETATM   16  C8  UNL     1      37.444  -5.492   5.180  1.00  0.00     0.011 A 
HETATM   17  C9  UNL     1      38.396  -6.224   4.503  1.00  0.00     0.030 A 
HETATM   18  C10 UNL     1      38.005  -7.113   3.528  1.00  0.00     0.088 A 
HETATM   19  N5  UNL     1      36.686  -7.268   3.235  1.00  0.00    -0.373 N 
ATOM     20  H5  UNL     1      36.392  -7.926   2.513  1.00  0.00     0.164 HD
HETATM   21  C11 UNL     1      35.763  -6.537   3.913  1.00  0.00     0.118 A 
HETATM   22  C12 UNL     1      36.087  -5.642   4.889  1.00  0.00     0.068 A 
HETATM   23  N6  UNL     1      35.344  -4.770   5.733  1.00  0.00    -0.313 N 
ATOM     24  H6  UNL     1      34.370  -4.489   5.618  1.00  0.00     0.181 HD
HETATM   25  N7  UNL     1      36.210  -4.378   6.745  1.00  0.00    -0.180 NA
ENDROOT
BRANCH  12  26
HETATM   26  O1  UNL     1      34.218  -0.795   7.172  1.00  0.00    -0.345 OA
ATOM     27  H1  UNL     1      33.523  -0.185   6.955  1.00  0.00     0.219 HD
ENDBRANCH  12  26
TORSDOF 1
ENDMDL
MODEL 5
REMARK VINA RESULT: -6.678161402      8.531      9.841
REMARK  1 active torsions:
REMARK  status: ('A' for Active; 'I' for Inactive)
REMARK    1  A    between atoms: C6_12  and  O1_13 
ROOT
HETATM    1  N1  UNL     1      40.203 -13.024   3.089  1.00  0.00    -0.195 NA
HETATM    2  C1  UNL     1      39.131 -12.617   3.269  1.00  0.00     0.086 C 
HETATM    3  C2  UNL     1      37.771 -12.111   3.511  1.00  0.00     0.229 C 
HETATM    4  C3  UNL     1      37.636 -11.607   4.893  1.00  0.00     0.070 A 
HETATM    5  C4  UNL     1      38.074 -10.297   5.121  1.00  0.00     0.118 A 
HETATM    6  N2  UNL     1      37.969  -9.796   6.373  1.00  0.00    -0.319 N 
ATOM      7  H2  UNL     1      38.281  -8.844   6.566  1.00  0.00     0.170 HD
HETATM    8  C5  UNL     1      37.456 -10.544   7.363  1.00  0.00     0.179 A 
HETATM    9  S1  UNL     1      37.316  -9.968   8.880  1.00  0.00    -0.040 SA
HETATM   10  N3  UNL     1      37.034 -11.814   7.131  1.00  0.00    -0.313 N 
ATOM     11  H3  UNL     1      36.648 -12.360   7.902  1.00  0.00     0.170 HD
HETATM   12  C6  UNL     1      37.113 -12.365   5.911  1.00  0.00     0.154 A 
HETATM   13  N4  UNL     1      38.608  -9.550   4.037  1.00  0.00    -0.353 N 
ATOM     14  H4  UNL     1      39.220  -8.756   4.221  1.00  0.00     0.163 HD
HETATM   15  C7  UNL     1      38.290  -9.906   2.692  1.00  0.00     0.216 C 
HETATM   16  C8  UNL     1      37.436  -8.858   2.078  1.00  0.00     0.011 A 
HETATM   17  C9  UNL     1      37.702  -7.570   1.664  1.00  0.00     0.030 A 
HETATM   18  C10 UNL     1      36.694  -6.808   1.118  1.00  0.00     0.088 A 
HETATM   19  N5  UNL     1      35.442  -7.324   0.989  1.00  0.00    -0.373 N 
ATOM     20  H5  UNL     1      34.692  -6.763   0.586  1.00  0.00     0.164 HD
HETATM   21  C11 UNL     1      35.200  -8.595   1.404  1.00  0.00     0.118 A 
HETATM   22  C12 UNL     1      36.155  -9.398   1.951  1.00  0.00     0.068 A 
HETATM   23  N6  UNL     1      36.175 -10.729   2.456  1.00  0.00    -0.313 N 
ATOM     24  H6  UNL     1      35.367 -11.303   2.701  1.00  0.00     0.181 HD
HETATM   25  N7  UNL     1      37.511 -11.090   2.548  1.00  0.00    -0.180 NA
ENDROOT
BRANCH  12  26
HETATM   26  O1  UNL     1      36.687 -13.649   5.673  1.00  0.00    -0.345 OA
ATOM     27  H1  UNL     1      35.812 -13.919   5.926  1.00  0.00     0.219 HD
ENDBRANCH  12  26
TORSDOF 1
ENDMDL
