MODEL 1
REMARK VINA RESULT: -10.153070962      0.000      0.000
REMARK  8 active torsions:
REMARK  status: ('A' for Active; 'I' for Inactive)
REMARK    1  A    between atoms: C6_13  and  N4_14 
REMARK    2  A    between atoms: N4_14  and  C7_16 
REMARK    3  A    between atoms: C7_16  and  C8_17 
REMARK    4  A    between atoms: C7_16  and  C13_37 
REMARK    5  A    between atoms: C8_17  and  N5_18 
REMARK    6  A    between atoms: C9_23  and  C10_24 
REMARK    7  A    between atoms: C10_24  and  C11_25 
REMARK    8  A    between atoms: C14_42  and  N13_43 
ROOT
HETATM    1  N4  UNL     1     -14.945   8.019  27.136  1.00  0.00    -0.338 N 
ATOM      2  H4  UNL     1     -14.325   7.280  26.804  1.00  0.00     0.167 HD
ENDROOT
BRANCH   1   3
HETATM    3  C6  UNL     1     -14.637   9.361  26.864  1.00  0.00     0.120 A 
HETATM    4  C5  UNL     1     -14.622   9.955  25.550  1.00  0.00     0.075 A 
HETATM    5  C2  UNL     1     -14.926   9.223  24.429  1.00  0.00     0.040 A 
HETATM    6  C4  UNL     1     -14.295  11.318  25.441  1.00  0.00     0.135 A 
HETATM    7  C1  UNL     1     -15.279   7.810  24.508  1.00  0.00     0.070 C 
HETATM    8  N1  UNL     1     -14.892   9.880  23.223  1.00  0.00    -0.195 N 
HETATM    9  C3  UNL     1     -14.583  11.172  23.092  1.00  0.00     0.677 A 
ATOM     10  H1  UNL     1     -15.114   9.351  22.380  1.00  0.00     0.184 HD
HETATM   11  N2  UNL     1     -14.576  11.706  21.910  1.00  0.00    -0.234 N 
HETATM   12  N3  UNL     1     -14.292  11.864  24.197  1.00  0.00    -0.176 N 
ATOM     13  H22 UNL     1     -14.799  11.177  21.066  1.00  0.00     0.174 HD
ATOM     14  H21 UNL     1     -14.341  12.693  21.809  1.00  0.00     0.174 HD
ATOM     15  H3  UNL     1     -14.055  12.852  24.102  1.00  0.00     0.186 HD
HETATM   16  N14 UNL     1     -13.981  12.079  26.568  1.00  0.00    -0.332 N 
HETATM   17  C14 UNL     1     -14.004  11.499  27.883  1.00  0.00     0.389 A 
ATOM     18  H14 UNL     1     -13.732  13.062  26.458  1.00  0.00     0.165 HD
HETATM   19  N12 UNL     1     -14.341  10.140  27.885  1.00  0.00    -0.332 N 
ATOM     20  H12 UNL     1     -14.359   9.691  28.801  1.00  0.00     0.165 HD
BRANCH  17  21
HETATM   21  N13 UNL     1     -12.674  11.766  28.450  1.00  0.00    -0.041 N 
ATOM     22 3H13 UNL     1     -12.556  11.287  29.343  1.00  0.00     0.279 HD
ATOM     23 2H13 UNL     1     -11.948  11.295  27.911  1.00  0.00     0.279 HD
ATOM     24 1H13 UNL     1     -12.470  12.761  28.543  1.00  0.00     0.279 HD
ENDBRANCH  17  21
ENDBRANCH   1   3
BRANCH   1  25
HETATM   25  C7  UNL     1     -16.167   7.670  27.905  1.00  0.00     0.109 C 
BRANCH  25  26
HETATM   26  C8  UNL     1     -17.196   8.711  27.760  1.00  0.00     0.235 C 
BRANCH  26  27
HETATM   27  N5  UNL     1     -18.472   8.224  27.365  1.00  0.00    -0.212 N 
HETATM   28  N6  UNL     1     -19.563   8.863  27.005  1.00  0.00    -0.224 N 
HETATM   29  N7  UNL     1     -20.550   8.019  26.721  1.00  0.00    -0.272 N 
ATOM     30  H6  UNL     1     -19.643   9.878  26.951  1.00  0.00     0.210 HD
HETATM   31  C9  UNL     1     -20.083   6.776  26.902  1.00  0.00     0.120 A 
ATOM     32  H7  UNL     1     -21.491   8.273  26.420  1.00  0.00     0.190 HD
HETATM   33  N11 UNL     1     -18.810   6.924  27.296  1.00  0.00    -0.269 N 
ATOM     34  H11 UNL     1     -18.181   6.152  27.515  1.00  0.00     0.190 HD
BRANCH  31  35
HETATM   35  C10 UNL     1     -20.859   5.530  26.700  1.00  0.00     0.157 C 
BRANCH  35  36
HETATM   36  C11 UNL     1     -20.239   4.585  25.759  1.00  0.00     0.112 A 
HETATM   37  N8  UNL     1     -19.527   3.490  26.056  1.00  0.00    -0.309 N 
HETATM   38  C12 UNL     1     -19.137   2.888  24.893  1.00  0.00     0.242 A 
ATOM     39  H8  UNL     1     -19.311   3.160  26.996  1.00  0.00     0.170 HD
HETATM   40  N9  UNL     1     -18.440   1.816  24.758  1.00  0.00    -0.364 N 
HETATM   41  O1  UNL     1     -19.616   3.622  23.929  1.00  0.00    -0.200 OA
ATOM     42  H92 UNL     1     -18.066   1.241  25.512  1.00  0.00     0.159 HD
ATOM     43  H91 UNL     1     -18.150   1.366  23.890  1.00  0.00     0.159 HD
HETATM   44  N10 UNL     1     -20.284   4.651  24.423  1.00  0.00    -0.245 N 
ATOM     45  H10 UNL     1     -20.753   5.374  23.878  1.00  0.00     0.196 HD
ENDBRANCH  35  36
ENDBRANCH  31  35
ENDBRANCH  26  27
ENDBRANCH  25  26
BRANCH  25  46
HETATM   46  C13 UNL     1     -15.885   7.105  29.191  1.00  0.00     0.224 C 
HETATM   47  O2  UNL     1     -16.844   6.581  29.893  1.00  0.00    -0.643 OA
HETATM   48  O3  UNL     1     -14.672   7.030  29.837  1.00  0.00    -0.643 OA
ENDBRANCH  25  46
ENDBRANCH   1  25
TORSDOF 8
ENDMDL
MODEL 2
REMARK VINA RESULT: -9.875147971      2.612      4.126
REMARK  8 active torsions:
REMARK  status: ('A' for Active; 'I' for Inactive)
REMARK    1  A    between atoms: C6_13  and  N4_14 
REMARK    2  A    between atoms: N4_14  and  C7_16 
REMARK    3  A    between atoms: C7_16  and  C8_17 
REMARK    4  A    between atoms: C7_16  and  C13_37 
REMARK    5  A    between atoms: C8_17  and  N5_18 
REMARK    6  A    between atoms: C9_23  and  C10_24 
REMARK    7  A    between atoms: C10_24  and  C11_25 
REMARK    8  A    between atoms: C14_42  and  N13_43 
ROOT
HETATM    1  N4  UNL     1     -16.704   7.966  28.516  1.00  0.00    -0.338 N 
ATOM      2  H4  UNL     1     -17.346   8.367  27.832  1.00  0.00     0.167 HD
ENDROOT
BRANCH   1   3
HETATM    3  C6  UNL     1     -16.029   8.806  29.414  1.00  0.00     0.120 A 
HETATM    4  C5  UNL     1     -15.167   9.899  29.035  1.00  0.00     0.075 A 
HETATM    5  C2  UNL     1     -14.942  10.210  27.717  1.00  0.00     0.040 A 
HETATM    6  C4  UNL     1     -14.562  10.652  30.056  1.00  0.00     0.135 A 
HETATM    7  C1  UNL     1     -15.561   9.454  26.634  1.00  0.00     0.070 C 
HETATM    8  N1  UNL     1     -14.111  11.273  27.457  1.00  0.00    -0.195 N 
HETATM    9  C3  UNL     1     -13.524  12.004  28.407  1.00  0.00     0.677 A 
ATOM     10  H1  UNL     1     -13.933  11.517  26.482  1.00  0.00     0.184 HD
HETATM   11  N2  UNL     1     -12.753  12.989  28.063  1.00  0.00    -0.234 N 
HETATM   12  N3  UNL     1     -13.757  11.682  29.682  1.00  0.00    -0.176 N 
ATOM     13  H22 UNL     1     -12.575  13.234  27.089  1.00  0.00     0.174 HD
ATOM     14  H21 UNL     1     -12.305  13.548  28.789  1.00  0.00     0.174 HD
ATOM     15  H3  UNL     1     -13.310  12.238  30.412  1.00  0.00     0.186 HD
HETATM   16  N14 UNL     1     -14.775  10.351  31.402  1.00  0.00    -0.332 N 
HETATM   17  C14 UNL     1     -15.641   9.271  31.790  1.00  0.00     0.389 A 
ATOM     18  H14 UNL     1     -14.310  10.905  32.121  1.00  0.00     0.165 HD
HETATM   19  N12 UNL     1     -16.194   8.584  30.703  1.00  0.00    -0.332 N 
ATOM     20  H12 UNL     1     -16.808   7.805  30.940  1.00  0.00     0.165 HD
BRANCH  17  21
HETATM   21  N13 UNL     1     -14.827   8.413  32.663  1.00  0.00    -0.041 N 
ATOM     22 3H13 UNL     1     -14.172   8.971  33.211  1.00  0.00     0.279 HD
ATOM     23 2H13 UNL     1     -15.390   8.026  33.419  1.00  0.00     0.279 HD
ATOM     24 1H13 UNL     1     -14.340   7.674  32.158  1.00  0.00     0.279 HD
ENDBRANCH  17  21
ENDBRANCH   1   3
BRANCH   1  25
HETATM   25  C7  UNL     1     -16.488   6.497  28.556  1.00  0.00     0.109 C 
BRANCH  25  26
HETATM   26  C8  UNL     1     -16.054   5.992  27.244  1.00  0.00     0.235 C 
BRANCH  26  27
HETATM   27  N5  UNL     1     -16.905   5.002  26.685  1.00  0.00    -0.212 N 
HETATM   28  N6  UNL     1     -16.944   3.700  26.863  1.00  0.00    -0.224 N 
HETATM   29  N7  UNL     1     -17.900   3.136  26.133  1.00  0.00    -0.272 N 
ATOM     30  H6  UNL     1     -16.318   3.186  27.484  1.00  0.00     0.210 HD
HETATM   31  C9  UNL     1     -18.513   4.112  25.448  1.00  0.00     0.120 A 
ATOM     32  H7  UNL     1     -18.126   2.142  26.099  1.00  0.00     0.190 HD
HETATM   33  N11 UNL     1     -17.890   5.245  25.800  1.00  0.00    -0.269 N 
ATOM     34  H11 UNL     1     -18.129   6.170  25.444  1.00  0.00     0.190 HD
BRANCH  31  35
HETATM   35  C10 UNL     1     -19.640   3.921  24.504  1.00  0.00     0.157 C 
BRANCH  35  36
HETATM   36  C11 UNL     1     -20.940   4.369  25.026  1.00  0.00     0.112 A 
HETATM   37  N8  UNL     1     -22.059   4.604  24.328  1.00  0.00    -0.309 N 
HETATM   38  C12 UNL     1     -23.042   4.998  25.191  1.00  0.00     0.242 A 
ATOM     39  H8  UNL     1     -22.160   4.505  23.318  1.00  0.00     0.170 HD
HETATM   40  N9  UNL     1     -24.256   5.314  24.909  1.00  0.00    -0.364 N 
HETATM   41  O1  UNL     1     -22.504   4.993  26.378  1.00  0.00    -0.200 OA
ATOM     42  H92 UNL     1     -24.677   5.318  23.980  1.00  0.00     0.159 HD
ATOM     43  H91 UNL     1     -24.990   5.608  25.553  1.00  0.00     0.159 HD
HETATM   44  N10 UNL     1     -21.237   4.618  26.306  1.00  0.00    -0.245 N 
ATOM     45  H10 UNL     1     -20.596   4.534  27.094  1.00  0.00     0.196 HD
ENDBRANCH  35  36
ENDBRANCH  31  35
ENDBRANCH  26  27
ENDBRANCH  25  26
BRANCH  25  46
HETATM   46  C13 UNL     1     -17.489   5.797  29.305  1.00  0.00     0.224 C 
HETATM   47  O2  UNL     1     -17.197   4.671  29.882  1.00  0.00    -0.643 OA
HETATM   48  O3  UNL     1     -18.799   6.163  29.518  1.00  0.00    -0.643 OA
ENDBRANCH  25  46
ENDBRANCH   1  25
TORSDOF 8
ENDMDL
MODEL 3
REMARK VINA RESULT: -9.757459879      1.405      1.689
REMARK  8 active torsions:
REMARK  status: ('A' for Active; 'I' for Inactive)
REMARK    1  A    between atoms: C6_13  and  N4_14 
REMARK    2  A    between atoms: N4_14  and  C7_16 
REMARK    3  A    between atoms: C7_16  and  C8_17 
REMARK    4  A    between atoms: C7_16  and  C13_37 
REMARK    5  A    between atoms: C8_17  and  N5_18 
REMARK    6  A    between atoms: C9_23  and  C10_24 
REMARK    7  A    between atoms: C10_24  and  C11_25 
REMARK    8  A    between atoms: C14_42  and  N13_43 
ROOT
HETATM    1  N4  UNL     1     -15.008   8.347  27.757  1.00  0.00    -0.338 N 
ATOM      2  H4  UNL     1     -14.709   7.519  27.240  1.00  0.00     0.167 HD
ENDROOT
BRANCH   1   3
HETATM    3  C6  UNL     1     -14.671   9.624  27.285  1.00  0.00     0.120 A 
HETATM    4  C5  UNL     1     -14.653  10.013  25.896  1.00  0.00     0.075 A 
HETATM    5  C2  UNL     1     -14.984   9.128  24.900  1.00  0.00     0.040 A 
HETATM    6  C4  UNL     1     -14.295  11.335  25.581  1.00  0.00     0.135 A 
HETATM    7  C1  UNL     1     -15.368   7.751  25.193  1.00  0.00     0.070 C 
HETATM    8  N1  UNL     1     -14.944   9.594  23.608  1.00  0.00    -0.195 N 
HETATM    9  C3  UNL     1     -14.606  10.844  23.282  1.00  0.00     0.677 A 
ATOM     10  H1  UNL     1     -15.186   8.949  22.856  1.00  0.00     0.184 HD
HETATM   11  N2  UNL     1     -14.597  11.192  22.033  1.00  0.00    -0.234 N 
HETATM   12  N3  UNL     1     -14.289  11.687  24.269  1.00  0.00    -0.176 N 
ATOM     13  H22 UNL     1     -14.839  10.548  21.280  1.00  0.00     0.174 HD
ATOM     14  H21 UNL     1     -14.339  12.147  21.784  1.00  0.00     0.174 HD
ATOM     15  H3  UNL     1     -14.030  12.644  24.024  1.00  0.00     0.186 HD
HETATM   16  N14 UNL     1     -13.954  12.250  26.579  1.00  0.00    -0.332 N 
HETATM   17  C14 UNL     1     -13.980  11.875  27.966  1.00  0.00     0.389 A 
ATOM     18  H14 UNL     1     -13.683  13.198  26.320  1.00  0.00     0.165 HD
HETATM   19  N12 UNL     1     -14.348  10.541  28.175  1.00  0.00    -0.332 N 
ATOM     20  H12 UNL     1     -14.369  10.236  29.148  1.00  0.00     0.165 HD
BRANCH  17  21
HETATM   21  N13 UNL     1     -12.639  12.192  28.480  1.00  0.00    -0.041 N 
ATOM     22 3H13 UNL     1     -12.486  11.756  29.389  1.00  0.00     0.279 HD
ATOM     23 2H13 UNL     1     -11.920  11.711  27.941  1.00  0.00     0.279 HD
ATOM     24 1H13 UNL     1     -12.452  13.194  28.522  1.00  0.00     0.279 HD
ENDBRANCH  17  21
ENDBRANCH   1   3
BRANCH   1  25
HETATM   25  C7  UNL     1     -15.796   8.192  29.007  1.00  0.00     0.109 C 
BRANCH  25  26
HETATM   26  C8  UNL     1     -16.091   6.776  29.273  1.00  0.00     0.235 C 
BRANCH  26  27
HETATM   27  N5  UNL     1     -17.371   6.349  28.828  1.00  0.00    -0.212 N 
HETATM   28  N6  UNL     1     -18.379   5.820  29.487  1.00  0.00    -0.224 N 
HETATM   29  N7  UNL     1     -19.401   5.555  28.681  1.00  0.00    -0.272 N 
ATOM     30  H6  UNL     1     -18.376   5.636  30.490  1.00  0.00     0.210 HD
HETATM   31  C9  UNL     1     -19.048   5.927  27.443  1.00  0.00     0.120 A 
ATOM     32  H7  UNL     1     -20.293   5.142  28.956  1.00  0.00     0.190 HD
HETATM   33  N11 UNL     1     -17.803   6.411  27.556  1.00  0.00    -0.269 N 
ATOM     34  H11 UNL     1     -17.254   6.777  26.778  1.00  0.00     0.190 HD
BRANCH  31  35
HETATM   35  C10 UNL     1     -19.896   5.803  26.235  1.00  0.00     0.157 C 
BRANCH  35  36
HETATM   36  C11 UNL     1     -19.644   4.585  25.450  1.00  0.00     0.112 A 
HETATM   37  N8  UNL     1     -19.022   3.470  25.855  1.00  0.00    -0.309 N 
HETATM   38  C12 UNL     1     -19.001   2.575  24.822  1.00  0.00     0.242 A 
ATOM     39  H8  UNL     1     -18.628   3.314  26.783  1.00  0.00     0.170 HD
HETATM   40  N9  UNL     1     -18.496   1.394  24.816  1.00  0.00    -0.364 N 
HETATM   41  O1  UNL     1     -19.604   3.161  23.826  1.00  0.00    -0.200 OA
ATOM     42  H92 UNL     1     -18.024   0.935  25.595  1.00  0.00     0.159 HD
ATOM     43  H91 UNL     1     -18.481   0.726  24.045  1.00  0.00     0.159 HD
HETATM   44  N10 UNL     1     -20.000   4.373  24.178  1.00  0.00    -0.245 N 
ATOM     45  H10 UNL     1     -20.494   5.035  23.580  1.00  0.00     0.196 HD
ENDBRANCH  35  36
ENDBRANCH  31  35
ENDBRANCH  26  27
ENDBRANCH  25  26
BRANCH  25  46
HETATM   46  C13 UNL     1     -16.818   9.185  29.158  1.00  0.00     0.224 C 
HETATM   47  O2  UNL     1     -16.736  10.060  30.115  1.00  0.00    -0.643 OA
HETATM   48  O3  UNL     1     -17.948   9.362  28.393  1.00  0.00    -0.643 OA
ENDBRANCH  25  46
ENDBRANCH   1  25
TORSDOF 8
ENDMDL
MODEL 4
REMARK VINA RESULT: -9.660667472      3.467      5.336
REMARK  8 active torsions:
REMARK  status: ('A' for Active; 'I' for Inactive)
REMARK    1  A    between atoms: C6_13  and  N4_14 
REMARK    2  A    between atoms: N4_14  and  C7_16 
REMARK    3  A    between atoms: C7_16  and  C8_17 
REMARK    4  A    between atoms: C7_16  and  C13_37 
REMARK    5  A    between atoms: C8_17  and  N5_18 
REMARK    6  A    between atoms: C9_23  and  C10_24 
REMARK    7  A    between atoms: C10_24  and  C11_25 
REMARK    8  A    between atoms: C14_42  and  N13_43 
ROOT
HETATM    1  N4  UNL     1     -15.702   7.565  29.030  1.00  0.00    -0.338 N 
ATOM      2  H4  UNL     1     -14.748   7.726  29.355  1.00  0.00     0.167 HD
ENDROOT
BRANCH   1   3
HETATM    3  C6  UNL     1     -16.602   8.639  28.953  1.00  0.00     0.120 A 
HETATM    4  C5  UNL     1     -16.908   9.540  30.036  1.00  0.00     0.075 A 
HETATM    5  C2  UNL     1     -16.311   9.411  31.266  1.00  0.00     0.040 A 
HETATM    6  C4  UNL     1     -17.834  10.571  29.801  1.00  0.00     0.135 A 
HETATM    7  C1  UNL     1     -15.340   8.357  31.541  1.00  0.00     0.070 C 
HETATM    8  N1  UNL     1     -16.662  10.323  32.232  1.00  0.00    -0.195 N 
HETATM    9  C3  UNL     1     -17.539  11.310  32.035  1.00  0.00     0.677 A 
ATOM     10  H1  UNL     1     -16.229  10.240  33.152  1.00  0.00     0.184 HD
HETATM   11  N2  UNL     1     -17.807  12.123  33.010  1.00  0.00    -0.234 N 
HETATM   12  N3  UNL     1     -18.106  11.416  30.830  1.00  0.00    -0.176 N 
ATOM     13  H22 UNL     1     -17.374  12.041  33.929  1.00  0.00     0.174 HD
ATOM     14  H21 UNL     1     -18.477  12.877  32.859  1.00  0.00     0.174 HD
ATOM     15  H3  UNL     1     -18.777  12.169  30.675  1.00  0.00     0.186 HD
HETATM   16  N14 UNL     1     -18.453  10.719  28.559  1.00  0.00    -0.332 N 
HETATM   17  C14 UNL     1     -18.147   9.832  27.470  1.00  0.00     0.389 A 
ATOM     18  H14 UNL     1     -19.133  11.467  28.422  1.00  0.00     0.165 HD
HETATM   19  N12 UNL     1     -17.216   8.842  27.804  1.00  0.00    -0.332 N 
ATOM     20  H12 UNL     1     -16.979   8.188  27.057  1.00  0.00     0.165 HD
BRANCH  17  21
HETATM   21  N13 UNL     1     -19.442   9.286  27.036  1.00  0.00    -0.041 N 
ATOM     22 3H13 UNL     1     -19.476   9.197  26.020  1.00  0.00     0.279 HD
ATOM     23 2H13 UNL     1     -19.526   8.304  27.293  1.00  0.00     0.279 HD
ATOM     24 1H13 UNL     1     -20.238   9.821  27.380  1.00  0.00     0.279 HD
ENDBRANCH  17  21
ENDBRANCH   1   3
BRANCH   1  25
HETATM   25  C7  UNL     1     -16.130   6.197  28.642  1.00  0.00     0.109 C 
BRANCH  25  26
HETATM   26  C8  UNL     1     -16.037   6.008  27.186  1.00  0.00     0.235 C 
BRANCH  26  27
HETATM   27  N5  UNL     1     -16.896   5.002  26.668  1.00  0.00    -0.212 N 
HETATM   28  N6  UNL     1     -16.940   3.707  26.895  1.00  0.00    -0.224 N 
HETATM   29  N7  UNL     1     -17.902   3.122  26.190  1.00  0.00    -0.272 N 
ATOM     30  H6  UNL     1     -16.314   3.214  27.532  1.00  0.00     0.210 HD
HETATM   31  C9  UNL     1     -18.514   4.074  25.472  1.00  0.00     0.120 A 
ATOM     32  H7  UNL     1     -18.133   2.128  26.195  1.00  0.00     0.190 HD
HETATM   33  N11 UNL     1     -17.883   5.216  25.779  1.00  0.00    -0.269 N 
ATOM     34  H11 UNL     1     -18.120   6.129  25.390  1.00  0.00     0.190 HD
BRANCH  31  35
HETATM   35  C10 UNL     1     -19.646   3.854  24.541  1.00  0.00     0.157 C 
BRANCH  35  36
HETATM   36  C11 UNL     1     -20.939   4.339  25.046  1.00  0.00     0.112 A 
HETATM   37  N8  UNL     1     -22.051   4.577  24.338  1.00  0.00    -0.309 N 
HETATM   38  C12 UNL     1     -23.030   5.012  25.187  1.00  0.00     0.242 A 
ATOM     39  H8  UNL     1     -22.151   4.453  23.331  1.00  0.00     0.170 HD
HETATM   40  N9  UNL     1     -24.236   5.342  24.892  1.00  0.00    -0.364 N 
HETATM   41  O1  UNL     1     -22.495   5.028  26.375  1.00  0.00    -0.200 OA
ATOM     42  H92 UNL     1     -24.655   5.329  23.961  1.00  0.00     0.159 HD
ATOM     43  H91 UNL     1     -24.967   5.666  25.525  1.00  0.00     0.159 HD
HETATM   44  N10 UNL     1     -21.236   4.628  26.318  1.00  0.00    -0.245 N 
ATOM     45  H10 UNL     1     -20.599   4.552  27.110  1.00  0.00     0.196 HD
ENDBRANCH  35  36
ENDBRANCH  31  35
ENDBRANCH  26  27
ENDBRANCH  25  26
BRANCH  25  46
HETATM   46  C13 UNL     1     -17.284   5.740  29.358  1.00  0.00     0.224 C 
HETATM   47  O2  UNL     1     -17.235   4.623  30.021  1.00  0.00    -0.643 OA
HETATM   48  O3  UNL     1     -18.517   6.345  29.456  1.00  0.00    -0.643 OA
ENDBRANCH  25  46
ENDBRANCH   1  25
TORSDOF 8
ENDMDL
MODEL 5
REMARK VINA RESULT: -9.570242172      2.725      4.547
REMARK  8 active torsions:
REMARK  status: ('A' for Active; 'I' for Inactive)
REMARK    1  A    between atoms: C6_13  and  N4_14 
REMARK    2  A    between atoms: N4_14  and  C7_16 
REMARK    3  A    between atoms: C7_16  and  C8_17 
REMARK    4  A    between atoms: C7_16  and  C13_37 
REMARK    5  A    between atoms: C8_17  and  N5_18 
REMARK    6  A    between atoms: C9_23  and  C10_24 
REMARK    7  A    between atoms: C10_24  and  C11_25 
REMARK    8  A    between atoms: C14_42  and  N13_43 
ROOT
HETATM    1  N4  UNL     1     -16.027  10.332  26.295  1.00  0.00    -0.338 N 
ATOM      2  H4  UNL     1     -16.936  10.768  26.138  1.00  0.00     0.167 HD
ENDROOT
BRANCH   1   3
HETATM    3  C6  UNL     1     -15.298  10.637  27.455  1.00  0.00     0.120 A 
HETATM    4  C5  UNL     1     -15.746  10.386  28.802  1.00  0.00     0.075 A 
HETATM    5  C2  UNL     1     -16.963   9.801  29.056  1.00  0.00     0.040 A 
HETATM    6  C4  UNL     1     -14.898  10.748  29.863  1.00  0.00     0.135 A 
HETATM    7  C1  UNL     1     -17.863   9.405  27.978  1.00  0.00     0.070 C 
HETATM    8  N1  UNL     1     -17.298   9.596  30.373  1.00  0.00    -0.195 N 
HETATM    9  C3  UNL     1     -16.511   9.931  31.397  1.00  0.00     0.677 A 
ATOM     10  H1  UNL     1     -18.198   9.163  30.578  1.00  0.00     0.184 HD
HETATM   11  N2  UNL     1     -16.914   9.698  32.608  1.00  0.00    -0.234 N 
HETATM   12  N3  UNL     1     -15.332  10.498  31.126  1.00  0.00    -0.176 N 
ATOM     13  H22 UNL     1     -17.814   9.266  32.814  1.00  0.00     0.174 HD
ATOM     14  H21 UNL     1     -16.313   9.954  33.391  1.00  0.00     0.174 HD
ATOM     15  H3  UNL     1     -14.728  10.756  31.906  1.00  0.00     0.186 HD
HETATM   16  N14 UNL     1     -13.659  11.344  29.627  1.00  0.00    -0.332 N 
HETATM   17  C14 UNL     1     -13.199  11.589  28.287  1.00  0.00     0.389 A 
ATOM     18  H14 UNL     1     -13.071  11.611  30.416  1.00  0.00     0.165 HD
HETATM   19  N12 UNL     1     -14.114  11.194  27.304  1.00  0.00    -0.332 N 
ATOM     20  H12 UNL     1     -13.824  11.360  26.340  1.00  0.00     0.165 HD
BRANCH  17  21
HETATM   21  N13 UNL     1     -12.882  13.025  28.240  1.00  0.00    -0.041 N 
ATOM     22 3H13 UNL     1     -11.956  13.205  28.628  1.00  0.00     0.279 HD
ATOM     23 2H13 UNL     1     -12.724  13.330  27.281  1.00  0.00     0.279 HD
ATOM     24 1H13 UNL     1     -13.586  13.606  28.695  1.00  0.00     0.279 HD
ENDBRANCH  17  21
ENDBRANCH   1   3
BRANCH   1  25
HETATM   25  C7  UNL     1     -15.482   9.379  25.295  1.00  0.00     0.109 C 
BRANCH  25  26
HETATM   26  C8  UNL     1     -14.872   8.214  25.955  1.00  0.00     0.235 C 
BRANCH  26  27
HETATM   27  N5  UNL     1     -15.806   7.269  26.459  1.00  0.00    -0.212 N 
HETATM   28  N6  UNL     1     -15.726   6.436  27.473  1.00  0.00    -0.224 N 
HETATM   29  N7  UNL     1     -16.832   5.711  27.596  1.00  0.00    -0.272 N 
ATOM     30  H6  UNL     1     -14.916   6.357  28.089  1.00  0.00     0.210 HD
HETATM   31  C9  UNL     1     -17.672   6.085  26.621  1.00  0.00     0.120 A 
ATOM     32  H7  UNL     1     -17.009   4.998  28.304  1.00  0.00     0.190 HD
HETATM   33  N11 UNL     1     -17.025   7.039  25.937  1.00  0.00    -0.269 N 
ATOM     34  H11 UNL     1     -17.406   7.527  25.126  1.00  0.00     0.190 HD
BRANCH  31  35
HETATM   35  C10 UNL     1     -19.023   5.523  26.389  1.00  0.00     0.157 C 
BRANCH  35  36
HETATM   36  C11 UNL     1     -19.040   4.357  25.492  1.00  0.00     0.112 A 
HETATM   37  N8  UNL     1     -18.535   3.140  25.730  1.00  0.00    -0.309 N 
HETATM   38  C12 UNL     1     -18.765   2.345  24.643  1.00  0.00     0.242 A 
ATOM     39  H8  UNL     1     -18.056   2.853  26.584  1.00  0.00     0.170 HD
HETATM   40  N9  UNL     1     -18.434   1.114  24.484  1.00  0.00    -0.364 N 
HETATM   41  O1  UNL     1     -19.398   3.090  23.780  1.00  0.00    -0.200 OA
ATOM     42  H92 UNL     1     -17.939   0.531  25.160  1.00  0.00     0.159 HD
ATOM     43  H91 UNL     1     -18.607   0.520  23.673  1.00  0.00     0.159 HD
HETATM   44  N10 UNL     1     -19.575   4.307  24.267  1.00  0.00    -0.245 N 
ATOM     45  H10 UNL     1     -20.041   5.078  23.789  1.00  0.00     0.196 HD
ENDBRANCH  35  36
ENDBRANCH  31  35
ENDBRANCH  26  27
ENDBRANCH  25  26
BRANCH  25  46
HETATM   46  C13 UNL     1     -14.815  10.023  24.203  1.00  0.00     0.224 C 
HETATM   47  O2  UNL     1     -14.942   9.553  22.998  1.00  0.00    -0.643 OA
HETATM   48  O3  UNL     1     -14.008  11.138  24.240  1.00  0.00    -0.643 OA
ENDBRANCH  25  46
ENDBRANCH   1  25
TORSDOF 8
ENDMDL
