MODEL 1
REMARK VINA RESULT: -9.129562633      0.000      0.000
REMARK  11 active torsions:
REMARK  status: ('A' for Active; 'I' for Inactive)
REMARK    1  A    between atoms: N2_3  and  C2_5 
REMARK    2  A    between atoms: C2_5  and  C3_6 
REMARK    3  A    between atoms: C2_5  and  S1_38 
REMARK    4  A    between atoms: C4_9  and  N4_10 
REMARK    5  A    between atoms: N4_10  and  O1_12 
REMARK    6  A    between atoms: C5_16  and  C6_17 
REMARK    7  A    between atoms: C7_22  and  C8_23 
REMARK    8  A    between atoms: C8_23  and  O2_24 
REMARK    9  A    between atoms: C11_33  and  N9_34 
REMARK   10  A    between atoms: N9_34  and  O5_36 
REMARK   11  A    between atoms: S1_38  and  N10_39 
ROOT
HETATM    1  N1  UNL     1     -12.959   6.653  32.270  1.00  0.00    -0.172 NA
HETATM    2  C1  UNL     1     -13.079   7.827  32.267  1.00  0.00     0.183 C 
HETATM    3  N2  UNL     1     -13.197   9.218  32.282  1.00  0.00    -0.281 N 
ATOM      4  H2  UNL     1     -12.382   9.783  32.523  1.00  0.00     0.179 HD
ENDROOT
BRANCH   3   5
HETATM    5  C2  UNL     1     -14.413   9.866  31.974  1.00  0.00     0.187 C 
BRANCH   5   6
HETATM    6  C3  UNL     1     -14.743  10.043  30.534  1.00  0.00     0.121 A 
HETATM    7  N3  UNL     1     -13.856  10.727  29.734  1.00  0.00    -0.185 N 
HETATM    8  C4  UNL     1     -14.076  10.921  28.442  1.00  0.00     0.703 A 
ATOM      9  H3  UNL     1     -13.000  11.097  30.149  1.00  0.00     0.184 HD
HETATM   10  N5  UNL     1     -15.185  10.445  27.883  1.00  0.00    -0.183 N 
HETATM   11  C5  UNL     1     -16.090   9.769  28.606  1.00  0.00     0.132 A 
ATOM     12  H5  UNL     1     -15.350  10.596  26.888  1.00  0.00     0.184 HD
HETATM   13  C11 UNL     1     -15.894   9.545  29.970  1.00  0.00     0.116 A 
BRANCH   8  14
HETATM   14  N4  UNL     1     -13.159  11.582  27.795  1.00  0.00    -0.098 N 
ATOM     15  H4  UNL     1     -12.722  11.182  26.964  1.00  0.00     0.213 HD
BRANCH  14  16
HETATM   16  O1  UNL     1     -12.791  12.815  28.241  1.00  0.00    -0.276 OA
ATOM     17  H1  UNL     1     -12.910  13.568  27.674  1.00  0.00     0.245 HD
ENDBRANCH  14  16
ENDBRANCH   8  14
BRANCH  11  18
HETATM   18  C6  UNL     1     -17.304   9.242  27.954  1.00  0.00     0.194 A 
HETATM   19  N6  UNL     1     -18.372   9.875  27.479  1.00  0.00    -0.276 N 
HETATM   20  N7  UNL     1     -19.206   8.988  26.981  1.00  0.00    -0.277 N 
ATOM     21  H6  UNL     1     -18.520  10.884  27.497  1.00  0.00     0.189 HD
HETATM   22  C7  UNL     1     -18.672   7.764  27.135  1.00  0.00     0.205 A 
ATOM     23  H7  UNL     1     -20.107   9.195  26.550  1.00  0.00     0.189 HD
HETATM   24  O4  UNL     1     -17.526   7.947  27.724  1.00  0.00    -0.270 OA
BRANCH  22  25
HETATM   25  C8  UNL     1     -19.334   6.506  26.688  1.00  0.00     0.257 C 
HETATM   26  C9  UNL     1     -19.323   5.490  27.811  1.00  0.00     0.312 C 
HETATM   27  N8  UNL     1     -18.782   4.313  27.121  1.00  0.00    -0.049 N 
HETATM   28  C10 UNL     1     -17.790   4.961  26.269  1.00  0.00     0.403 C 
ATOM     29  H82 UNL     1     -18.436   3.565  27.720  1.00  0.00     0.279 HD
ATOM     30  H81 UNL     1     -19.463   3.724  26.643  1.00  0.00     0.279 HD
HETATM   31  O3  UNL     1     -18.586   5.941  25.658  1.00  0.00    -0.320 OA
BRANCH  25  32
HETATM   32  O2  UNL     1     -20.622   6.712  26.214  1.00  0.00    -0.358 OA
ATOM     33  H2  UNL     1     -21.087   5.901  26.044  1.00  0.00     0.213 HD
ENDBRANCH  25  32
ENDBRANCH  22  25
ENDBRANCH  11  18
BRANCH  13  34
HETATM   34  N9  UNL     1     -16.853   8.824  30.715  1.00  0.00    -0.265 N 
ATOM     35  H9  UNL     1     -16.894   7.807  30.643  1.00  0.00     0.194 HD
BRANCH  34  36
HETATM   36  O5  UNL     1     -17.711   9.474  31.518  1.00  0.00    -0.289 OA
ATOM     37  H5  UNL     1     -18.057   9.046  32.292  1.00  0.00     0.244 HD
ENDBRANCH  34  36
ENDBRANCH  13  34
ENDBRANCH   5   6
BRANCH   5  38
HETATM   38  S1  UNL     1     -14.782  11.318  32.928  1.00  0.00     0.275 S 
HETATM   39  O6  UNL     1     -16.058  11.981  32.540  1.00  0.00    -0.199 OA
HETATM   40  O7  UNL     1     -14.829  10.900  34.375  1.00  0.00    -0.199 OA
BRANCH  38  41
HETATM   41  N10 UNL     1     -13.523  12.514  32.688  1.00  0.00    -0.323 N 
ATOM     42 2H10 UNL     1     -12.906  12.546  31.876  1.00  0.00     0.169 HD
ATOM     43 1H10 UNL     1     -13.510  13.159  33.477  1.00  0.00     0.169 HD
ENDBRANCH  38  41
ENDBRANCH   5  38
ENDBRANCH   3   5
TORSDOF 11
ENDMDL
MODEL 2
REMARK VINA RESULT: -8.784517257      1.939      2.344
REMARK  11 active torsions:
REMARK  status: ('A' for Active; 'I' for Inactive)
REMARK    1  A    between atoms: N2_3  and  C2_5 
REMARK    2  A    between atoms: C2_5  and  C3_6 
REMARK    3  A    between atoms: C2_5  and  S1_38 
REMARK    4  A    between atoms: C4_9  and  N4_10 
REMARK    5  A    between atoms: N4_10  and  O1_12 
REMARK    6  A    between atoms: C5_16  and  C6_17 
REMARK    7  A    between atoms: C7_22  and  C8_23 
REMARK    8  A    between atoms: C8_23  and  O2_24 
REMARK    9  A    between atoms: C11_33  and  N9_34 
REMARK   10  A    between atoms: N9_34  and  O5_36 
REMARK   11  A    between atoms: S1_38  and  N10_39 
ROOT
HETATM    1  N1  UNL     1     -12.568  11.703  35.031  1.00  0.00    -0.172 NA
HETATM    2  C1  UNL     1     -13.031  11.884  33.961  1.00  0.00     0.183 C 
HETATM    3  N2  UNL     1     -13.566  12.126  32.693  1.00  0.00    -0.281 N 
ATOM      4  H2  UNL     1     -13.123  12.820  32.092  1.00  0.00     0.179 HD
ENDROOT
BRANCH   3   5
HETATM    5  C2  UNL     1     -14.703  11.434  32.221  1.00  0.00     0.187 C 
BRANCH   5   6
HETATM    6  C3  UNL     1     -14.664  10.940  30.819  1.00  0.00     0.121 A 
HETATM    7  N3  UNL     1     -13.943  11.653  29.888  1.00  0.00    -0.185 N 
HETATM    8  C4  UNL     1     -13.857  11.274  28.621  1.00  0.00     0.703 A 
ATOM      9  H3  UNL     1     -13.459  12.501  30.183  1.00  0.00     0.184 HD
HETATM   10  N5  UNL     1     -14.479  10.169  28.219  1.00  0.00    -0.183 N 
HETATM   11  C5  UNL     1     -15.197   9.429  29.076  1.00  0.00     0.132 A 
ATOM     12  H5  UNL     1     -14.409   9.881  27.243  1.00  0.00     0.184 HD
HETATM   13  C11 UNL     1     -15.313   9.796  30.418  1.00  0.00     0.116 A 
BRANCH   8  14
HETATM   14  N4  UNL     1     -13.143  12.034  27.841  1.00  0.00    -0.098 N 
ATOM     15  H4  UNL     1     -12.862  11.707  26.916  1.00  0.00     0.213 HD
BRANCH  14  16
HETATM   16  O1  UNL     1     -12.774  13.271  28.276  1.00  0.00    -0.276 OA
ATOM     17  H1  UNL     1     -13.444  13.873  28.578  1.00  0.00     0.245 HD
ENDBRANCH  14  16
ENDBRANCH   8  14
BRANCH  11  18
HETATM   18  C6  UNL     1     -15.865   8.202  28.602  1.00  0.00     0.194 A 
HETATM   19  N6  UNL     1     -15.410   7.209  27.845  1.00  0.00    -0.276 N 
HETATM   20  N7  UNL     1     -16.368   6.322  27.683  1.00  0.00    -0.277 N 
ATOM     21  H6  UNL     1     -14.470   7.145  27.453  1.00  0.00     0.189 HD
HETATM   22  C7  UNL     1     -17.459   6.745  28.345  1.00  0.00     0.205 A 
ATOM     23  H7  UNL     1     -16.295   5.458  27.146  1.00  0.00     0.189 HD
HETATM   24  O4  UNL     1     -17.128   7.880  28.888  1.00  0.00    -0.270 OA
BRANCH  22  25
HETATM   25  C8  UNL     1     -18.746   5.996  28.389  1.00  0.00     0.257 C 
HETATM   26  C9  UNL     1     -18.571   4.629  27.762  1.00  0.00     0.312 C 
HETATM   27  N8  UNL     1     -19.698   4.602  26.824  1.00  0.00    -0.049 N 
HETATM   28  C10 UNL     1     -19.672   5.988  26.367  1.00  0.00     0.403 C 
ATOM     29  H82 UNL     1     -19.655   3.891  26.094  1.00  0.00     0.279 HD
ATOM     30  H81 UNL     1     -20.586   4.273  27.202  1.00  0.00     0.279 HD
HETATM   31  O3  UNL     1     -19.683   6.658  27.599  1.00  0.00    -0.320 OA
BRANCH  25  32
HETATM   32  O2  UNL     1     -19.268   5.894  29.670  1.00  0.00    -0.358 OA
ATOM     33  H2  UNL     1     -19.180   6.697  30.171  1.00  0.00     0.213 HD
ENDBRANCH  25  32
ENDBRANCH  22  25
ENDBRANCH  11  18
BRANCH  13  34
HETATM   34  N9  UNL     1     -16.067   9.000  31.308  1.00  0.00    -0.265 N 
ATOM     35  H9  UNL     1     -15.597   8.313  31.899  1.00  0.00     0.194 HD
BRANCH  34  36
HETATM   36  O5  UNL     1     -17.400   9.144  31.379  1.00  0.00    -0.289 OA
ATOM     37  H5  UNL     1     -17.785  10.011  31.411  1.00  0.00     0.244 HD
ENDBRANCH  34  36
ENDBRANCH  13  34
ENDBRANCH   5   6
BRANCH   5  38
HETATM   38  S1  UNL     1     -16.273  12.154  32.633  1.00  0.00     0.275 S 
HETATM   39  O6  UNL     1     -17.345  11.861  31.641  1.00  0.00    -0.199 OA
HETATM   40  O7  UNL     1     -16.662  11.628  33.992  1.00  0.00    -0.199 OA
BRANCH  38  41
HETATM   41  N10 UNL     1     -16.125  13.899  32.685  1.00  0.00    -0.323 N 
ATOM     42 2H10 UNL     1     -16.631  14.502  33.334  1.00  0.00     0.169 HD
ATOM     43 1H10 UNL     1     -15.461  14.207  31.974  1.00  0.00     0.169 HD
ENDBRANCH  38  41
ENDBRANCH   5  38
ENDBRANCH   3   5
TORSDOF 11
ENDMDL
MODEL 3
REMARK VINA RESULT: -8.672918610      2.458      3.494
REMARK  11 active torsions:
REMARK  status: ('A' for Active; 'I' for Inactive)
REMARK    1  A    between atoms: N2_3  and  C2_5 
REMARK    2  A    between atoms: C2_5  and  C3_6 
REMARK    3  A    between atoms: C2_5  and  S1_38 
REMARK    4  A    between atoms: C4_9  and  N4_10 
REMARK    5  A    between atoms: N4_10  and  O1_12 
REMARK    6  A    between atoms: C5_16  and  C6_17 
REMARK    7  A    between atoms: C7_22  and  C8_23 
REMARK    8  A    between atoms: C8_23  and  O2_24 
REMARK    9  A    between atoms: C11_33  and  N9_34 
REMARK   10  A    between atoms: N9_34  and  O5_36 
REMARK   11  A    between atoms: S1_38  and  N10_39 
ROOT
HETATM    1  N1  UNL     1     -13.045  11.782  28.434  1.00  0.00    -0.172 NA
HETATM    2  C1  UNL     1     -13.780  11.430  29.288  1.00  0.00     0.183 C 
HETATM    3  N2  UNL     1     -14.628  11.021  30.319  1.00  0.00    -0.281 N 
ATOM      4  H2  UNL     1     -14.455  11.355  31.267  1.00  0.00     0.179 HD
ENDROOT
BRANCH   3   5
HETATM    5  C2  UNL     1     -15.720  10.156  30.086  1.00  0.00     0.187 C 
BRANCH   5   6
HETATM    6  C3  UNL     1     -15.874   9.612  28.710  1.00  0.00     0.121 A 
HETATM    7  N3  UNL     1     -15.657  10.453  27.641  1.00  0.00    -0.185 N 
HETATM    8  C4  UNL     1     -15.770  10.041  26.386  1.00  0.00     0.703 A 
ATOM      9  H3  UNL     1     -15.401  11.423  27.820  1.00  0.00     0.184 HD
HETATM   10  N5  UNL     1     -16.102   8.779  26.133  1.00  0.00    -0.183 N 
HETATM   11  C5  UNL     1     -16.327   7.909  27.129  1.00  0.00     0.132 A 
ATOM     12  H5  UNL     1     -16.187   8.467  25.166  1.00  0.00     0.184 HD
HETATM   13  C11 UNL     1     -16.218   8.304  28.463  1.00  0.00     0.116 A 
BRANCH   8  14
HETATM   14  N4  UNL     1     -15.537  10.933  25.466  1.00  0.00    -0.098 N 
ATOM     15  H4  UNL     1     -15.979  10.857  24.549  1.00  0.00     0.213 HD
BRANCH  14  16
HETATM   16  O1  UNL     1     -14.696  11.967  25.742  1.00  0.00    -0.276 OA
ATOM     17  H1  UNL     1     -14.858  12.815  25.345  1.00  0.00     0.245 HD
ENDBRANCH  14  16
ENDBRANCH   8  14
BRANCH  11  18
HETATM   18  C6  UNL     1     -16.680   6.511  26.815  1.00  0.00     0.194 A 
HETATM   19  N6  UNL     1     -15.972   5.394  26.940  1.00  0.00    -0.276 N 
HETATM   20  N7  UNL     1     -16.704   4.378  26.535  1.00  0.00    -0.277 N 
ATOM     21  H6  UNL     1     -15.017   5.333  27.292  1.00  0.00     0.189 HD
HETATM   22  C7  UNL     1     -17.902   4.844  26.143  1.00  0.00     0.205 A 
ATOM     23  H7  UNL     1     -16.410   3.401  26.520  1.00  0.00     0.189 HD
HETATM   24  O4  UNL     1     -17.860   6.132  26.322  1.00  0.00    -0.270 OA
BRANCH  22  25
HETATM   25  C8  UNL     1     -18.999   3.980  25.620  1.00  0.00     0.257 C 
HETATM   26  C9  UNL     1     -19.630   4.626  24.405  1.00  0.00     0.312 C 
HETATM   27  N8  UNL     1     -21.053   4.562  24.758  1.00  0.00    -0.049 N 
HETATM   28  C10 UNL     1     -20.965   4.852  26.186  1.00  0.00     0.403 C 
ATOM     29  H82 UNL     1     -21.674   5.164  24.218  1.00  0.00     0.279 HD
ATOM     30  H81 UNL     1     -21.537   3.701  24.506  1.00  0.00     0.279 HD
HETATM   31  O3  UNL     1     -20.009   3.902  26.575  1.00  0.00    -0.320 OA
BRANCH  25  32
HETATM   32  O2  UNL     1     -18.581   2.688  25.338  1.00  0.00    -0.358 OA
ATOM     33  H2  UNL     1     -19.024   2.032  25.865  1.00  0.00     0.213 HD
ENDBRANCH  25  32
ENDBRANCH  22  25
ENDBRANCH  11  18
BRANCH  13  34
HETATM   34  N9  UNL     1     -16.450   7.373  29.500  1.00  0.00    -0.265 N 
ATOM     35  H9  UNL     1     -15.668   7.025  30.056  1.00  0.00     0.194 HD
BRANCH  34  36
HETATM   36  O5  UNL     1     -17.696   6.943  29.755  1.00  0.00    -0.289 OA
ATOM     37  H5  UNL     1     -17.853   6.031  29.964  1.00  0.00     0.244 HD
ENDBRANCH  34  36
ENDBRANCH  13  34
ENDBRANCH   5   6
BRANCH   5  38
HETATM   38  S1  UNL     1     -17.273  10.663  30.783  1.00  0.00     0.275 S 
HETATM   39  O6  UNL     1     -18.271  11.097  29.767  1.00  0.00    -0.199 OA
HETATM   40  O7  UNL     1     -17.807   9.497  31.576  1.00  0.00    -0.199 OA
BRANCH  38  41
HETATM   41  N10 UNL     1     -17.022  12.041  31.836  1.00  0.00    -0.323 N 
ATOM     42 2H10 UNL     1     -16.730  12.965  31.517  1.00  0.00     0.169 HD
ATOM     43 1H10 UNL     1     -17.213  11.773  32.801  1.00  0.00     0.169 HD
ENDBRANCH  38  41
ENDBRANCH   5  38
ENDBRANCH   3   5
TORSDOF 11
ENDMDL
MODEL 4
REMARK VINA RESULT: -8.570383584      1.883      2.819
REMARK  11 active torsions:
REMARK  status: ('A' for Active; 'I' for Inactive)
REMARK    1  A    between atoms: N2_3  and  C2_5 
REMARK    2  A    between atoms: C2_5  and  C3_6 
REMARK    3  A    between atoms: C2_5  and  S1_38 
REMARK    4  A    between atoms: C4_9  and  N4_10 
REMARK    5  A    between atoms: N4_10  and  O1_12 
REMARK    6  A    between atoms: C5_16  and  C6_17 
REMARK    7  A    between atoms: C7_22  and  C8_23 
REMARK    8  A    between atoms: C8_23  and  O2_24 
REMARK    9  A    between atoms: C11_33  and  N9_34 
REMARK   10  A    between atoms: N9_34  and  O5_36 
REMARK   11  A    between atoms: S1_38  and  N10_39 
ROOT
HETATM    1  N1  UNL     1     -16.772  13.711  34.547  1.00  0.00    -0.172 NA
HETATM    2  C1  UNL     1     -16.594  12.992  33.628  1.00  0.00     0.183 C 
HETATM    3  N2  UNL     1     -16.411  12.137  32.539  1.00  0.00    -0.281 N 
ATOM      4  H2  UNL     1     -17.204  11.931  31.932  1.00  0.00     0.179 HD
ENDROOT
BRANCH   3   5
HETATM    5  C2  UNL     1     -15.159  11.549  32.255  1.00  0.00     0.187 C 
BRANCH   5   6
HETATM    6  C3  UNL     1     -14.974  10.965  30.900  1.00  0.00     0.121 A 
HETATM    7  N3  UNL     1     -14.115  11.590  30.024  1.00  0.00    -0.185 N 
HETATM    8  C4  UNL     1     -13.894  11.128  28.803  1.00  0.00     0.703 A 
ATOM      9  H3  UNL     1     -13.634  12.438  30.326  1.00  0.00     0.184 HD
HETATM   10  N5  UNL     1     -14.511  10.023  28.393  1.00  0.00    -0.183 N 
HETATM   11  C5  UNL     1     -15.359   9.366  29.197  1.00  0.00     0.132 A 
ATOM     12  H5  UNL     1     -14.337   9.671  27.452  1.00  0.00     0.184 HD
HETATM   13  C11 UNL     1     -15.619   9.822  30.491  1.00  0.00     0.116 A 
BRANCH   8  14
HETATM   14  N4  UNL     1     -13.059  11.810  28.072  1.00  0.00    -0.098 N 
ATOM     15  H4  UNL     1     -12.693  11.419  27.204  1.00  0.00     0.213 HD
BRANCH  14  16
HETATM   16  O1  UNL     1     -12.679  13.051  28.483  1.00  0.00    -0.276 OA
ATOM     17  H1  UNL     1     -11.831  13.388  28.217  1.00  0.00     0.245 HD
ENDBRANCH  14  16
ENDBRANCH   8  14
BRANCH  11  18
HETATM   18  C6  UNL     1     -16.019   8.136  28.718  1.00  0.00     0.194 A 
HETATM   19  N6  UNL     1     -15.527   7.098  28.049  1.00  0.00    -0.276 N 
HETATM   20  N7  UNL     1     -16.493   6.230  27.840  1.00  0.00    -0.277 N 
ATOM     21  H6  UNL     1     -14.559   6.992  27.747  1.00  0.00     0.189 HD
HETATM   22  C7  UNL     1     -17.626   6.711  28.380  1.00  0.00     0.205 A 
ATOM     23  H7  UNL     1     -16.398   5.341  27.349  1.00  0.00     0.189 HD
HETATM   24  O4  UNL     1     -17.311   7.861  28.902  1.00  0.00    -0.270 OA
BRANCH  22  25
HETATM   25  C8  UNL     1     -18.934   5.998  28.340  1.00  0.00     0.257 C 
HETATM   26  C9  UNL     1     -18.765   4.645  27.682  1.00  0.00     0.312 C 
HETATM   27  N8  UNL     1     -19.845   4.677  26.689  1.00  0.00    -0.049 N 
HETATM   28  C10 UNL     1     -19.759   6.074  26.276  1.00  0.00     0.403 C 
ATOM     29  H82 UNL     1     -19.785   3.986  25.942  1.00  0.00     0.279 HD
ATOM     30  H81 UNL     1     -20.760   4.364  27.014  1.00  0.00     0.279 HD
HETATM   31  O3  UNL     1     -19.813   6.709  27.526  1.00  0.00    -0.320 OA
BRANCH  25  32
HETATM   32  O2  UNL     1     -19.521   5.875  29.591  1.00  0.00    -0.358 OA
ATOM     33  H2  UNL     1     -20.245   5.260  29.601  1.00  0.00     0.213 HD
ENDBRANCH  25  32
ENDBRANCH  22  25
ENDBRANCH  11  18
BRANCH  13  34
HETATM   34  N9  UNL     1     -16.509   9.112  31.327  1.00  0.00    -0.265 N 
ATOM     35  H9  UNL     1     -16.205   8.248  31.776  1.00  0.00     0.194 HD
BRANCH  34  36
HETATM   36  O5  UNL     1     -17.754   9.572  31.533  1.00  0.00    -0.289 OA
ATOM     37  H5  UNL     1     -18.289   9.846  30.798  1.00  0.00     0.244 HD
ENDBRANCH  34  36
ENDBRANCH  13  34
ENDBRANCH   5   6
BRANCH   5  38
HETATM   38  S1  UNL     1     -14.484  10.512  33.529  1.00  0.00     0.275 S 
HETATM   39  O6  UNL     1     -13.893  11.270  34.667  1.00  0.00    -0.199 OA
HETATM   40  O7  UNL     1     -15.598   9.622  34.018  1.00  0.00    -0.199 OA
BRANCH  38  41
HETATM   41  N10 UNL     1     -13.184   9.540  32.868  1.00  0.00    -0.323 N 
ATOM     42 2H10 UNL     1     -12.196   9.790  32.913  1.00  0.00     0.169 HD
ATOM     43 1H10 UNL     1     -13.571   8.699  32.440  1.00  0.00     0.169 HD
ENDBRANCH  38  41
ENDBRANCH   5  38
ENDBRANCH   3   5
TORSDOF 11
ENDMDL
MODEL 5
REMARK VINA RESULT: -8.553697189      1.316      1.590
REMARK  11 active torsions:
REMARK  status: ('A' for Active; 'I' for Inactive)
REMARK    1  A    between atoms: N2_3  and  C2_5 
REMARK    2  A    between atoms: C2_5  and  C3_6 
REMARK    3  A    between atoms: C2_5  and  S1_38 
REMARK    4  A    between atoms: C4_9  and  N4_10 
REMARK    5  A    between atoms: N4_10  and  O1_12 
REMARK    6  A    between atoms: C5_16  and  C6_17 
REMARK    7  A    between atoms: C7_22  and  C8_23 
REMARK    8  A    between atoms: C8_23  and  O2_24 
REMARK    9  A    between atoms: C11_33  and  N9_34 
REMARK   10  A    between atoms: N9_34  and  O5_36 
REMARK   11  A    between atoms: S1_38  and  N10_39 
ROOT
HETATM    1  N1  UNL     1     -13.069   6.846  32.102  1.00  0.00    -0.172 NA
HETATM    2  C1  UNL     1     -13.237   8.005  32.252  1.00  0.00     0.183 C 
HETATM    3  N2  UNL     1     -13.419   9.375  32.454  1.00  0.00    -0.281 N 
ATOM      4  H2  UNL     1     -12.729   9.891  32.999  1.00  0.00     0.179 HD
ENDROOT
BRANCH   3   5
HETATM    5  C2  UNL     1     -14.531  10.064  31.924  1.00  0.00     0.187 C 
BRANCH   5   6
HETATM    6  C3  UNL     1     -14.701  10.047  30.446  1.00  0.00     0.121 A 
HETATM    7  N3  UNL     1     -13.940  10.905  29.685  1.00  0.00    -0.185 N 
HETATM    8  C4  UNL     1     -14.030  10.945  28.364  1.00  0.00     0.703 A 
ATOM      9  H3  UNL     1     -13.284  11.531  30.153  1.00  0.00     0.184 HD
HETATM   10  N5  UNL     1     -14.878  10.135  27.736  1.00  0.00    -0.183 N 
HETATM   11  C5  UNL     1     -15.648   9.275  28.418  1.00  0.00     0.132 A 
ATOM     12  H5  UNL     1     -14.943  10.169  26.718  1.00  0.00     0.184 HD
HETATM   13  C11 UNL     1     -15.582   9.204  29.811  1.00  0.00     0.116 A 
BRANCH   8  14
HETATM   14  N4  UNL     1     -13.255  11.800  27.760  1.00  0.00    -0.098 N 
ATOM     15  H4  UNL     1     -12.927  11.620  26.811  1.00  0.00     0.213 HD
BRANCH  14  16
HETATM   16  O1  UNL     1     -12.886  12.937  28.412  1.00  0.00    -0.276 OA
ATOM     17  H1  UNL     1     -12.656  13.707  27.905  1.00  0.00     0.245 HD
ENDBRANCH  14  16
ENDBRANCH   8  14
BRANCH  11  18
HETATM   18  C6  UNL     1     -16.569   8.381  27.691  1.00  0.00     0.194 A 
HETATM   19  N6  UNL     1     -17.609   8.661  26.913  1.00  0.00    -0.276 N 
HETATM   20  N7  UNL     1     -18.131   7.536  26.477  1.00  0.00    -0.277 N 
ATOM     21  H6  UNL     1     -17.947   9.597  26.688  1.00  0.00     0.189 HD
HETATM   22  C7  UNL     1     -17.421   6.511  26.980  1.00  0.00     0.205 A 
ATOM     23  H7  UNL     1     -18.940   7.454  25.861  1.00  0.00     0.189 HD
HETATM   24  O4  UNL     1     -16.486   7.050  27.708  1.00  0.00    -0.270 OA
BRANCH  22  25
HETATM   25  C8  UNL     1     -17.719   5.077  26.703  1.00  0.00     0.257 C 
HETATM   26  C9  UNL     1     -18.548   4.956  25.442  1.00  0.00     0.312 C 
HETATM   27  N8  UNL     1     -19.644   4.097  25.906  1.00  0.00    -0.049 N 
HETATM   28  C10 UNL     1     -19.831   4.639  27.248  1.00  0.00     0.403 C 
ATOM     29  H82 UNL     1     -20.473   4.074  25.314  1.00  0.00     0.279 HD
ATOM     30  H81 UNL     1     -19.478   3.093  25.849  1.00  0.00     0.279 HD
HETATM   31  O3  UNL     1     -18.515   4.574  27.730  1.00  0.00    -0.320 OA
BRANCH  25  32
HETATM   32  O2  UNL     1     -16.578   4.293  26.628  1.00  0.00    -0.358 OA
ATOM     33  H2  UNL     1     -16.768   3.381  26.439  1.00  0.00     0.213 HD
ENDBRANCH  25  32
ENDBRANCH  22  25
ENDBRANCH  11  18
BRANCH  13  34
HETATM   34  N9  UNL     1     -16.395   8.286  30.513  1.00  0.00    -0.265 N 
ATOM     35  H9  UNL     1     -17.277   8.596  30.920  1.00  0.00     0.194 HD
BRANCH  34  36
HETATM   36  O5  UNL     1     -16.008   7.007  30.645  1.00  0.00    -0.289 OA
ATOM     37  H5  UNL     1     -16.215   6.374  29.969  1.00  0.00     0.244 HD
ENDBRANCH  34  36
ENDBRANCH  13  34
ENDBRANCH   5   6
BRANCH   5  38
HETATM   38  S1  UNL     1     -14.849  11.669  32.615  1.00  0.00     0.275 S 
HETATM   39  O6  UNL     1     -15.731  12.521  31.769  1.00  0.00    -0.199 OA
HETATM   40  O7  UNL     1     -15.473  11.456  33.970  1.00  0.00    -0.199 OA
BRANCH  38  41
HETATM   41  N10 UNL     1     -13.341  12.547  32.779  1.00  0.00    -0.323 N 
ATOM     42 2H10 UNL     1     -12.443  12.222  32.421  1.00  0.00     0.169 HD
ATOM     43 1H10 UNL     1     -13.507  13.419  33.281  1.00  0.00     0.169 HD
ENDBRANCH  38  41
ENDBRANCH   5  38
ENDBRANCH   3   5
TORSDOF 11
ENDMDL
