MODEL 1
REMARK VINA RESULT: -10.016086502      0.000      0.000
REMARK  8 active torsions:
REMARK  status: ('A' for Active; 'I' for Inactive)
REMARK    1  A    between atoms: N1_1  and  C1_4 
REMARK    2  A    between atoms: C4_12  and  C5_13 
REMARK    3  A    between atoms: C6_20  and  C7_21 
REMARK    4  A    between atoms: C7_21  and  N7_22 
REMARK    5  A    between atoms: N7_22  and  C8_24 
REMARK    6  A    between atoms: C9_27  and  N9_28 
REMARK    7  A    between atoms: N9_28  and  N10_29 
REMARK    8  A    between atoms: N10_29  and  N11_31 
ROOT
HETATM    1  C5  UNL     1     -17.502   8.201  27.219  1.00  0.00     0.149 A 
HETATM    2  N4  UNL     1     -18.594   8.932  27.503  1.00  0.00    -0.269 N 
ATOM      3  H4  UNL     1     -19.497   8.458  27.528  1.00  0.00     0.190 HD
HETATM    4  N5  UNL     1     -18.566  10.230  27.751  1.00  0.00    -0.240 N 
ATOM      5  H5  UNL     1     -19.422  10.743  27.962  1.00  0.00     0.208 HD
HETATM    6  N6  UNL     1     -17.408  10.840  27.718  1.00  0.00    -0.273 N 
ATOM      7  H6  UNL     1     -17.362  11.842  27.906  1.00  0.00     0.190 HD
HETATM    8  C6  UNL     1     -16.279  10.167  27.440  1.00  0.00     0.117 A 
HETATM    9  N15 UNL     1     -16.321   8.840  27.188  1.00  0.00    -0.327 N 
ATOM     10  H15 UNL     1     -15.465   8.329  26.977  1.00  0.00     0.169 HD
ENDROOT
BRANCH   8  11
HETATM   11  C7  UNL     1     -15.016  10.937  27.424  1.00  0.00     0.216 C 
BRANCH  11  12
HETATM   12  N7  UNL     1     -14.057  10.325  28.307  1.00  0.00    -0.218 N 
ATOM     13  H7  UNL     1     -13.362   9.680  27.931  1.00  0.00     0.178 HD
BRANCH  12  14
HETATM   14  C8  UNL     1     -14.073  10.616  29.709  1.00  0.00     0.692 A 
HETATM   15  N8  UNL     1     -14.356   9.697  30.549  1.00  0.00    -0.187 N 
HETATM   16  C9  UNL     1     -14.415   9.818  31.967  1.00  0.00     0.333 A 
ATOM     17  H8  UNL     1     -14.562   8.776  30.163  1.00  0.00     0.181 HD
HETATM   18  N12 UNL     1     -14.105  11.162  32.375  1.00  0.00    -0.282 N 
HETATM   19  N13 UNL     1     -13.802  12.135  31.439  1.00  0.00    -0.230 N 
ATOM     20  H12 UNL     1     -14.108  11.400  33.367  1.00  0.00     0.185 HD
HETATM   21  N14 UNL     1     -13.778  11.919  30.201  1.00  0.00    -0.118 N 
ATOM     22  H13 UNL     1     -13.586  13.076  31.772  1.00  0.00     0.208 HD
ATOM     23  H14 UNL     1     -13.549  12.673  29.553  1.00  0.00     0.207 HD
BRANCH  16  24
HETATM   24  N9  UNL     1     -15.708   9.405  32.506  1.00  0.00    -0.072 NA
BRANCH  24  25
HETATM   25  N10 UNL     1     -16.621  10.422  32.129  1.00  0.00    -0.183 N 
ATOM     26  H10 UNL     1     -16.666  11.302  32.644  1.00  0.00     0.210 HD
BRANCH  25  27
HETATM   27  N11 UNL     1     -17.460  10.188  31.032  1.00  0.00    -0.027 N 
HETATM   28  O2  UNL     1     -18.234  11.098  30.642  1.00  0.00    -0.516 OA
HETATM   29  O3  UNL     1     -17.424   8.970  30.399  1.00  0.00    -0.516 OA
ENDBRANCH  25  27
ENDBRANCH  24  25
ENDBRANCH  16  24
ENDBRANCH  12  14
ENDBRANCH  11  12
ENDBRANCH   8  11
BRANCH   1  30
HETATM   30  C4  UNL     1     -17.573   6.767  26.950  1.00  0.00     0.079 A 
HETATM   31  N3  UNL     1     -18.222   6.262  25.888  1.00  0.00    -0.347 N 
HETATM   32  C3  UNL     1     -18.308   4.958  25.609  1.00  0.00     0.129 A 
ATOM     33  H3  UNL     1     -18.677   6.917  25.253  1.00  0.00     0.166 HD
HETATM   34  C2  UNL     1     -18.980   4.460  24.509  1.00  0.00     0.288 A 
HETATM   35  C12 UNL     1     -17.707   4.029  26.441  1.00  0.00     0.081 A 
HETATM   36  N2  UNL     1     -19.069   3.150  24.227  1.00  0.00    -0.154 N 
HETATM   37  O1  UNL     1     -19.545   5.284  23.721  1.00  0.00    -0.265 OA
HETATM   38  C1  UNL     1     -18.475   2.290  25.056  1.00  0.00     0.679 A 
ATOM     39  H2  UNL     1     -19.575   2.822  23.404  1.00  0.00     0.187 HD
HETATM   40  N16 UNL     1     -17.806   2.722  26.144  1.00  0.00    -0.190 N 
ATOM     41  H16 UNL     1     -17.364   2.039  26.759  1.00  0.00     0.184 HD
HETATM   42  C11 UNL     1     -17.030   4.506  27.547  1.00  0.00     0.035 A 
HETATM   43  C10 UNL     1     -16.960   5.879  27.806  1.00  0.00     0.036 A 
BRANCH  38  44
HETATM   44  N1  UNL     1     -18.531   1.015  24.828  1.00  0.00    -0.234 N 
ATOM     45  H12 UNL     1     -19.314   0.650  24.285  1.00  0.00     0.174 HD
ATOM     46  H11 UNL     1     -17.804   0.395  25.186  1.00  0.00     0.174 HD
ENDBRANCH  38  44
ENDBRANCH   1  30
TORSDOF 8
ENDMDL
MODEL 2
REMARK VINA RESULT: -9.905771673      3.320      8.097
REMARK  8 active torsions:
REMARK  status: ('A' for Active; 'I' for Inactive)
REMARK    1  A    between atoms: N1_1  and  C1_4 
REMARK    2  A    between atoms: C4_12  and  C5_13 
REMARK    3  A    between atoms: C6_20  and  C7_21 
REMARK    4  A    between atoms: C7_21  and  N7_22 
REMARK    5  A    between atoms: N7_22  and  C8_24 
REMARK    6  A    between atoms: C9_27  and  N9_28 
REMARK    7  A    between atoms: N9_28  and  N10_29 
REMARK    8  A    between atoms: N10_29  and  N11_31 
ROOT
HETATM    1  C5  UNL     1     -15.378   8.128  28.211  1.00  0.00     0.149 A 
HETATM    2  N4  UNL     1     -14.980   8.255  29.489  1.00  0.00    -0.269 N 
ATOM      3  H4  UNL     1     -14.431   9.076  29.742  1.00  0.00     0.190 HD
HETATM    4  N5  UNL     1     -15.259   7.375  30.436  1.00  0.00    -0.240 N 
ATOM      5  H5  UNL     1     -14.935   7.515  31.392  1.00  0.00     0.208 HD
HETATM    6  N6  UNL     1     -15.963   6.320  30.111  1.00  0.00    -0.273 N 
ATOM      7  H6  UNL     1     -16.190   5.628  30.826  1.00  0.00     0.190 HD
HETATM    8  C6  UNL     1     -16.391   6.135  28.852  1.00  0.00     0.117 A 
HETATM    9  N15 UNL     1     -16.100   7.041  27.892  1.00  0.00    -0.327 N 
ATOM     10  H15 UNL     1     -16.424   6.900  26.936  1.00  0.00     0.169 HD
ENDROOT
BRANCH   8  11
HETATM   11  C7  UNL     1     -17.180   4.915  28.575  1.00  0.00     0.216 C 
BRANCH  11  12
HETATM   12  N7  UNL     1     -18.325   5.243  27.766  1.00  0.00    -0.218 N 
ATOM     13  H7  UNL     1     -18.937   6.011  28.043  1.00  0.00     0.178 HD
BRANCH  12  14
HETATM   14  C8  UNL     1     -18.609   4.500  26.576  1.00  0.00     0.692 A 
HETATM   15  N8  UNL     1     -19.355   5.005  25.671  1.00  0.00    -0.187 N 
HETATM   16  C9  UNL     1     -19.734   4.404  24.437  1.00  0.00     0.333 A 
ATOM     17  H8  UNL     1     -19.719   5.940  25.852  1.00  0.00     0.181 HD
HETATM   18  N12 UNL     1     -19.154   3.093  24.311  1.00  0.00    -0.282 N 
HETATM   19  N13 UNL     1     -18.349   2.575  25.310  1.00  0.00    -0.230 N 
ATOM     20  H12 UNL     1     -19.339   2.539  23.474  1.00  0.00     0.185 HD
HETATM   21  N14 UNL     1     -18.077   3.196  26.369  1.00  0.00    -0.118 N 
ATOM     22  H13 UNL     1     -17.957   1.642  25.180  1.00  0.00     0.208 HD
ATOM     23  H14 UNL     1     -17.479   2.768  27.075  1.00  0.00     0.207 HD
BRANCH  16  24
HETATM   24  N9  UNL     1     -21.184   4.340  24.271  1.00  0.00    -0.072 NA
BRANCH  24  25
HETATM   25  N10 UNL     1     -21.715   5.260  25.210  1.00  0.00    -0.183 N 
ATOM     26  H10 UNL     1     -21.347   6.209  25.279  1.00  0.00     0.210 HD
BRANCH  25  27
HETATM   27  N11 UNL     1     -22.758   4.832  26.042  1.00  0.00    -0.027 N 
HETATM   28  O2  UNL     1     -22.530   4.621  27.260  1.00  0.00    -0.516 OA
HETATM   29  O3  UNL     1     -24.013   4.650  25.516  1.00  0.00    -0.516 OA
ENDBRANCH  25  27
ENDBRANCH  24  25
ENDBRANCH  16  24
ENDBRANCH  12  14
ENDBRANCH  11  12
ENDBRANCH   8  11
BRANCH   1  30
HETATM   30  C4  UNL     1     -15.051   9.122  27.192  1.00  0.00     0.079 A 
HETATM   31  N3  UNL     1     -15.176   8.878  25.877  1.00  0.00    -0.347 N 
HETATM   32  C3  UNL     1     -14.887   9.760  24.916  1.00  0.00     0.129 A 
ATOM     33  H3  UNL     1     -15.513   7.958  25.594  1.00  0.00     0.166 HD
HETATM   34  C2  UNL     1     -15.024   9.487  23.569  1.00  0.00     0.288 A 
HETATM   35  C12 UNL     1     -14.424  11.022  25.249  1.00  0.00     0.081 A 
HETATM   36  N2  UNL     1     -14.733  10.372  22.601  1.00  0.00    -0.154 N 
HETATM   37  O1  UNL     1     -15.446   8.337  23.224  1.00  0.00    -0.265 OA
HETATM   38  C1  UNL     1     -14.290  11.576  22.968  1.00  0.00     0.679 A 
ATOM     39  H2  UNL     1     -14.848  10.131  21.616  1.00  0.00     0.187 HD
HETATM   40  N16 UNL     1     -14.138  11.895  24.268  1.00  0.00    -0.190 N 
ATOM     41  H16 UNL     1     -13.797  12.823  24.515  1.00  0.00     0.184 HD
HETATM   42  C11 UNL     1     -14.280  11.315  26.591  1.00  0.00     0.035 A 
HETATM   43  C10 UNL     1     -14.594  10.365  27.569  1.00  0.00     0.036 A 
BRANCH  38  44
HETATM   44  N1  UNL     1     -13.997  12.466  22.071  1.00  0.00    -0.234 N 
ATOM     45  H12 UNL     1     -14.358  13.413  22.186  1.00  0.00     0.174 HD
ATOM     46  H11 UNL     1     -13.415  12.218  21.271  1.00  0.00     0.174 HD
ENDBRANCH  38  44
ENDBRANCH   1  30
TORSDOF 8
ENDMDL
MODEL 3
REMARK VINA RESULT: -9.851773096      2.961      7.582
REMARK  8 active torsions:
REMARK  status: ('A' for Active; 'I' for Inactive)
REMARK    1  A    between atoms: N1_1  and  C1_4 
REMARK    2  A    between atoms: C4_12  and  C5_13 
REMARK    3  A    between atoms: C6_20  and  C7_21 
REMARK    4  A    between atoms: C7_21  and  N7_22 
REMARK    5  A    between atoms: N7_22  and  C8_24 
REMARK    6  A    between atoms: C9_27  and  N9_28 
REMARK    7  A    between atoms: N9_28  and  N10_29 
REMARK    8  A    between atoms: N10_29  and  N11_31 
ROOT
HETATM    1  C5  UNL     1     -16.096   7.969  27.929  1.00  0.00     0.149 A 
HETATM    2  N4  UNL     1     -16.508   8.273  29.172  1.00  0.00    -0.269 N 
ATOM      3  H4  UNL     1     -16.441   9.244  29.476  1.00  0.00     0.190 HD
HETATM    4  N5  UNL     1     -16.994   7.386  30.022  1.00  0.00    -0.240 N 
ATOM      5  H5  UNL     1     -17.295   7.665  30.956  1.00  0.00     0.208 HD
HETATM    6  N6  UNL     1     -17.079   6.139  29.632  1.00  0.00    -0.273 N 
ATOM      7  H6  UNL     1     -17.451   5.436  30.272  1.00  0.00     0.190 HD
HETATM    8  C6  UNL     1     -16.684   5.769  28.403  1.00  0.00     0.117 A 
HETATM    9  N15 UNL     1     -16.189   6.686  27.543  1.00  0.00    -0.327 N 
ATOM     10  H15 UNL     1     -15.888   6.406  26.609  1.00  0.00     0.169 HD
ENDROOT
BRANCH   8  11
HETATM   11  C7  UNL     1     -16.816   4.340  28.048  1.00  0.00     0.216 C 
BRANCH  11  12
HETATM   12  N7  UNL     1     -16.707   4.176  26.622  1.00  0.00    -0.218 N 
ATOM     13  H7  UNL     1     -15.785   4.120  26.188  1.00  0.00     0.178 HD
BRANCH  12  14
HETATM   14  C8  UNL     1     -17.881   4.091  25.809  1.00  0.00     0.692 A 
HETATM   15  N8  UNL     1     -18.711   5.061  25.781  1.00  0.00    -0.187 N 
HETATM   16  C9  UNL     1     -19.919   5.136  25.031  1.00  0.00     0.333 A 
ATOM     17  H8  UNL     1     -18.484   5.870  26.358  1.00  0.00     0.181 HD
HETATM   18  N12 UNL     1     -20.118   3.935  24.265  1.00  0.00    -0.282 N 
HETATM   19  N13 UNL     1     -19.199   2.901  24.317  1.00  0.00    -0.230 N 
ATOM     20  H12 UNL     1     -20.946   3.844  23.676  1.00  0.00     0.185 HD
HETATM   21  N14 UNL     1     -18.157   2.938  25.019  1.00  0.00    -0.118 N 
ATOM     22  H13 UNL     1     -19.377   2.066  23.757  1.00  0.00     0.208 HD
ATOM     23  H14 UNL     1     -17.512   2.148  25.022  1.00  0.00     0.207 HD
BRANCH  16  24
HETATM   24  N9  UNL     1     -21.082   5.403  25.875  1.00  0.00    -0.072 NA
BRANCH  24  25
HETATM   25  N10 UNL     1     -20.851   6.678  26.449  1.00  0.00    -0.183 N 
ATOM     26  H10 UNL     1     -21.263   7.518  26.042  1.00  0.00     0.210 HD
BRANCH  25  27
HETATM   27  N11 UNL     1     -20.042   6.757  27.590  1.00  0.00    -0.027 N 
HETATM   28  O2  UNL     1     -19.216   7.698  27.698  1.00  0.00    -0.516 OA
HETATM   29  O3  UNL     1     -20.163   5.805  28.573  1.00  0.00    -0.516 OA
ENDBRANCH  25  27
ENDBRANCH  24  25
ENDBRANCH  16  24
ENDBRANCH  12  14
ENDBRANCH  11  12
ENDBRANCH   8  11
BRANCH   1  30
HETATM   30  C4  UNL     1     -15.563   8.979  27.016  1.00  0.00     0.079 A 
HETATM   31  N3  UNL     1     -15.525   8.802  25.685  1.00  0.00    -0.347 N 
HETATM   32  C3  UNL     1     -15.047   9.700  24.820  1.00  0.00     0.129 A 
ATOM     33  H3  UNL     1     -15.885   7.924  25.311  1.00  0.00     0.166 HD
HETATM   34  C2  UNL     1     -15.018   9.498  23.454  1.00  0.00     0.288 A 
HETATM   35  C12 UNL     1     -14.547  10.907  25.278  1.00  0.00     0.081 A 
HETATM   36  N2  UNL     1     -14.537  10.399  22.581  1.00  0.00    -0.154 N 
HETATM   37  O1  UNL     1     -15.469   8.400  22.995  1.00  0.00    -0.265 OA
HETATM   38  C1  UNL     1     -14.065  11.548  23.067  1.00  0.00     0.679 A 
ATOM     39  H2  UNL     1     -14.533  10.211  21.579  1.00  0.00     0.187 HD
HETATM   40  N16 UNL     1     -14.069  11.798  24.392  1.00  0.00    -0.190 N 
ATOM     41  H16 UNL     1     -13.700  12.686  24.731  1.00  0.00     0.184 HD
HETATM   42  C11 UNL     1     -14.567  11.130  26.641  1.00  0.00     0.035 A 
HETATM   43  C10 UNL     1     -15.076  10.165  27.517  1.00  0.00     0.036 A 
BRANCH  38  44
HETATM   44  N1  UNL     1     -13.590  12.451  22.267  1.00  0.00    -0.234 N 
ATOM     45  H12 UNL     1     -14.220  12.886  21.592  1.00  0.00     0.174 HD
ATOM     46  H11 UNL     1     -12.607  12.717  22.316  1.00  0.00     0.174 HD
ENDBRANCH  38  44
ENDBRANCH   1  30
TORSDOF 8
ENDMDL
MODEL 4
REMARK VINA RESULT: -9.597322448      3.482      8.337
REMARK  8 active torsions:
REMARK  status: ('A' for Active; 'I' for Inactive)
REMARK    1  A    between atoms: N1_1  and  C1_4 
REMARK    2  A    between atoms: C4_12  and  C5_13 
REMARK    3  A    between atoms: C6_20  and  C7_21 
REMARK    4  A    between atoms: C7_21  and  N7_22 
REMARK    5  A    between atoms: N7_22  and  C8_24 
REMARK    6  A    between atoms: C9_27  and  N9_28 
REMARK    7  A    between atoms: N9_28  and  N10_29 
REMARK    8  A    between atoms: N10_29  and  N11_31 
ROOT
HETATM    1  C5  UNL     1     -16.023   8.003  27.917  1.00  0.00     0.149 A 
HETATM    2  N4  UNL     1     -16.267   8.277  29.210  1.00  0.00    -0.269 N 
ATOM      3  H4  UNL     1     -16.091   9.225  29.542  1.00  0.00     0.190 HD
HETATM    4  N5  UNL     1     -16.721   7.388  30.077  1.00  0.00    -0.240 N 
ATOM      5  H5  UNL     1     -16.891   7.643  31.049  1.00  0.00     0.208 HD
HETATM    6  N6  UNL     1     -16.945   6.170  29.653  1.00  0.00    -0.273 N 
ATOM      7  H6  UNL     1     -17.295   5.467  30.304  1.00  0.00     0.190 HD
HETATM    8  C6  UNL     1     -16.721   5.831  28.372  1.00  0.00     0.117 A 
HETATM    9  N15 UNL     1     -16.257   6.749  27.496  1.00  0.00    -0.327 N 
ATOM     10  H15 UNL     1     -16.087   6.492  26.524  1.00  0.00     0.169 HD
ENDROOT
BRANCH   8  11
HETATM   11  C7  UNL     1     -17.003   4.433  27.981  1.00  0.00     0.216 C 
BRANCH  11  12
HETATM   12  N7  UNL     1     -18.419   4.181  28.042  1.00  0.00    -0.218 N 
ATOM     13  H7  UNL     1     -18.858   3.977  28.940  1.00  0.00     0.178 HD
BRANCH  12  14
HETATM   14  C8  UNL     1     -19.214   4.216  26.853  1.00  0.00     0.692 A 
HETATM   15  N8  UNL     1     -20.280   4.919  26.818  1.00  0.00    -0.187 N 
HETATM   16  C9  UNL     1     -21.178   5.062  25.721  1.00  0.00     0.333 A 
ATOM     17  H8  UNL     1     -20.514   5.433  27.667  1.00  0.00     0.181 HD
HETATM   18  N12 UNL     1     -20.731   4.288  24.594  1.00  0.00    -0.282 N 
HETATM   19  N13 UNL     1     -19.571   3.537  24.664  1.00  0.00    -0.230 N 
ATOM     20  H12 UNL     1     -21.278   4.292  23.732  1.00  0.00     0.185 HD
HETATM   21  N14 UNL     1     -18.847   3.480  25.690  1.00  0.00    -0.118 N 
ATOM     22  H13 UNL     1     -19.290   3.003  23.842  1.00  0.00     0.208 HD
ATOM     23  H14 UNL     1     -18.001   2.911  25.690  1.00  0.00     0.207 HD
BRANCH  16  24
HETATM   24  N9  UNL     1     -22.550   4.706  26.076  1.00  0.00    -0.072 NA
BRANCH  24  25
HETATM   25  N10 UNL     1     -23.377   5.526  25.268  1.00  0.00    -0.183 N 
ATOM     26  H10 UNL     1     -23.539   6.504  25.508  1.00  0.00     0.210 HD
BRANCH  25  27
HETATM   27  N11 UNL     1     -23.968   4.958  24.132  1.00  0.00    -0.027 N 
HETATM   28  O2  UNL     1     -23.727   3.758  23.844  1.00  0.00    -0.516 OA
HETATM   29  O3  UNL     1     -24.801   5.719  23.350  1.00  0.00    -0.516 OA
ENDBRANCH  25  27
ENDBRANCH  24  25
ENDBRANCH  16  24
ENDBRANCH  12  14
ENDBRANCH  11  12
ENDBRANCH   8  11
BRANCH   1  30
HETATM   30  C4  UNL     1     -15.521   9.012  26.988  1.00  0.00     0.079 A 
HETATM   31  N3  UNL     1     -15.492   8.821  25.659  1.00  0.00    -0.347 N 
HETATM   32  C3  UNL     1     -15.042   9.720  24.779  1.00  0.00     0.129 A 
ATOM     33  H3  UNL     1     -15.837   7.932  25.298  1.00  0.00     0.166 HD
HETATM   34  C2  UNL     1     -15.023   9.503  23.415  1.00  0.00     0.288 A 
HETATM   35  C12 UNL     1     -14.563  10.942  25.219  1.00  0.00     0.081 A 
HETATM   36  N2  UNL     1     -14.570  10.404  22.528  1.00  0.00    -0.154 N 
HETATM   37  O1  UNL     1     -15.456   8.391  22.972  1.00  0.00    -0.265 OA
HETATM   38  C1  UNL     1     -14.117  11.568  22.996  1.00  0.00     0.679 A 
ATOM     39  H2  UNL     1     -14.572  10.205  21.527  1.00  0.00     0.187 HD
HETATM   40  N16 UNL     1     -14.113  11.832  24.318  1.00  0.00    -0.190 N 
ATOM     41  H16 UNL     1     -13.759  12.732  24.643  1.00  0.00     0.184 HD
HETATM   42  C11 UNL     1     -14.573  11.180  26.579  1.00  0.00     0.035 A 
HETATM   43  C10 UNL     1     -15.053  10.214  27.471  1.00  0.00     0.036 A 
BRANCH  38  44
HETATM   44  N1  UNL     1     -13.669  12.472  22.181  1.00  0.00    -0.234 N 
ATOM     45  H12 UNL     1     -13.840  12.357  21.182  1.00  0.00     0.174 HD
ATOM     46  H11 UNL     1     -13.159  13.280  22.538  1.00  0.00     0.174 HD
ENDBRANCH  38  44
ENDBRANCH   1  30
TORSDOF 8
ENDMDL
MODEL 5
REMARK VINA RESULT: -9.554838708      2.061      3.480
REMARK  8 active torsions:
REMARK  status: ('A' for Active; 'I' for Inactive)
REMARK    1  A    between atoms: N1_1  and  C1_4 
REMARK    2  A    between atoms: C4_12  and  C5_13 
REMARK    3  A    between atoms: C6_20  and  C7_21 
REMARK    4  A    between atoms: C7_21  and  N7_22 
REMARK    5  A    between atoms: N7_22  and  C8_24 
REMARK    6  A    between atoms: C9_27  and  N9_28 
REMARK    7  A    between atoms: N9_28  and  N10_29 
REMARK    8  A    between atoms: N10_29  and  N11_31 
ROOT
HETATM    1  C5  UNL     1     -18.004   8.015  27.692  1.00  0.00     0.149 A 
HETATM    2  N4  UNL     1     -18.793   8.929  27.100  1.00  0.00    -0.269 N 
ATOM      3  H4  UNL     1     -19.388   8.624  26.330  1.00  0.00     0.190 HD
HETATM    4  N5  UNL     1     -18.842  10.200  27.459  1.00  0.00    -0.240 N 
ATOM      5  H5  UNL     1     -19.457  10.857  26.980  1.00  0.00     0.208 HD
HETATM    6  N6  UNL     1     -18.078  10.593  28.447  1.00  0.00    -0.273 N 
ATOM      7  H6  UNL     1     -18.098  11.570  28.741  1.00  0.00     0.190 HD
HETATM    8  C6  UNL     1     -17.266   9.729  29.080  1.00  0.00     0.117 A 
HETATM    9  N15 UNL     1     -17.226   8.432  28.704  1.00  0.00    -0.327 N 
ATOM     10  H15 UNL     1     -16.610   7.776  29.184  1.00  0.00     0.169 HD
ENDROOT
BRANCH   8  11
HETATM   11  C7  UNL     1     -16.439  10.260  30.185  1.00  0.00     0.216 C 
BRANCH  11  12
HETATM   12  N7  UNL     1     -15.042  10.104  29.871  1.00  0.00    -0.218 N 
ATOM     13  H7  UNL     1     -14.485   9.411  30.371  1.00  0.00     0.178 HD
BRANCH  12  14
HETATM   14  C8  UNL     1     -14.431  10.913  28.861  1.00  0.00     0.692 A 
HETATM   15  N8  UNL     1     -14.683  10.694  27.628  1.00  0.00    -0.187 N 
HETATM   16  C9  UNL     1     -14.162  11.402  26.507  1.00  0.00     0.333 A 
ATOM     17  H8  UNL     1     -15.326   9.931  27.424  1.00  0.00     0.181 HD
HETATM   18  N12 UNL     1     -13.272  12.448  26.935  1.00  0.00    -0.282 N 
HETATM   19  N13 UNL     1     -13.020  12.659  28.279  1.00  0.00    -0.230 N 
ATOM     20  H12 UNL     1     -12.820  13.042  26.239  1.00  0.00     0.185 HD
HETATM   21  N14 UNL     1     -13.537  11.970  29.195  1.00  0.00    -0.118 N 
ATOM     22  H13 UNL     1     -12.383  13.412  28.540  1.00  0.00     0.208 HD
ATOM     23  H14 UNL     1     -13.317  12.166  30.171  1.00  0.00     0.207 HD
BRANCH  16  24
HETATM   24  N9  UNL     1     -13.494  10.519  25.554  1.00  0.00    -0.072 NA
BRANCH  24  25
HETATM   25  N10 UNL     1     -14.452  10.253  24.544  1.00  0.00    -0.183 N 
ATOM     26  H10 UNL     1     -14.745  10.983  23.895  1.00  0.00     0.210 HD
BRANCH  25  27
HETATM   27  N11 UNL     1     -14.989   8.962  24.462  1.00  0.00    -0.027 N 
HETATM   28  O2  UNL     1     -15.314   8.498  23.340  1.00  0.00    -0.516 OA
HETATM   29  O3  UNL     1     -15.152   8.222  25.607  1.00  0.00    -0.516 OA
ENDBRANCH  25  27
ENDBRANCH  24  25
ENDBRANCH  16  24
ENDBRANCH  12  14
ENDBRANCH  11  12
ENDBRANCH   8  11
BRANCH   1  30
HETATM   30  C4  UNL     1     -17.978   6.617  27.267  1.00  0.00     0.079 A 
HETATM   31  N3  UNL     1     -18.536   6.200  26.119  1.00  0.00    -0.347 N 
HETATM   32  C3  UNL     1     -18.532   4.932  25.697  1.00  0.00     0.129 A 
ATOM     33  H3  UNL     1     -18.993   6.897  25.531  1.00  0.00     0.166 HD
HETATM   34  C2  UNL     1     -19.112   4.525  24.511  1.00  0.00     0.288 A 
HETATM   35  C12 UNL     1     -17.926   3.949  26.461  1.00  0.00     0.081 A 
HETATM   36  N2  UNL     1     -19.110   3.251  24.085  1.00  0.00    -0.154 N 
HETATM   37  O1  UNL     1     -19.680   5.401  23.783  1.00  0.00    -0.265 OA
HETATM   38  C1  UNL     1     -18.515   2.337  24.853  1.00  0.00     0.679 A 
ATOM     39  H2  UNL     1     -19.550   2.991  23.203  1.00  0.00     0.187 HD
HETATM   40  N16 UNL     1     -17.933   2.679  26.020  1.00  0.00    -0.190 N 
ATOM     41  H16 UNL     1     -17.487   1.956  26.583  1.00  0.00     0.184 HD
HETATM   42  C11 UNL     1     -17.340   4.335  27.650  1.00  0.00     0.035 A 
HETATM   43  C10 UNL     1     -17.363   5.673  28.059  1.00  0.00     0.036 A 
BRANCH  38  44
HETATM   44  N1  UNL     1     -18.485   1.093  24.486  1.00  0.00    -0.234 N 
ATOM     45  H12 UNL     1     -17.579   0.649  24.338  1.00  0.00     0.174 HD
ATOM     46  H11 UNL     1     -19.354   0.576  24.351  1.00  0.00     0.174 HD
ENDBRANCH  38  44
ENDBRANCH   1  30
TORSDOF 8
ENDMDL
