MODEL 1
REMARK VINA RESULT: -9.278375735      0.000      0.000
REMARK  8 active torsions:
REMARK  status: ('A' for Active; 'I' for Inactive)
REMARK       I    between atoms: C1_4  and  N3_6 
REMARK    1  A    between atoms: N3_6  and  C2_8 
REMARK    2  A    between atoms: C5_15  and  C6_16 
REMARK    3  A    between atoms: C6_16  and  S1_17 
REMARK    4  A    between atoms: S1_17  and  C7_18 
REMARK    5  A    between atoms: C7_18  and  C8_19 
REMARK    6  A    between atoms: C10_24  and  C11_25 
REMARK    7  A    between atoms: C12_34  and  N12_35 
REMARK    8  A    between atoms: N12_35  and  N13_36 
ROOT
HETATM    1  C8  UNL     1     -15.574  10.006  27.121  1.00  0.00     0.067 A 
HETATM    2  N6  UNL     1     -14.517  10.407  27.844  1.00  0.00    -0.192 N 
ATOM      3  H6  UNL     1     -13.572  10.555  27.489  1.00  0.00     0.184 HD
HETATM    4  C9  UNL     1     -14.914  10.581  29.119  1.00  0.00     0.685 A 
HETATM    5  N7  UNL     1     -16.236  10.292  29.233  1.00  0.00    -0.140 N 
HETATM    6  C10 UNL     1     -16.630   9.941  28.003  1.00  0.00     0.126 A 
HETATM    7  C12 UNL     1     -16.958  10.377  30.485  1.00  0.00     0.321 C 
HETATM    8  N14 UNL     1     -16.226  10.937  31.559  1.00  0.00    -0.370 N 
ATOM      9  H14 UNL     1     -16.511  10.774  32.525  1.00  0.00     0.158 HD
HETATM   10  C13 UNL     1     -15.090  11.727  31.264  1.00  0.00     0.259 C 
HETATM   11  N15 UNL     1     -14.253  10.991  30.312  1.00  0.00    -0.210 N 
ATOM     12  H15 UNL     1     -13.270  10.788  30.491  1.00  0.00     0.179 HD
ENDROOT
BRANCH   1  13
HETATM   13  C7  UNL     1     -15.557   9.705  25.666  1.00  0.00     0.134 C 
BRANCH  13  14
HETATM   14  S1  UNL     1     -15.393   7.953  25.334  1.00  0.00    -0.155 SA
BRANCH  14  15
HETATM   15  C6  UNL     1     -14.913   7.119  26.865  1.00  0.00     0.158 C 
BRANCH  15  16
HETATM   16  C5  UNL     1     -15.900   6.175  27.381  1.00  0.00     0.132 C 
HETATM   17  N5  UNL     1     -16.196   6.284  28.628  1.00  0.00    -0.372 N 
HETATM   18  C4  UNL     1     -17.135   5.486  29.399  1.00  0.00     0.141 C 
ATOM     19  H5  UNL     1     -15.712   7.021  29.140  1.00  0.00     0.161 HD
HETATM   20  C3  UNL     1     -18.463   5.355  28.712  1.00  0.00     0.143 C 
HETATM   21  N4  UNL     1     -18.422   4.463  27.567  1.00  0.00    -0.354 N 
HETATM   22  C2  UNL     1     -17.549   4.422  26.617  1.00  0.00     0.228 C 
ATOM     23  H4  UNL     1     -19.179   3.783  27.505  1.00  0.00     0.163 HD
HETATM   24  O1  UNL     1     -16.422   5.259  26.491  1.00  0.00    -0.266 OA
BRANCH  22  25
HETATM   25  N3  UNL     1     -17.696   3.461  25.580  1.00  0.00    -0.296 N 
HETATM   26  C1  UNL     1     -18.711   3.599  24.605  1.00  0.00     0.189 C 
HETATM   27  N1  UNL     1     -19.261   2.535  24.133  1.00  0.00    -0.373 N 
HETATM   28  N2  UNL     1     -19.080   4.903  24.188  1.00  0.00    -0.064 NA
ATOM     29  H12 UNL     1     -19.993   2.634  23.430  1.00  0.00     0.158 HD
ATOM     30  H11 UNL     1     -18.996   1.597  24.432  1.00  0.00     0.158 HD
ATOM     31  H3  UNL     1     -17.062   2.663  25.538  1.00  0.00     0.172 HD
ENDBRANCH  22  25
ENDBRANCH  15  16
ENDBRANCH  14  15
ENDBRANCH  13  14
ENDBRANCH   1  13
BRANCH   6  32
HETATM   32  C11 UNL     1     -17.972   9.539  27.585  1.00  0.00     0.167 A 
HETATM   33  N8  UNL     1     -19.061  10.321  27.494  1.00  0.00    -0.267 N 
HETATM   34  N9  UNL     1     -20.084   9.595  27.082  1.00  0.00    -0.227 N 
ATOM     35  H8  UNL     1     -19.091  11.318  27.708  1.00  0.00     0.190 HD
HETATM   36  N10 UNL     1     -19.684   8.352  26.904  1.00  0.00    -0.227 N 
ATOM     37  H9  UNL     1     -21.031   9.941  26.927  1.00  0.00     0.210 HD
HETATM   38  N11 UNL     1     -18.402   8.322  27.210  1.00  0.00    -0.267 N 
ATOM     39  H10 UNL     1     -20.255   7.567  26.591  1.00  0.00     0.210 HD
ATOM     40  H11 UNL     1     -17.816   7.488  27.167  1.00  0.00     0.190 HD
ENDBRANCH   6  32
BRANCH   7  41
HETATM   41  N12 UNL     1     -17.329   9.015  30.918  1.00  0.00    -0.100 NA
BRANCH  41  42
HETATM   42  N13 UNL     1     -16.277   8.367  31.521  1.00  0.00    -0.345 N 
ATOM     43 2H13 UNL     1     -15.313   8.445  31.198  1.00  0.00     0.172 HD
ATOM     44 1H13 UNL     1     -16.584   7.810  32.318  1.00  0.00     0.172 HD
ENDBRANCH  41  42
ENDBRANCH   7  41
TORSDOF 8
ENDMDL
MODEL 2
REMARK VINA RESULT: -8.926236522      2.583      4.699
REMARK  8 active torsions:
REMARK  status: ('A' for Active; 'I' for Inactive)
REMARK       I    between atoms: C1_4  and  N3_6 
REMARK    1  A    between atoms: N3_6  and  C2_8 
REMARK    2  A    between atoms: C5_15  and  C6_16 
REMARK    3  A    between atoms: C6_16  and  S1_17 
REMARK    4  A    between atoms: S1_17  and  C7_18 
REMARK    5  A    between atoms: C7_18  and  C8_19 
REMARK    6  A    between atoms: C10_24  and  C11_25 
REMARK    7  A    between atoms: C12_34  and  N12_35 
REMARK    8  A    between atoms: N12_35  and  N13_36 
ROOT
HETATM    1  C8  UNL     1     -15.975   8.210  28.264  1.00  0.00     0.067 A 
HETATM    2  N6  UNL     1     -15.629   7.846  27.020  1.00  0.00    -0.192 N 
ATOM      3  H6  UNL     1     -15.772   6.924  26.606  1.00  0.00     0.184 HD
HETATM    4  C9  UNL     1     -15.061   8.903  26.409  1.00  0.00     0.685 A 
HETATM    5  N7  UNL     1     -15.033   9.964  27.255  1.00  0.00    -0.140 N 
HETATM    6  C10 UNL     1     -15.596   9.529  28.389  1.00  0.00     0.126 A 
HETATM    7  C12 UNL     1     -14.476  11.250  26.892  1.00  0.00     0.321 C 
HETATM    8  N14 UNL     1     -14.102  11.376  25.532  1.00  0.00    -0.370 N 
ATOM      9  H14 UNL     1     -13.442  12.097  25.238  1.00  0.00     0.158 HD
HETATM   10  C13 UNL     1     -14.661  10.479  24.592  1.00  0.00     0.259 C 
HETATM   11  N15 UNL     1     -14.514   9.117  25.111  1.00  0.00    -0.210 N 
ATOM     12  H15 UNL     1     -14.053   8.376  24.582  1.00  0.00     0.179 HD
ENDROOT
BRANCH   1  13
HETATM   13  C7  UNL     1     -16.631   7.333  29.267  1.00  0.00     0.134 C 
BRANCH  13  14
HETATM   14  S1  UNL     1     -16.920   5.680  28.641  1.00  0.00    -0.155 SA
BRANCH  14  15
HETATM   15  C6  UNL     1     -18.704   5.422  28.496  1.00  0.00     0.158 C 
BRANCH  15  16
HETATM   16  C5  UNL     1     -19.184   5.234  27.130  1.00  0.00     0.132 C 
HETATM   17  N5  UNL     1     -18.289   4.984  26.239  1.00  0.00    -0.372 N 
HETATM   18  C4  UNL     1     -18.480   4.756  24.818  1.00  0.00     0.141 C 
ATOM     19  H5  UNL     1     -17.326   4.941  26.574  1.00  0.00     0.161 HD
HETATM   20  C3  UNL     1     -19.564   3.754  24.545  1.00  0.00     0.143 C 
HETATM   21  N4  UNL     1     -20.895   4.282  24.786  1.00  0.00    -0.354 N 
HETATM   22  C2  UNL     1     -21.314   4.960  25.801  1.00  0.00     0.228 C 
ATOM     23  H4  UNL     1     -21.587   4.092  24.062  1.00  0.00     0.163 HD
HETATM   24  O1  UNL     1     -20.543   5.341  26.918  1.00  0.00    -0.266 OA
BRANCH  22  25
HETATM   25  N3  UNL     1     -22.670   5.385  25.841  1.00  0.00    -0.296 N 
HETATM   26  C1  UNL     1     -23.531   5.159  24.743  1.00  0.00     0.189 C 
HETATM   27  N1  UNL     1     -24.440   6.033  24.481  1.00  0.00    -0.373 N 
HETATM   28  N2  UNL     1     -23.357   3.979  23.976  1.00  0.00    -0.064 NA
ATOM     29  H12 UNL     1     -25.060   5.869  23.689  1.00  0.00     0.158 HD
ATOM     30  H11 UNL     1     -24.565   6.881  25.033  1.00  0.00     0.158 HD
ATOM     31  H3  UNL     1     -23.026   5.858  26.671  1.00  0.00     0.172 HD
ENDBRANCH  22  25
ENDBRANCH  15  16
ENDBRANCH  14  15
ENDBRANCH  13  14
ENDBRANCH   1  13
BRANCH   6  32
HETATM   32  C11 UNL     1     -15.810  10.290  29.619  1.00  0.00     0.167 A 
HETATM   33  N8  UNL     1     -14.869  10.781  30.442  1.00  0.00    -0.267 N 
HETATM   34  N9  UNL     1     -15.454  11.409  31.446  1.00  0.00    -0.227 N 
ATOM     35  H8  UNL     1     -13.862  10.683  30.312  1.00  0.00     0.190 HD
HETATM   36  N10 UNL     1     -16.762  11.337  31.293  1.00  0.00    -0.227 N 
ATOM     37  H9  UNL     1     -14.972  11.875  32.215  1.00  0.00     0.210 HD
HETATM   38  N11 UNL     1     -16.973  10.658  30.183  1.00  0.00    -0.267 N 
ATOM     39  H10 UNL     1     -17.471  11.730  31.912  1.00  0.00     0.210 HD
ATOM     40  H11 UNL     1     -17.895  10.440  29.803  1.00  0.00     0.190 HD
ENDBRANCH   6  32
BRANCH   7  41
HETATM   41  N12 UNL     1     -13.242  11.475  27.671  1.00  0.00    -0.100 NA
BRANCH  41  42
HETATM   42  N13 UNL     1     -13.008  12.814  27.880  1.00  0.00    -0.345 N 
ATOM     43 2H13 UNL     1     -13.752  13.493  28.040  1.00  0.00     0.172 HD
ATOM     44 1H13 UNL     1     -12.013  13.032  27.853  1.00  0.00     0.172 HD
ENDBRANCH  41  42
ENDBRANCH   7  41
TORSDOF 8
ENDMDL
MODEL 3
REMARK VINA RESULT: -8.860743936      1.832      2.801
REMARK  8 active torsions:
REMARK  status: ('A' for Active; 'I' for Inactive)
REMARK       I    between atoms: C1_4  and  N3_6 
REMARK    1  A    between atoms: N3_6  and  C2_8 
REMARK    2  A    between atoms: C5_15  and  C6_16 
REMARK    3  A    between atoms: C6_16  and  S1_17 
REMARK    4  A    between atoms: S1_17  and  C7_18 
REMARK    5  A    between atoms: C7_18  and  C8_19 
REMARK    6  A    between atoms: C10_24  and  C11_25 
REMARK    7  A    between atoms: C12_34  and  N12_35 
REMARK    8  A    between atoms: N12_35  and  N13_36 
ROOT
HETATM    1  C8  UNL     1     -14.602  10.160  28.769  1.00  0.00     0.067 A 
HETATM    2  N6  UNL     1     -14.097  11.307  29.249  1.00  0.00    -0.192 N 
ATOM      3  H6  UNL     1     -13.721  12.073  28.690  1.00  0.00     0.184 HD
HETATM    4  C9  UNL     1     -14.170  11.275  30.593  1.00  0.00     0.685 A 
HETATM    5  N7  UNL     1     -14.723  10.103  30.997  1.00  0.00    -0.140 N 
HETATM    6  C10 UNL     1     -14.985   9.427  29.871  1.00  0.00     0.126 A 
HETATM    7  C12 UNL     1     -14.930   9.765  32.389  1.00  0.00     0.321 C 
HETATM    8  N14 UNL     1     -14.660  10.812  33.303  1.00  0.00    -0.370 N 
ATOM      9  H14 UNL     1     -14.481  10.611  34.288  1.00  0.00     0.158 HD
HETATM   10  C13 UNL     1     -14.642  12.142  32.822  1.00  0.00     0.259 C 
HETATM   11  N15 UNL     1     -13.801  12.186  31.624  1.00  0.00    -0.210 N 
ATOM     12  H15 UNL     1     -13.009  12.823  31.534  1.00  0.00     0.179 HD
ENDROOT
BRANCH   1  13
HETATM   13  C7  UNL     1     -14.706   9.799  27.331  1.00  0.00     0.134 C 
BRANCH  13  14
HETATM   14  S1  UNL     1     -16.394   9.465  26.833  1.00  0.00    -0.155 SA
BRANCH  14  15
HETATM   15  C6  UNL     1     -16.430   7.891  25.943  1.00  0.00     0.158 C 
BRANCH  15  16
HETATM   16  C5  UNL     1     -17.521   6.999  26.325  1.00  0.00     0.132 C 
HETATM   17  N5  UNL     1     -18.488   7.531  26.987  1.00  0.00    -0.372 N 
HETATM   18  C4  UNL     1     -19.689   6.887  27.490  1.00  0.00     0.141 C 
ATOM     19  H5  UNL     1     -18.401   8.528  27.181  1.00  0.00     0.161 HD
HETATM   20  C3  UNL     1     -20.369   6.057  26.441  1.00  0.00     0.143 C 
HETATM   21  N4  UNL     1     -19.658   4.825  26.146  1.00  0.00    -0.354 N 
HETATM   22  C2  UNL     1     -18.395   4.663  25.934  1.00  0.00     0.228 C 
ATOM     23  H4  UNL     1     -20.229   3.982  26.099  1.00  0.00     0.163 HD
HETATM   24  O1  UNL     1     -17.416   5.677  25.947  1.00  0.00    -0.266 OA
BRANCH  22  25
HETATM   25  N3  UNL     1     -17.899   3.359  25.659  1.00  0.00    -0.296 N 
HETATM   26  C1  UNL     1     -18.633   2.462  24.851  1.00  0.00     0.189 C 
HETATM   27  N1  UNL     1     -18.579   1.204  25.119  1.00  0.00    -0.373 N 
HETATM   28  N2  UNL     1     -19.398   2.985  23.778  1.00  0.00    -0.064 NA
ATOM     29  H12 UNL     1     -19.108   0.557  24.536  1.00  0.00     0.158 HD
ATOM     30  H11 UNL     1     -18.028   0.827  25.891  1.00  0.00     0.158 HD
ATOM     31  H3  UNL     1     -17.003   3.068  26.050  1.00  0.00     0.172 HD
ENDBRANCH  22  25
ENDBRANCH  15  16
ENDBRANCH  14  15
ENDBRANCH  13  14
ENDBRANCH   1  13
BRANCH   6  32
HETATM   32  C11 UNL     1     -15.590   8.101  29.756  1.00  0.00     0.167 A 
HETATM   33  N8  UNL     1     -16.835   7.745  30.113  1.00  0.00    -0.267 N 
HETATM   34  N9  UNL     1     -17.011   6.462  29.855  1.00  0.00    -0.227 N 
ATOM     35  H8  UNL     1     -17.533   8.368  30.519  1.00  0.00     0.190 HD
HETATM   36  N10 UNL     1     -15.902   5.973  29.337  1.00  0.00    -0.227 N 
ATOM     37  H9  UNL     1     -17.867   5.935  30.029  1.00  0.00     0.210 HD
HETATM   38  N11 UNL     1     -15.042   6.970  29.278  1.00  0.00    -0.267 N 
ATOM     39  H10 UNL     1     -15.741   5.010  29.039  1.00  0.00     0.210 HD
ATOM     40  H11 UNL     1     -14.091   6.895  28.918  1.00  0.00     0.190 HD
ENDBRANCH   6  32
BRANCH   7  41
HETATM   41  N12 UNL     1     -14.017   8.665  32.757  1.00  0.00    -0.100 NA
BRANCH  41  42
HETATM   42  N13 UNL     1     -12.738   9.116  32.978  1.00  0.00    -0.345 N 
ATOM     43 2H13 UNL     1     -12.020   8.557  33.440  1.00  0.00     0.172 HD
ATOM     44 1H13 UNL     1     -12.604  10.064  32.628  1.00  0.00     0.172 HD
ENDBRANCH  41  42
ENDBRANCH   7  41
TORSDOF 8
ENDMDL
MODEL 4
REMARK VINA RESULT: -8.738827475      1.803      3.098
REMARK  8 active torsions:
REMARK  status: ('A' for Active; 'I' for Inactive)
REMARK       I    between atoms: C1_4  and  N3_6 
REMARK    1  A    between atoms: N3_6  and  C2_8 
REMARK    2  A    between atoms: C5_15  and  C6_16 
REMARK    3  A    between atoms: C6_16  and  S1_17 
REMARK    4  A    between atoms: S1_17  and  C7_18 
REMARK    5  A    between atoms: C7_18  and  C8_19 
REMARK    6  A    between atoms: C10_24  and  C11_25 
REMARK    7  A    between atoms: C12_34  and  N12_35 
REMARK    8  A    between atoms: N12_35  and  N13_36 
ROOT
HETATM    1  C8  UNL     1     -14.910   8.024  27.971  1.00  0.00     0.067 A 
HETATM    2  N6  UNL     1     -15.142   7.284  29.066  1.00  0.00    -0.192 N 
ATOM      3  H6  UNL     1     -15.151   6.264  29.106  1.00  0.00     0.184 HD
HETATM    4  C9  UNL     1     -15.361   8.114  30.103  1.00  0.00     0.685 A 
HETATM    5  N7  UNL     1     -15.273   9.403  29.687  1.00  0.00    -0.140 N 
HETATM    6  C10 UNL     1     -14.996   9.337  28.379  1.00  0.00     0.126 A 
HETATM    7  C12 UNL     1     -15.467  10.533  30.571  1.00  0.00     0.321 C 
HETATM    8  N14 UNL     1     -15.600  10.204  31.941  1.00  0.00    -0.370 N 
ATOM      9  H14 UNL     1     -16.029  10.858  32.595  1.00  0.00     0.158 HD
HETATM   10  C13 UNL     1     -15.125   8.946  32.382  1.00  0.00     0.259 C 
HETATM   11  N15 UNL     1     -15.650   7.915  31.483  1.00  0.00    -0.210 N 
ATOM     12  H15 UNL     1     -16.182   7.114  31.821  1.00  0.00     0.179 HD
ENDROOT
BRANCH   1  13
HETATM   13  C7  UNL     1     -14.622   7.489  26.615  1.00  0.00     0.134 C 
BRANCH  13  14
HETATM   14  S1  UNL     1     -16.076   7.460  25.571  1.00  0.00    -0.155 SA
BRANCH  14  15
HETATM   15  C6  UNL     1     -17.514   7.903  26.573  1.00  0.00     0.158 C 
BRANCH  15  16
HETATM   16  C5  UNL     1     -18.472   6.821  26.779  1.00  0.00     0.132 C 
HETATM   17  N5  UNL     1     -19.561   7.130  27.392  1.00  0.00    -0.372 N 
HETATM   18  C4  UNL     1     -20.676   6.263  27.729  1.00  0.00     0.141 C 
ATOM     19  H5  UNL     1     -19.651   8.106  27.676  1.00  0.00     0.161 HD
HETATM   20  C3  UNL     1     -21.131   5.444  26.556  1.00  0.00     0.143 C 
HETATM   21  N4  UNL     1     -20.209   4.371  26.224  1.00  0.00    -0.354 N 
HETATM   22  C2  UNL     1     -18.924   4.427  26.116  1.00  0.00     0.228 C 
ATOM     23  H4  UNL     1     -20.631   3.458  26.056  1.00  0.00     0.163 HD
HETATM   24  O1  UNL     1     -18.126   5.573  26.303  1.00  0.00    -0.266 OA
BRANCH  22  25
HETATM   25  N3  UNL     1     -18.204   3.248  25.779  1.00  0.00    -0.296 N 
HETATM   26  C1  UNL     1     -18.706   2.345  24.814  1.00  0.00     0.189 C 
HETATM   27  N1  UNL     1     -18.480   1.087  24.970  1.00  0.00    -0.373 N 
HETATM   28  N2  UNL     1     -19.438   2.863  23.716  1.00  0.00    -0.064 NA
ATOM     29  H12 UNL     1     -18.842   0.436  24.274  1.00  0.00     0.158 HD
ATOM     30  H11 UNL     1     -17.953   0.715  25.760  1.00  0.00     0.158 HD
ATOM     31  H3  UNL     1     -17.315   3.052  26.239  1.00  0.00     0.172 HD
ENDBRANCH  22  25
ENDBRANCH  15  16
ENDBRANCH  14  15
ENDBRANCH  13  14
ENDBRANCH   1  13
BRANCH   6  32
HETATM   32  C11 UNL     1     -14.798  10.455  27.459  1.00  0.00     0.167 A 
HETATM   33  N8  UNL     1     -13.694  11.208  27.324  1.00  0.00    -0.267 N 
HETATM   34  N9  UNL     1     -13.900  12.120  26.391  1.00  0.00    -0.227 N 
ATOM     35  H8  UNL     1     -12.832  11.093  27.858  1.00  0.00     0.190 HD
HETATM   36  N10 UNL     1     -15.121  11.977  25.914  1.00  0.00    -0.227 N 
ATOM     37  H9  UNL     1     -13.224  12.821  26.089  1.00  0.00     0.210 HD
HETATM   38  N11 UNL     1     -15.662  10.966  26.564  1.00  0.00    -0.267 N 
ATOM     39  H10 UNL     1     -15.560  12.538  25.185  1.00  0.00     0.210 HD
ATOM     40  H11 UNL     1     -16.608  10.617  26.410  1.00  0.00     0.190 HD
ENDBRANCH   6  32
BRANCH   7  41
HETATM   41  N12 UNL     1     -16.718  11.223  30.200  1.00  0.00    -0.100 NA
BRANCH  41  42
HETATM   42  N13 UNL     1     -17.739  10.932  31.074  1.00  0.00    -0.345 N 
ATOM     43 2H13 UNL     1     -18.595  10.452  30.795  1.00  0.00     0.172 HD
ATOM     44 1H13 UNL     1     -17.531  11.254  32.019  1.00  0.00     0.172 HD
ENDBRANCH  41  42
ENDBRANCH   7  41
TORSDOF 8
ENDMDL
MODEL 5
REMARK VINA RESULT: -8.707405054      2.161      4.189
REMARK  8 active torsions:
REMARK  status: ('A' for Active; 'I' for Inactive)
REMARK       I    between atoms: C1_4  and  N3_6 
REMARK    1  A    between atoms: N3_6  and  C2_8 
REMARK    2  A    between atoms: C5_15  and  C6_16 
REMARK    3  A    between atoms: C6_16  and  S1_17 
REMARK    4  A    between atoms: S1_17  and  C7_18 
REMARK    5  A    between atoms: C7_18  and  C8_19 
REMARK    6  A    between atoms: C10_24  and  C11_25 
REMARK    7  A    between atoms: C12_34  and  N12_35 
REMARK    8  A    between atoms: N12_35  and  N13_36 
ROOT
HETATM    1  C8  UNL     1     -15.703   8.635  28.669  1.00  0.00     0.067 A 
HETATM    2  N6  UNL     1     -15.559   8.269  27.386  1.00  0.00    -0.192 N 
ATOM      3  H6  UNL     1     -15.768   7.346  27.002  1.00  0.00     0.184 HD
HETATM    4  C9  UNL     1     -15.092   9.323  26.691  1.00  0.00     0.685 A 
HETATM    5  N7  UNL     1     -14.928  10.385  27.521  1.00  0.00    -0.140 N 
HETATM    6  C10 UNL     1     -15.305   9.953  28.730  1.00  0.00     0.126 A 
HETATM    7  C12 UNL     1     -14.431  11.669  27.072  1.00  0.00     0.321 C 
HETATM    8  N14 UNL     1     -14.276  11.792  25.671  1.00  0.00    -0.370 N 
ATOM      9  H14 UNL     1     -13.670  12.511  25.275  1.00  0.00     0.158 HD
HETATM   10  C13 UNL     1     -14.979  10.896  24.832  1.00  0.00     0.259 C 
HETATM   11  N15 UNL     1     -14.756   9.534  25.323  1.00  0.00    -0.210 N 
ATOM     12  H15 UNL     1     -14.387   8.791  24.729  1.00  0.00     0.179 HD
ENDROOT
BRANCH   1  13
HETATM   13  C7  UNL     1     -16.195   7.760  29.764  1.00  0.00     0.134 C 
BRANCH  13  14
HETATM   14  S1  UNL     1     -15.714   6.050  29.540  1.00  0.00    -0.155 SA
BRANCH  14  15
HETATM   15  C6  UNL     1     -17.189   5.013  29.680  1.00  0.00     0.158 C 
BRANCH  15  16
HETATM   16  C5  UNL     1     -18.114   5.114  28.555  1.00  0.00     0.132 C 
HETATM   17  N5  UNL     1     -19.174   5.818  28.748  1.00  0.00    -0.372 N 
HETATM   18  C4  UNL     1     -20.254   6.086  27.815  1.00  0.00     0.141 C 
ATOM     19  H5  UNL     1     -19.266   6.241  29.672  1.00  0.00     0.161 HD
HETATM   20  C3  UNL     1     -19.747   6.538  26.476  1.00  0.00     0.143 C 
HETATM   21  N4  UNL     1     -19.152   5.461  25.704  1.00  0.00    -0.354 N 
HETATM   22  C2  UNL     1     -18.307   4.568  26.098  1.00  0.00     0.228 C 
ATOM     23  H4  UNL     1     -19.437   5.404  24.727  1.00  0.00     0.163 HD
HETATM   24  O1  UNL     1     -17.773   4.448  27.396  1.00  0.00    -0.266 OA
BRANCH  22  25
HETATM   25  N3  UNL     1     -17.845   3.593  25.171  1.00  0.00    -0.296 N 
HETATM   26  C1  UNL     1     -18.759   2.797  24.443  1.00  0.00     0.189 C 
HETATM   27  N1  UNL     1     -18.432   1.584  24.163  1.00  0.00    -0.373 N 
HETATM   28  N2  UNL     1     -19.996   3.368  24.053  1.00  0.00    -0.064 NA
ATOM     29  H12 UNL     1     -19.090   1.010  23.638  1.00  0.00     0.158 HD
ATOM     30  H11 UNL     1     -17.541   1.173  24.443  1.00  0.00     0.158 HD
ATOM     31  H3  UNL     1     -16.843   3.468  25.030  1.00  0.00     0.172 HD
ENDBRANCH  22  25
ENDBRANCH  15  16
ENDBRANCH  14  15
ENDBRANCH  13  14
ENDBRANCH   1  13
BRANCH   6  32
HETATM   32  C11 UNL     1     -15.321  10.716  29.977  1.00  0.00     0.167 A 
HETATM   33  N8  UNL     1     -14.271  11.284  30.592  1.00  0.00    -0.267 N 
HETATM   34  N9  UNL     1     -14.684  11.885  31.693  1.00  0.00    -0.227 N 
ATOM     35  H8  UNL     1     -13.306  11.256  30.261  1.00  0.00     0.190 HD
HETATM   36  N10 UNL     1     -15.987  11.719  31.808  1.00  0.00    -0.227 N 
ATOM     37  H9  UNL     1     -14.092  12.395  32.348  1.00  0.00     0.210 HD
HETATM   38  N11 UNL     1     -16.369  11.009  30.765  1.00  0.00    -0.267 N 
ATOM     39  H10 UNL     1     -16.582  12.070  32.558  1.00  0.00     0.210 HD
ATOM     40  H11 UNL     1     -17.331  10.722  30.581  1.00  0.00     0.190 HD
ENDBRANCH   6  32
BRANCH   7  41
HETATM   41  N12 UNL     1     -13.090  11.891  27.646  1.00  0.00    -0.100 NA
BRANCH  41  42
HETATM   42  N13 UNL     1     -12.854  13.223  27.891  1.00  0.00    -0.345 N 
ATOM     43 2H13 UNL     1     -13.382  13.769  28.572  1.00  0.00     0.172 HD
ATOM     44 1H13 UNL     1     -12.097  13.586  27.312  1.00  0.00     0.172 HD
ENDBRANCH  41  42
ENDBRANCH   7  41
TORSDOF 8
ENDMDL
