MODEL 1
REMARK VINA RESULT: -9.617285337      0.000      0.000
REMARK  8 active torsions:
REMARK  status: ('A' for Active; 'I' for Inactive)
REMARK    1  A    between atoms: S1_2  and  C2_3 
REMARK    2  A    between atoms: C3_8  and  C4_9 
REMARK    3  A    between atoms: C4_9  and  N3_10 
REMARK    4  A    between atoms: N3_10  and  C5_12 
REMARK    5  A    between atoms: C8_18  and  C9_19 
REMARK    6  A    between atoms: N8_26  and  C10_27 
REMARK    7  A    between atoms: C13_38  and  N13_39 
REMARK    8  A    between atoms: N14_43  and  N15_44 
ROOT
HETATM    1  C5  UNL     1     -16.311   8.571  28.593  1.00  0.00     0.009 C 
HETATM    2  C6  UNL     1     -17.474   9.406  28.234  1.00  0.00     0.284 C 
HETATM    3  N4  UNL     1     -18.185   9.084  27.040  1.00  0.00    -0.070 N 
ATOM      4  H41 UNL     1     -18.082   9.828  26.349  1.00  0.00     0.277 HD
ATOM      5  H42 UNL     1     -19.191   9.134  27.197  1.00  0.00     0.277 HD
HETATM    6  C7  UNL     1     -17.812   7.777  26.456  1.00  0.00     0.245 C 
HETATM    7  C8  UNL     1     -17.812   6.796  27.567  1.00  0.00     0.087 C 
HETATM    8  C14 UNL     1     -16.485   7.124  28.309  1.00  0.00     0.068 C 
ENDROOT
BRANCH   7   9
HETATM    9  C9  UNL     1     -17.707   5.378  27.233  1.00  0.00     0.127 A 
HETATM   10  N5  UNL     1     -16.580   4.589  27.403  1.00  0.00    -0.271 N 
HETATM   11  N6  UNL     1     -16.812   3.383  27.009  1.00  0.00    -0.226 N 
ATOM     12  H5  UNL     1     -15.692   4.916  27.785  1.00  0.00     0.190 HD
HETATM   13  N7  UNL     1     -18.051   3.314  26.574  1.00  0.00    -0.219 N 
ATOM     14  H6  UNL     1     -16.145   2.612  27.030  1.00  0.00     0.210 HD
HETATM   15  N8  UNL     1     -18.592   4.558  26.720  1.00  0.00    -0.220 N 
ATOM     16  H7  UNL     1     -18.518   2.488  26.201  1.00  0.00     0.210 HD
BRANCH  15  17
HETATM   17  C10 UNL     1     -19.918   4.759  26.293  1.00  0.00     0.145 A 
HETATM   18  C11 UNL     1     -20.200   4.368  24.964  1.00  0.00     0.164 A 
HETATM   19  N9  UNL     1     -19.180   3.843  24.132  1.00  0.00    -0.080 NA
HETATM   20  N10 UNL     1     -21.417   4.487  24.439  1.00  0.00    -0.177 N 
HETATM   21  C12 UNL     1     -22.440   4.999  25.196  1.00  0.00     0.678 A 
ATOM     22  H10 UNL     1     -21.589   4.197  23.476  1.00  0.00     0.185 HD
HETATM   23  N11 UNL     1     -23.545   5.048  24.662  1.00  0.00    -0.234 N 
HETATM   24  N12 UNL     1     -22.148   5.365  26.461  1.00  0.00    -0.175 N 
ATOM     25 2H11 UNL     1     -23.766   4.771  23.706  1.00  0.00     0.174 HD
ATOM     26 1H11 UNL     1     -24.305   5.429  25.225  1.00  0.00     0.174 HD
HETATM   27  C13 UNL     1     -20.939   5.266  27.039  1.00  0.00     0.147 A 
ATOM     28  H12 UNL     1     -22.907   5.749  27.025  1.00  0.00     0.186 HD
BRANCH  27  29
HETATM   29  N13 UNL     1     -20.763   5.615  28.268  1.00  0.00    -0.383 N 
ATOM     30 2H13 UNL     1     -20.112   6.361  28.512  1.00  0.00     0.157 HD
ATOM     31 1H13 UNL     1     -21.283   5.172  29.026  1.00  0.00     0.157 HD
ENDBRANCH  27  29
ENDBRANCH  15  17
ENDBRANCH   7   9
BRANCH   1  32
HETATM   32  N3  UNL     1     -15.035   9.086  28.267  1.00  0.00    -0.388 N 
ATOM     33  H3  UNL     1     -14.573   9.786  28.848  1.00  0.00     0.159 HD
BRANCH  32  34
HETATM   34  C4  UNL     1     -14.416   8.563  27.058  1.00  0.00     0.199 C 
BRANCH  34  35
HETATM   35  C3  UNL     1     -14.389   9.657  26.057  1.00  0.00     0.137 A 
HETATM   36  N2  UNL     1     -14.142  10.920  26.427  1.00  0.00    -0.284 N 
HETATM   37  N1  UNL     1     -14.262  11.745  25.451  1.00  0.00    -0.277 N 
ATOM     38  H2  UNL     1     -13.887  11.194  27.376  1.00  0.00     0.188 HD
HETATM   39  C2  UNL     1     -14.616  10.967  24.360  1.00  0.00     0.181 A 
ATOM     40  H1  UNL     1     -14.126  12.755  25.474  1.00  0.00     0.189 HD
HETATM   41  N14 UNL     1     -14.676   9.695  24.778  1.00  0.00    -0.224 N 
BRANCH  39  42
HETATM   42  S1  UNL     1     -14.985  11.710  22.781  1.00  0.00    -0.095 SA
HETATM   43  C1  UNL     1     -13.458  12.445  22.091  1.00  0.00     0.099 C 
ENDBRANCH  39  42
BRANCH  41  44
HETATM   44  N15 UNL     1     -14.985   8.622  23.924  1.00  0.00    -0.335 N 
ATOM     45 2H15 UNL     1     -14.386   7.845  23.643  1.00  0.00     0.177 HD
ATOM     46 1H15 UNL     1     -15.891   8.519  23.466  1.00  0.00     0.177 HD
ENDBRANCH  41  44
ENDBRANCH  34  35
ENDBRANCH  32  34
ENDBRANCH   1  32
TORSDOF 8
ENDMDL
MODEL 2
REMARK VINA RESULT: -9.480156651      3.306      4.683
REMARK  8 active torsions:
REMARK  status: ('A' for Active; 'I' for Inactive)
REMARK    1  A    between atoms: S1_2  and  C2_3 
REMARK    2  A    between atoms: C3_8  and  C4_9 
REMARK    3  A    between atoms: C4_9  and  N3_10 
REMARK    4  A    between atoms: N3_10  and  C5_12 
REMARK    5  A    between atoms: C8_18  and  C9_19 
REMARK    6  A    between atoms: N8_26  and  C10_27 
REMARK    7  A    between atoms: C13_38  and  N13_39 
REMARK    8  A    between atoms: N14_43  and  N15_44 
ROOT
HETATM    1  C5  UNL     1     -17.501   8.659  28.351  1.00  0.00     0.009 C 
HETATM    2  C6  UNL     1     -17.321   9.429  27.103  1.00  0.00     0.284 C 
HETATM    3  N4  UNL     1     -16.563   8.833  26.053  1.00  0.00    -0.070 N 
ATOM      4  H41 UNL     1     -15.698   9.350  25.896  1.00  0.00     0.277 HD
ATOM      5  H42 UNL     1     -17.018   8.982  25.153  1.00  0.00     0.277 HD
HETATM    6  C7  UNL     1     -16.280   7.395  26.261  1.00  0.00     0.245 C 
HETATM    7  C8  UNL     1     -17.557   6.761  26.663  1.00  0.00     0.087 C 
HETATM    8  C14 UNL     1     -17.704   7.203  28.147  1.00  0.00     0.068 C 
ENDROOT
BRANCH   7   9
HETATM    9  C9  UNL     1     -17.616   5.301  26.705  1.00  0.00     0.127 A 
HETATM   10  N5  UNL     1     -16.550   4.457  26.972  1.00  0.00    -0.271 N 
HETATM   11  N6  UNL     1     -16.931   3.226  26.932  1.00  0.00    -0.226 N 
ATOM     12  H5  UNL     1     -15.599   4.766  27.172  1.00  0.00     0.190 HD
HETATM   13  N7  UNL     1     -18.214   3.192  26.646  1.00  0.00    -0.219 N 
ATOM     14  H6  UNL     1     -16.336   2.413  27.094  1.00  0.00     0.210 HD
HETATM   15  N8  UNL     1     -18.624   4.486  26.508  1.00  0.00    -0.220 N 
ATOM     16  H7  UNL     1     -18.792   2.358  26.547  1.00  0.00     0.210 HD
BRANCH  15  17
HETATM   17  C10 UNL     1     -19.969   4.724  26.166  1.00  0.00     0.145 A 
HETATM   18  C11 UNL     1     -20.346   4.338  24.860  1.00  0.00     0.164 A 
HETATM   19  N9  UNL     1     -19.398   3.781  23.967  1.00  0.00    -0.080 NA
HETATM   20  N10 UNL     1     -21.591   4.490  24.414  1.00  0.00    -0.177 N 
HETATM   21  C12 UNL     1     -22.548   5.033  25.233  1.00  0.00     0.678 A 
ATOM     22  H10 UNL     1     -21.833   4.202  23.465  1.00  0.00     0.185 HD
HETATM   23  N11 UNL     1     -23.684   5.112  24.771  1.00  0.00    -0.234 N 
HETATM   24  N12 UNL     1     -22.165   5.394  26.475  1.00  0.00    -0.175 N 
ATOM     25 2H11 UNL     1     -23.973   4.839  23.832  1.00  0.00     0.174 HD
ATOM     26 1H11 UNL     1     -24.395   5.516  25.380  1.00  0.00     0.174 HD
HETATM   27  C13 UNL     1     -20.924   5.261  26.975  1.00  0.00     0.147 A 
ATOM     28  H12 UNL     1     -22.875   5.801  27.085  1.00  0.00     0.186 HD
BRANCH  27  29
HETATM   29  N13 UNL     1     -20.660   5.609  28.188  1.00  0.00    -0.383 N 
ATOM     30 2H13 UNL     1     -20.370   4.916  28.879  1.00  0.00     0.157 HD
ATOM     31 1H13 UNL     1     -20.711   6.583  28.486  1.00  0.00     0.157 HD
ENDBRANCH  27  29
ENDBRANCH  15  17
ENDBRANCH   7   9
BRANCH   1  32
HETATM   32  N3  UNL     1     -16.647   8.989  29.429  1.00  0.00    -0.388 N 
ATOM     33  H3  UNL     1     -16.431   8.321  30.168  1.00  0.00     0.159 HD
BRANCH  32  34
HETATM   34  C4  UNL     1     -16.094  10.336  29.426  1.00  0.00     0.199 C 
BRANCH  34  35
HETATM   35  C3  UNL     1     -16.582  11.025  30.646  1.00  0.00     0.137 A 
HETATM   36  N2  UNL     1     -17.889  11.079  30.928  1.00  0.00    -0.284 N 
HETATM   37  N1  UNL     1     -18.135  11.802  31.959  1.00  0.00    -0.277 N 
ATOM     38  H2  UNL     1     -18.608  10.599  30.385  1.00  0.00     0.188 HD
HETATM   39  C2  UNL     1     -16.898  12.258  32.385  1.00  0.00     0.181 A 
ATOM     40  H1  UNL     1     -19.045  11.998  32.375  1.00  0.00     0.189 HD
HETATM   41  N14 UNL     1     -15.976  11.753  31.553  1.00  0.00    -0.224 N 
BRANCH  39  42
HETATM   42  S1  UNL     1     -16.757  13.392  33.755  1.00  0.00    -0.095 SA
HETATM   43  C1  UNL     1     -17.724  12.749  35.169  1.00  0.00     0.099 C 
ENDBRANCH  39  42
BRANCH  41  44
HETATM   44  N15 UNL     1     -14.598  11.990  31.701  1.00  0.00    -0.335 N 
ATOM     45 2H15 UNL     1     -14.126  12.544  32.416  1.00  0.00     0.177 HD
ATOM     46 1H15 UNL     1     -13.898  11.618  31.060  1.00  0.00     0.177 HD
ENDBRANCH  41  44
ENDBRANCH  34  35
ENDBRANCH  32  34
ENDBRANCH   1  32
TORSDOF 8
ENDMDL
MODEL 3
REMARK VINA RESULT: -9.329386107      3.104      4.252
REMARK  8 active torsions:
REMARK  status: ('A' for Active; 'I' for Inactive)
REMARK    1  A    between atoms: S1_2  and  C2_3 
REMARK    2  A    between atoms: C3_8  and  C4_9 
REMARK    3  A    between atoms: C4_9  and  N3_10 
REMARK    4  A    between atoms: N3_10  and  C5_12 
REMARK    5  A    between atoms: C8_18  and  C9_19 
REMARK    6  A    between atoms: N8_26  and  C10_27 
REMARK    7  A    between atoms: C13_38  and  N13_39 
REMARK    8  A    between atoms: N14_43  and  N15_44 
ROOT
HETATM    1  C5  UNL     1     -16.995   8.694  28.427  1.00  0.00     0.009 C 
HETATM    2  C6  UNL     1     -17.111   9.484  27.185  1.00  0.00     0.284 C 
HETATM    3  N4  UNL     1     -16.629   8.902  25.976  1.00  0.00    -0.070 N 
ATOM      4  H41 UNL     1     -15.823   9.419  25.625  1.00  0.00     0.277 HD
ATOM      5  H42 UNL     1     -17.284   9.068  25.212  1.00  0.00     0.277 HD
HETATM    6  C7  UNL     1     -16.314   7.461  26.089  1.00  0.00     0.245 C 
HETATM    7  C8  UNL     1     -17.464   6.824  26.773  1.00  0.00     0.087 C 
HETATM    8  C14 UNL     1     -17.251   7.242  28.256  1.00  0.00     0.068 C 
ENDROOT
BRANCH   7   9
HETATM    9  C9  UNL     1     -17.522   5.364  26.806  1.00  0.00     0.127 A 
HETATM   10  N5  UNL     1     -16.453   4.519  27.057  1.00  0.00    -0.271 N 
HETATM   11  N6  UNL     1     -16.833   3.288  27.013  1.00  0.00    -0.226 N 
ATOM     12  H5  UNL     1     -15.499   4.827  27.250  1.00  0.00     0.190 HD
HETATM   13  N7  UNL     1     -18.119   3.255  26.739  1.00  0.00    -0.219 N 
ATOM     14  H6  UNL     1     -16.236   2.474  27.164  1.00  0.00     0.210 HD
HETATM   15  N8  UNL     1     -18.531   4.549  26.614  1.00  0.00    -0.220 N 
ATOM     16  H7  UNL     1     -18.697   2.421  26.640  1.00  0.00     0.210 HD
BRANCH  15  17
HETATM   17  C10 UNL     1     -19.879   4.788  26.287  1.00  0.00     0.145 A 
HETATM   18  C11 UNL     1     -20.275   4.386  24.992  1.00  0.00     0.164 A 
HETATM   19  N9  UNL     1     -19.342   3.814  24.093  1.00  0.00    -0.080 NA
HETATM   20  N10 UNL     1     -21.526   4.538  24.560  1.00  0.00    -0.177 N 
HETATM   21  C12 UNL     1     -22.470   5.096  25.385  1.00  0.00     0.678 A 
ATOM     22  H10 UNL     1     -21.782   4.239  23.619  1.00  0.00     0.185 HD
HETATM   23  N11 UNL     1     -23.611   5.174  24.937  1.00  0.00    -0.234 N 
HETATM   24  N12 UNL     1     -22.068   5.472  26.617  1.00  0.00    -0.175 N 
ATOM     25 2H11 UNL     1     -23.914   4.890  24.006  1.00  0.00     0.174 HD
ATOM     26 1H11 UNL     1     -24.312   5.589  25.550  1.00  0.00     0.174 HD
HETATM   27  C13 UNL     1     -20.821   5.341  27.101  1.00  0.00     0.147 A 
ATOM     28  H12 UNL     1     -22.768   5.890  27.230  1.00  0.00     0.186 HD
BRANCH  27  29
HETATM   29  N13 UNL     1     -20.539   5.703  28.306  1.00  0.00    -0.383 N 
ATOM     30 2H13 UNL     1     -20.977   6.525  28.721  1.00  0.00     0.157 HD
ATOM     31 1H13 UNL     1     -19.891   5.168  28.884  1.00  0.00     0.157 HD
ENDBRANCH  27  29
ENDBRANCH  15  17
ENDBRANCH   7   9
BRANCH   1  32
HETATM   32  N3  UNL     1     -15.908   9.004  29.276  1.00  0.00    -0.388 N 
ATOM     33  H3  UNL     1     -15.661   8.415  30.072  1.00  0.00     0.159 HD
BRANCH  32  34
HETATM   34  C4  UNL     1     -15.159  10.210  28.954  1.00  0.00     0.199 C 
BRANCH  34  35
HETATM   35  C3  UNL     1     -14.969  10.972  30.212  1.00  0.00     0.137 A 
HETATM   36  N2  UNL     1     -13.817  11.606  30.464  1.00  0.00    -0.284 N 
HETATM   37  N1  UNL     1     -13.792  12.121  31.639  1.00  0.00    -0.277 N 
ATOM     38  H2  UNL     1     -13.048  11.672  29.798  1.00  0.00     0.188 HD
HETATM   39  C2  UNL     1     -15.018  11.801  32.202  1.00  0.00     0.181 A 
ATOM     40  H1  UNL     1     -13.034  12.652  32.067  1.00  0.00     0.189 HD
HETATM   41  N14 UNL     1     -15.707  11.101  31.289  1.00  0.00    -0.224 N 
BRANCH  39  42
HETATM   42  S1  UNL     1     -15.399  12.237  33.889  1.00  0.00    -0.095 SA
HETATM   43  C1  UNL     1     -16.784  13.432  33.902  1.00  0.00     0.099 C 
ENDBRANCH  39  42
BRANCH  41  44
HETATM   44  N15 UNL     1     -17.012  10.629  31.511  1.00  0.00    -0.335 N 
ATOM     45 2H15 UNL     1     -17.424  10.300  32.384  1.00  0.00     0.177 HD
ATOM     46 1H15 UNL     1     -17.710  10.554  30.771  1.00  0.00     0.177 HD
ENDBRANCH  41  44
ENDBRANCH  34  35
ENDBRANCH  32  34
ENDBRANCH   1  32
TORSDOF 8
ENDMDL
MODEL 4
REMARK VINA RESULT: -9.183193940      3.194      4.387
REMARK  8 active torsions:
REMARK  status: ('A' for Active; 'I' for Inactive)
REMARK    1  A    between atoms: S1_2  and  C2_3 
REMARK    2  A    between atoms: C3_8  and  C4_9 
REMARK    3  A    between atoms: C4_9  and  N3_10 
REMARK    4  A    between atoms: N3_10  and  C5_12 
REMARK    5  A    between atoms: C8_18  and  C9_19 
REMARK    6  A    between atoms: N8_26  and  C10_27 
REMARK    7  A    between atoms: C13_38  and  N13_39 
REMARK    8  A    between atoms: N14_43  and  N15_44 
ROOT
HETATM    1  C5  UNL     1     -17.552   8.669  28.296  1.00  0.00     0.009 C 
HETATM    2  C6  UNL     1     -17.297   9.425  27.053  1.00  0.00     0.284 C 
HETATM    3  N4  UNL     1     -16.485   8.814  26.054  1.00  0.00    -0.070 N 
ATOM      4  H41 UNL     1     -15.609   9.325  25.940  1.00  0.00     0.277 HD
ATOM      5  H42 UNL     1     -16.887   8.956  25.128  1.00  0.00     0.277 HD
HETATM    6  C7  UNL     1     -16.222   7.377  26.292  1.00  0.00     0.245 C 
HETATM    7  C8  UNL     1     -17.523   6.754  26.627  1.00  0.00     0.087 C 
HETATM    8  C14 UNL     1     -17.752   7.212  28.096  1.00  0.00     0.068 C 
ENDROOT
BRANCH   7   9
HETATM    9  C9  UNL     1     -17.594   5.295  26.681  1.00  0.00     0.127 A 
HETATM   10  N5  UNL     1     -16.531   4.444  26.940  1.00  0.00    -0.271 N 
HETATM   11  N6  UNL     1     -16.922   3.216  26.914  1.00  0.00    -0.226 N 
ATOM     12  H5  UNL     1     -15.574   4.747  27.126  1.00  0.00     0.190 HD
HETATM   13  N7  UNL     1     -18.209   3.190  26.645  1.00  0.00    -0.219 N 
ATOM     14  H6  UNL     1     -16.331   2.400  27.075  1.00  0.00     0.210 HD
HETATM   15  N8  UNL     1     -18.611   4.486  26.503  1.00  0.00    -0.220 N 
ATOM     16  H7  UNL     1     -18.795   2.360  26.560  1.00  0.00     0.210 HD
BRANCH  15  17
HETATM   17  C10 UNL     1     -19.957   4.732  26.177  1.00  0.00     0.145 A 
HETATM   18  C11 UNL     1     -20.350   4.355  24.873  1.00  0.00     0.164 A 
HETATM   19  N9  UNL     1     -19.414   3.798  23.966  1.00  0.00    -0.080 NA
HETATM   20  N10 UNL     1     -21.599   4.515  24.441  1.00  0.00    -0.177 N 
HETATM   21  C12 UNL     1     -22.545   5.059  25.273  1.00  0.00     0.678 A 
ATOM     22  H10 UNL     1     -21.853   4.234  23.493  1.00  0.00     0.185 HD
HETATM   23  N11 UNL     1     -23.685   5.145  24.823  1.00  0.00    -0.234 N 
HETATM   24  N12 UNL     1     -22.147   5.411  26.513  1.00  0.00    -0.175 N 
ATOM     25 2H11 UNL     1     -23.986   4.879  23.886  1.00  0.00     0.174 HD
ATOM     26 1H11 UNL     1     -24.387   5.550  25.442  1.00  0.00     0.174 HD
HETATM   27  C13 UNL     1     -20.901   5.270  26.998  1.00  0.00     0.147 A 
ATOM     28  H12 UNL     1     -22.848   5.818  27.132  1.00  0.00     0.186 HD
BRANCH  27  29
HETATM   29  N13 UNL     1     -20.622   5.609  28.211  1.00  0.00    -0.383 N 
ATOM     30 2H13 UNL     1     -19.806   5.225  28.687  1.00  0.00     0.157 HD
ATOM     31 1H13 UNL     1     -21.194   6.284  28.719  1.00  0.00     0.157 HD
ENDBRANCH  27  29
ENDBRANCH  15  17
ENDBRANCH   7   9
BRANCH   1  32
HETATM   32  N3  UNL     1     -16.760   9.007  29.417  1.00  0.00    -0.388 N 
ATOM     33  H3  UNL     1     -16.735   8.423  30.253  1.00  0.00     0.159 HD
BRANCH  32  34
HETATM   34  C4  UNL     1     -15.980  10.231  29.313  1.00  0.00     0.199 C 
BRANCH  34  35
HETATM   35  C3  UNL     1     -15.814  10.777  30.682  1.00  0.00     0.137 A 
HETATM   36  N2  UNL     1     -16.740  10.562  31.624  1.00  0.00    -0.284 N 
HETATM   37  N1  UNL     1     -16.485  11.193  32.712  1.00  0.00    -0.277 N 
ATOM     38  H2  UNL     1     -17.556   9.964  31.492  1.00  0.00     0.188 HD
HETATM   39  C2  UNL     1     -15.303  11.876  32.465  1.00  0.00     0.181 A 
ATOM     40  H1  UNL     1     -17.033  11.194  33.572  1.00  0.00     0.189 HD
HETATM   41  N14 UNL     1     -14.928  11.586  31.212  1.00  0.00    -0.224 N 
BRANCH  39  42
HETATM   42  S1  UNL     1     -14.606  12.978  33.683  1.00  0.00    -0.095 SA
HETATM   43  C1  UNL     1     -12.862  12.514  33.983  1.00  0.00     0.099 C 
ENDBRANCH  39  42
BRANCH  41  44
HETATM   44  N15 UNL     1     -13.751  12.088  30.629  1.00  0.00    -0.335 N 
ATOM     45 2H15 UNL     1     -13.350  13.022  30.721  1.00  0.00     0.177 HD
ATOM     46 1H15 UNL     1     -13.158  11.537  30.010  1.00  0.00     0.177 HD
ENDBRANCH  41  44
ENDBRANCH  34  35
ENDBRANCH  32  34
ENDBRANCH   1  32
TORSDOF 8
ENDMDL
MODEL 5
REMARK VINA RESULT: -9.178679925      3.764      7.967
REMARK  8 active torsions:
REMARK  status: ('A' for Active; 'I' for Inactive)
REMARK    1  A    between atoms: S1_2  and  C2_3 
REMARK    2  A    between atoms: C3_8  and  C4_9 
REMARK    3  A    between atoms: C4_9  and  N3_10 
REMARK    4  A    between atoms: N3_10  and  C5_12 
REMARK    5  A    between atoms: C8_18  and  C9_19 
REMARK    6  A    between atoms: N8_26  and  C10_27 
REMARK    7  A    between atoms: C13_38  and  N13_39 
REMARK    8  A    between atoms: N14_43  and  N15_44 
ROOT
HETATM    1  C5  UNL     1     -15.580   8.252  26.351  1.00  0.00     0.009 C 
HETATM    2  C6  UNL     1     -16.049   9.631  26.112  1.00  0.00     0.284 C 
HETATM    3  N4  UNL     1     -16.813  10.265  27.135  1.00  0.00    -0.070 N 
ATOM      4  H41 UNL     1     -17.769  10.429  26.820  1.00  0.00     0.277 HD
ATOM      5  H42 UNL     1     -16.508  11.229  27.266  1.00  0.00     0.277 HD
HETATM    6  C7  UNL     1     -16.807   9.537  28.424  1.00  0.00     0.245 C 
HETATM    7  C8  UNL     1     -15.397   9.181  28.708  1.00  0.00     0.087 C 
HETATM    8  C14 UNL     1     -15.147   7.986  27.746  1.00  0.00     0.068 C 
ENDROOT
BRANCH   7   9
HETATM    9  C9  UNL     1     -15.073   8.661  30.035  1.00  0.00     0.127 A 
HETATM   10  N5  UNL     1     -14.626   7.379  30.313  1.00  0.00    -0.271 N 
HETATM   11  N6  UNL     1     -14.433   7.235  31.579  1.00  0.00    -0.226 N 
ATOM     12  H5  UNL     1     -14.473   6.652  29.614  1.00  0.00     0.190 HD
HETATM   13  N7  UNL     1     -14.731   8.366  32.181  1.00  0.00    -0.219 N 
ATOM     14  H6  UNL     1     -14.105   6.385  32.039  1.00  0.00     0.210 HD
HETATM   15  N8  UNL     1     -15.126   9.240  31.211  1.00  0.00    -0.220 N 
ATOM     16  H7  UNL     1     -14.677   8.554  33.182  1.00  0.00     0.210 HD
BRANCH  15  17
HETATM   17  C10 UNL     1     -15.533  10.529  31.603  1.00  0.00     0.145 A 
HETATM   18  C11 UNL     1     -16.732  10.592  32.348  1.00  0.00     0.164 A 
HETATM   19  N9  UNL     1     -17.471   9.417  32.634  1.00  0.00    -0.080 NA
HETATM   20  N10 UNL     1     -17.221  11.746  32.797  1.00  0.00    -0.177 N 
HETATM   21  C12 UNL     1     -16.553  12.917  32.540  1.00  0.00     0.678 A 
ATOM     22  H10 UNL     1     -18.090  11.760  33.331  1.00  0.00     0.185 HD
HETATM   23  N11 UNL     1     -17.040  13.940  33.013  1.00  0.00    -0.234 N 
HETATM   24  N12 UNL     1     -15.410  12.831  31.828  1.00  0.00    -0.175 N 
ATOM     25 2H11 UNL     1     -17.903  14.004  33.552  1.00  0.00     0.174 HD
ATOM     26 1H11 UNL     1     -16.543  14.810  32.822  1.00  0.00     0.174 HD
HETATM   27  C13 UNL     1     -14.874  11.694  31.353  1.00  0.00     0.147 A 
ATOM     28  H12 UNL     1     -14.914  13.701  31.634  1.00  0.00     0.186 HD
BRANCH  27  29
HETATM   29  N13 UNL     1     -13.758  11.710  30.706  1.00  0.00    -0.383 N 
ATOM     30 2H13 UNL     1     -12.924  12.135  31.111  1.00  0.00     0.157 HD
ATOM     31 1H13 UNL     1     -13.672  11.280  29.785  1.00  0.00     0.157 HD
ENDBRANCH  27  29
ENDBRANCH  15  17
ENDBRANCH   7   9
BRANCH   1  32
HETATM   32  N3  UNL     1     -16.337   7.213  25.761  1.00  0.00    -0.388 N 
ATOM     33  H3  UNL     1     -16.525   7.188  24.759  1.00  0.00     0.159 HD
BRANCH  32  34
HETATM   34  C4  UNL     1     -16.833   6.183  26.662  1.00  0.00     0.199 C 
BRANCH  34  35
HETATM   35  C3  UNL     1     -18.314   6.181  26.571  1.00  0.00     0.137 A 
HETATM   36  N2  UNL     1     -19.007   7.323  26.646  1.00  0.00    -0.284 N 
HETATM   37  N1  UNL     1     -20.275   7.123  26.656  1.00  0.00    -0.277 N 
ATOM     38  H2  UNL     1     -18.578   8.247  26.689  1.00  0.00     0.188 HD
HETATM   39  C2  UNL     1     -20.425   5.747  26.585  1.00  0.00     0.181 A 
ATOM     40  H1  UNL     1     -21.013   7.825  26.706  1.00  0.00     0.189 HD
HETATM   41  N14 UNL     1     -19.197   5.213  26.530  1.00  0.00    -0.224 N 
BRANCH  39  42
HETATM   42  S1  UNL     1     -22.039   4.992  26.667  1.00  0.00    -0.095 SA
HETATM   43  C1  UNL     1     -22.803   5.025  25.005  1.00  0.00     0.099 C 
ENDBRANCH  39  42
BRANCH  41  44
HETATM   44  N15 UNL     1     -18.967   3.829  26.425  1.00  0.00    -0.335 N 
ATOM     45 2H15 UNL     1     -18.643   3.187  27.148  1.00  0.00     0.177 HD
ATOM     46 1H15 UNL     1     -19.099   3.308  25.559  1.00  0.00     0.177 HD
ENDBRANCH  41  44
ENDBRANCH  34  35
ENDBRANCH  32  34
ENDBRANCH   1  32
TORSDOF 8
ENDMDL
