MODEL 1
REMARK VINA RESULT: -8.106341106      0.000      0.000
REMARK  10 active torsions:
REMARK  status: ('A' for Active; 'I' for Inactive)
REMARK    1  A    between atoms: C10_10  and  O1_11 
REMARK    2  A    between atoms: C13_15  and  C14_16 
REMARK    3  A    between atoms: C18_21  and  O3_22 
REMARK    4  A    between atoms: C19_24  and  C20_25 
REMARK    5  A    between atoms: C20_25  and  C21_26 
REMARK    6  A    between atoms: C21_26  and  C22_27 
REMARK    7  A    between atoms: C23_28  and  C24_29 
REMARK    8  A    between atoms: C28_34  and  C29_35 
REMARK    9  A    between atoms: C29_35  and  O5_36 
REMARK   10  A    between atoms: C29_35  and  C30_38 
ROOT
HETATM    1  C1  UNL     1      51.082   4.871   1.576  1.00  0.00     0.015 C 
HETATM    2  C2  UNL     1      50.073   5.335   2.641  1.00  0.00    -0.042 C 
HETATM    3  C3  UNL     1      49.538   4.166   3.350  1.00  0.00     0.015 C 
HETATM    4  C4  UNL     1      50.922   6.115   3.656  1.00  0.00     0.009 C 
HETATM    5  C5  UNL     1      50.919   7.583   3.401  1.00  0.00     0.002 C 
HETATM    6  C6  UNL     1      49.545   8.103   3.664  1.00  0.00     0.010 C 
HETATM    7  C7  UNL     1      48.501   7.293   2.897  1.00  0.00    -0.036 C 
HETATM    8  C8  UNL     1      47.644   6.607   3.976  1.00  0.00     0.016 C 
HETATM    9  C9  UNL     1      47.551   8.223   2.210  1.00  0.00     0.052 C 
HETATM   10  C10 UNL     1      47.941   8.811   0.927  1.00  0.00     0.088 C 
HETATM   11  C11 UNL     1      47.989   7.889  -0.217  1.00  0.00    -0.048 C 
HETATM   12  C12 UNL     1      48.075   6.578  -0.199  1.00  0.00    -0.009 C 
HETATM   13  C13 UNL     1      48.144   5.715   1.042  1.00  0.00     0.075 C 
HETATM   14  C15 UNL     1      49.145   6.277   1.979  1.00  0.00     0.016 C 
HETATM   15  C16 UNL     1      47.943   8.438  -1.591  1.00  0.00     0.039 C 
HETATM   16  C17 UNL     1      46.545   8.973  -1.794  1.00  0.00     0.036 C 
HETATM   17  C18 UNL     1      45.903   9.284  -0.451  1.00  0.00     0.126 C 
HETATM   18  C19 UNL     1      46.910   9.878   0.537  1.00  0.00     0.057 C 
ENDROOT
BRANCH  18  19
HETATM   19  C20 UNL     1      46.135  10.374   1.693  1.00  0.00     0.049 C 
BRANCH  19  20
HETATM   20  C21 UNL     1      45.941  11.845   1.612  1.00  0.00    -0.059 C 
HETATM   21  C28 UNL     1      44.945  12.339   0.863  1.00  0.00     0.012 C 
BRANCH  20  22
HETATM   22  C22 UNL     1      46.766  12.762   2.338  1.00  0.00     0.005 C 
HETATM   23  C23 UNL     1      46.511  13.365   3.469  1.00  0.00     0.008 C 
BRANCH  23  24
HETATM   24  C24 UNL     1      47.523  14.300   4.079  1.00  0.00     0.179 A 
HETATM   25  O4  UNL     1      47.001  15.159   5.039  1.00  0.00    -0.366 OA
HETATM   26  C25 UNL     1      47.444  15.735   3.843  1.00  0.00     0.084 A 
HETATM   27  C26 UNL     1      46.444  16.322   2.892  1.00  0.00     0.049 C 
HETATM   28  C27 UNL     1      48.709  16.553   3.998  1.00  0.00     0.049 C 
ENDBRANCH  23  24
ENDBRANCH  20  22
BRANCH  21  29
HETATM   29  C29 UNL     1      44.720  13.789   0.756  1.00  0.00     0.155 C 
BRANCH  29  30
HETATM   30  O5  UNL     1      43.786  14.272   1.671  1.00  0.00    -0.391 OA
ATOM     31  H5  UNL     1      44.151  14.434   2.533  1.00  0.00     0.210 HD
ENDBRANCH  29  30
BRANCH  29  32
HETATM   32  C30 UNL     1      44.282  14.092  -0.674  1.00  0.00     0.150 C 
HETATM   33 CL1  UNL     1      44.691  12.689  -1.666  1.00  0.00    -0.128 Cl
ENDBRANCH  29  32
ENDBRANCH  21  29
ENDBRANCH  19  20
ENDBRANCH  18  19
BRANCH  10  34
HETATM   34  O1  UNL     1      49.172   9.478   0.953  1.00  0.00    -0.385 OA
ATOM     35  H1  UNL     1      49.820   9.123   0.355  1.00  0.00     0.211 HD
ENDBRANCH  10  34
BRANCH  17  36
HETATM   36  O3  UNL     1      45.196   8.233   0.063  1.00  0.00    -0.395 OA
ATOM     37  H3  UNL     1      45.694   7.718   0.688  1.00  0.00     0.210 HD
ENDBRANCH  17  36
BRANCH  13  38
HETATM   38  C14 UNL     1      48.328   4.348   0.577  1.00  0.00     0.240 C 
HETATM   39  O2  UNL     1      48.295   4.099  -0.609  1.00  0.00    -0.306 OA
ENDBRANCH  13  38
TORSDOF 10
ENDMDL
MODEL 2
REMARK VINA RESULT: -7.668625134      1.353      1.563
REMARK  10 active torsions:
REMARK  status: ('A' for Active; 'I' for Inactive)
REMARK    1  A    between atoms: C10_10  and  O1_11 
REMARK    2  A    between atoms: C13_15  and  C14_16 
REMARK    3  A    between atoms: C18_21  and  O3_22 
REMARK    4  A    between atoms: C19_24  and  C20_25 
REMARK    5  A    between atoms: C20_25  and  C21_26 
REMARK    6  A    between atoms: C21_26  and  C22_27 
REMARK    7  A    between atoms: C23_28  and  C24_29 
REMARK    8  A    between atoms: C28_34  and  C29_35 
REMARK    9  A    between atoms: C29_35  and  O5_36 
REMARK   10  A    between atoms: C29_35  and  C30_38 
ROOT
HETATM    1  C1  UNL     1      52.326   4.301   2.683  1.00  0.00     0.015 C 
HETATM    2  C2  UNL     1      51.296   4.877   3.669  1.00  0.00    -0.042 C 
HETATM    3  C3  UNL     1      50.766   3.797   4.510  1.00  0.00     0.015 C 
HETATM    4  C4  UNL     1      52.119   5.789   4.591  1.00  0.00     0.009 C 
HETATM    5  C5  UNL     1      52.101   7.214   4.158  1.00  0.00     0.002 C 
HETATM    6  C6  UNL     1      50.716   7.742   4.337  1.00  0.00     0.010 C 
HETATM    7  C7  UNL     1      49.695   6.828   3.662  1.00  0.00    -0.036 C 
HETATM    8  C8  UNL     1      48.830   6.267   4.806  1.00  0.00     0.016 C 
HETATM    9  C9  UNL     1      48.742   7.652   2.853  1.00  0.00     0.052 C 
HETATM   10  C10 UNL     1      49.143   8.083   1.512  1.00  0.00     0.088 C 
HETATM   11  C11 UNL     1      49.221   7.029   0.491  1.00  0.00    -0.048 C 
HETATM   12  C12 UNL     1      49.324   5.731   0.671  1.00  0.00    -0.009 C 
HETATM   13  C13 UNL     1      49.386   5.029   2.011  1.00  0.00     0.075 C 
HETATM   14  C15 UNL     1      50.365   5.717   2.884  1.00  0.00     0.016 C 
HETATM   15  C16 UNL     1      49.188   7.404  -0.941  1.00  0.00     0.039 C 
HETATM   16  C17 UNL     1      47.785   7.888  -1.226  1.00  0.00     0.036 C 
HETATM   17  C18 UNL     1      47.120   8.353   0.060  1.00  0.00     0.126 C 
HETATM   18  C19 UNL     1      48.104   9.078   0.980  1.00  0.00     0.057 C 
ENDROOT
BRANCH  18  19
HETATM   19  C20 UNL     1      47.305   9.702   2.056  1.00  0.00     0.049 C 
BRANCH  19  20
HETATM   20  C21 UNL     1      46.762  11.015   1.623  1.00  0.00    -0.059 C 
HETATM   21  C28 UNL     1      45.792  11.055   0.699  1.00  0.00     0.012 C 
BRANCH  20  22
HETATM   22  C22 UNL     1      47.217  12.250   2.187  1.00  0.00     0.005 C 
HETATM   23  C23 UNL     1      46.891  12.790   3.331  1.00  0.00     0.008 C 
BRANCH  23  24
HETATM   24  C24 UNL     1      47.490  14.108   3.749  1.00  0.00     0.179 A 
HETATM   25  O4  UNL     1      46.856  14.706   4.832  1.00  0.00    -0.366 OA
HETATM   26  C25 UNL     1      46.740  15.347   3.593  1.00  0.00     0.084 A 
HETATM   27  C26 UNL     1      45.410  15.380   2.902  1.00  0.00     0.049 C 
HETATM   28  C27 UNL     1      47.517  16.644   3.509  1.00  0.00     0.049 C 
ENDBRANCH  23  24
ENDBRANCH  20  22
BRANCH  21  29
HETATM   29  C29 UNL     1      45.228  12.335   0.243  1.00  0.00     0.155 C 
BRANCH  29  30
HETATM   30  O5  UNL     1      44.213  12.817   1.069  1.00  0.00    -0.391 OA
ATOM     31  H5  UNL     1      43.797  13.603   0.736  1.00  0.00     0.210 HD
ENDBRANCH  29  30
BRANCH  29  32
HETATM   32  C30 UNL     1      44.717  12.143  -1.182  1.00  0.00     0.150 C 
HETATM   33 CL1  UNL     1      44.386  10.422  -1.402  1.00  0.00    -0.128 Cl
ENDBRANCH  29  32
ENDBRANCH  21  29
ENDBRANCH  19  20
ENDBRANCH  18  19
BRANCH  10  34
HETATM   34  O1  UNL     1      50.365   8.768   1.472  1.00  0.00    -0.385 OA
ATOM     35  H1  UNL     1      50.519   9.333   2.219  1.00  0.00     0.211 HD
ENDBRANCH  10  34
BRANCH  17  36
HETATM   36  O3  UNL     1      46.419   7.362   0.690  1.00  0.00    -0.395 OA
ATOM     37  H3  UNL     1      45.608   7.668   1.080  1.00  0.00     0.210 HD
ENDBRANCH  17  36
BRANCH  13  38
HETATM   38  C14 UNL     1      49.595   3.618   1.720  1.00  0.00     0.240 C 
HETATM   39  O2  UNL     1      48.649   2.861   1.659  1.00  0.00    -0.306 OA
ENDBRANCH  13  38
TORSDOF 10
ENDMDL
MODEL 3
REMARK VINA RESULT: -7.324110813      3.419      5.414
REMARK  10 active torsions:
REMARK  status: ('A' for Active; 'I' for Inactive)
REMARK    1  A    between atoms: C10_10  and  O1_11 
REMARK    2  A    between atoms: C13_15  and  C14_16 
REMARK    3  A    between atoms: C18_21  and  O3_22 
REMARK    4  A    between atoms: C19_24  and  C20_25 
REMARK    5  A    between atoms: C20_25  and  C21_26 
REMARK    6  A    between atoms: C21_26  and  C22_27 
REMARK    7  A    between atoms: C23_28  and  C24_29 
REMARK    8  A    between atoms: C28_34  and  C29_35 
REMARK    9  A    between atoms: C29_35  and  O5_36 
REMARK   10  A    between atoms: C29_35  and  C30_38 
ROOT
HETATM    1  C1  UNL     1      47.932   8.441  -1.420  1.00  0.00     0.015 C 
HETATM    2  C2  UNL     1      46.920   9.080  -0.454  1.00  0.00    -0.042 C 
HETATM    3  C3  UNL     1      46.294   8.033   0.363  1.00  0.00     0.015 C 
HETATM    4  C4  UNL     1      47.781   9.925   0.496  1.00  0.00     0.009 C 
HETATM    5  C5  UNL     1      47.873  11.352   0.075  1.00  0.00     0.002 C 
HETATM    6  C6  UNL     1      46.524  11.973   0.225  1.00  0.00     0.010 C 
HETATM    7  C7  UNL     1      45.459  11.138  -0.484  1.00  0.00    -0.036 C 
HETATM    8  C8  UNL     1      44.529  10.631   0.633  1.00  0.00     0.016 C 
HETATM    9  C9  UNL     1      44.588  12.033  -1.308  1.00  0.00     0.052 C 
HETATM   10  C10 UNL     1      45.051  12.445  -2.634  1.00  0.00     0.088 C 
HETATM   11  C11 UNL     1      45.081  11.395  -3.663  1.00  0.00    -0.048 C 
HETATM   12  C12 UNL     1      45.089  10.092  -3.492  1.00  0.00    -0.009 C 
HETATM   13  C13 UNL     1      45.067   9.377  -2.158  1.00  0.00     0.075 C 
HETATM   14  C15 UNL     1      46.070   9.989  -1.255  1.00  0.00     0.016 C 
HETATM   15  C16 UNL     1      45.111  11.782  -5.092  1.00  0.00     0.039 C 
HETATM   16  C17 UNL     1      43.753  12.365  -5.407  1.00  0.00     0.036 C 
HETATM   17  C18 UNL     1      43.089  12.866  -4.134  1.00  0.00     0.126 C 
HETATM   18  C19 UNL     1      44.098  13.514  -3.183  1.00  0.00     0.057 C 
ENDROOT
BRANCH  18  19
HETATM   19  C20 UNL     1      43.318  14.184  -2.122  1.00  0.00     0.049 C 
BRANCH  19  20
HETATM   20  C21 UNL     1      43.855  15.540  -1.841  1.00  0.00    -0.059 C 
HETATM   21  C28 UNL     1      44.242  16.321  -2.860  1.00  0.00     0.012 C 
BRANCH  20  22
HETATM   22  C22 UNL     1      43.945  16.062  -0.511  1.00  0.00     0.005 C 
HETATM   23  C23 UNL     1      44.173  15.417   0.602  1.00  0.00     0.008 C 
BRANCH  23  24
HETATM   24  C24 UNL     1      44.234  16.158   1.913  1.00  0.00     0.179 A 
HETATM   25  O4  UNL     1      45.402  16.888   2.102  1.00  0.00    -0.366 OA
HETATM   26  C25 UNL     1      45.202  15.780   2.934  1.00  0.00     0.084 A 
HETATM   27  C26 UNL     1      46.078  14.574   2.780  1.00  0.00     0.049 C 
HETATM   28  C27 UNL     1      44.901  16.151   4.372  1.00  0.00     0.049 C 
ENDBRANCH  23  24
ENDBRANCH  20  22
BRANCH  21  29
HETATM   29  C29 UNL     1      44.779  17.670  -2.623  1.00  0.00     0.155 C 
BRANCH  29  30
HETATM   30  O5  UNL     1      43.871  18.686  -2.916  1.00  0.00    -0.391 OA
ATOM     31  H5  UNL     1      44.205  19.555  -2.729  1.00  0.00     0.210 HD
ENDBRANCH  29  30
BRANCH  29  32
HETATM   32  C30 UNL     1      46.048  17.822  -3.458  1.00  0.00     0.150 C 
HETATM   33 CL1  UNL     1      46.408  16.248  -4.173  1.00  0.00    -0.128 Cl
ENDBRANCH  29  32
ENDBRANCH  21  29
ENDBRANCH  19  20
ENDBRANCH  18  19
BRANCH  10  34
HETATM   34  O1  UNL     1      46.319  13.042  -2.638  1.00  0.00    -0.385 OA
ATOM     35  H1  UNL     1      46.393  13.792  -3.217  1.00  0.00     0.211 HD
ENDBRANCH  10  34
BRANCH  17  36
HETATM   36  O3  UNL     1      42.305  11.922  -3.530  1.00  0.00    -0.395 OA
ATOM     37  H3  UNL     1      42.525  11.784  -2.616  1.00  0.00     0.210 HD
ENDBRANCH  17  36
BRANCH  13  38
HETATM   38  C14 UNL     1      45.185   7.957  -2.457  1.00  0.00     0.240 C 
HETATM   39  O2  UNL     1      45.261   7.581  -3.607  1.00  0.00    -0.306 OA
ENDBRANCH  13  38
TORSDOF 10
ENDMDL
MODEL 4
REMARK VINA RESULT: -7.198657058      3.566      8.002
REMARK  10 active torsions:
REMARK  status: ('A' for Active; 'I' for Inactive)
REMARK    1  A    between atoms: C10_10  and  O1_11 
REMARK    2  A    between atoms: C13_15  and  C14_16 
REMARK    3  A    between atoms: C18_21  and  O3_22 
REMARK    4  A    between atoms: C19_24  and  C20_25 
REMARK    5  A    between atoms: C20_25  and  C21_26 
REMARK    6  A    between atoms: C21_26  and  C22_27 
REMARK    7  A    between atoms: C23_28  and  C24_29 
REMARK    8  A    between atoms: C28_34  and  C29_35 
REMARK    9  A    between atoms: C29_35  and  O5_36 
REMARK   10  A    between atoms: C29_35  and  C30_38 
ROOT
HETATM    1  C1  UNL     1      45.094  11.218  -6.886  1.00  0.00     0.015 C 
HETATM    2  C2  UNL     1      44.336  10.629  -5.684  1.00  0.00    -0.042 C 
HETATM    3  C3  UNL     1      43.139   9.923  -6.157  1.00  0.00     0.015 C 
HETATM    4  C4  UNL     1      45.285   9.560  -5.123  1.00  0.00     0.009 C 
HETATM    5  C5  UNL     1      46.126  10.067  -4.001  1.00  0.00     0.002 C 
HETATM    6  C6  UNL     1      45.235  10.350  -2.838  1.00  0.00     0.010 C 
HETATM    7  C7  UNL     1      44.067  11.244  -3.251  1.00  0.00    -0.036 C 
HETATM    8  C8  UNL     1      42.806  10.384  -3.057  1.00  0.00     0.016 C 
HETATM    9  C9  UNL     1      43.911  12.354  -2.259  1.00  0.00     0.052 C 
HETATM   10  C10 UNL     1      44.769  13.534  -2.377  1.00  0.00     0.088 C 
HETATM   11  C11 UNL     1      44.502  14.415  -3.522  1.00  0.00    -0.048 C 
HETATM   12  C12 UNL     1      43.856  14.131  -4.631  1.00  0.00    -0.009 C 
HETATM   13  C13 UNL     1      43.231  12.795  -4.970  1.00  0.00     0.075 C 
HETATM   14  C15 UNL     1      44.200  11.711  -4.684  1.00  0.00     0.016 C 
HETATM   15  C16 UNL     1      44.997  15.810  -3.494  1.00  0.00     0.039 C 
HETATM   16  C17 UNL     1      44.174  16.537  -2.456  1.00  0.00     0.036 C 
HETATM   17  C18 UNL     1      43.588  15.546  -1.463  1.00  0.00     0.126 C 
HETATM   18  C19 UNL     1      44.570  14.417  -1.138  1.00  0.00     0.057 C 
ENDROOT
BRANCH  18  19
HETATM   19  C20 UNL     1      44.006  13.676   0.009  1.00  0.00     0.049 C 
BRANCH  19  20
HETATM   20  C21 UNL     1      44.815  13.898   1.235  1.00  0.00    -0.059 C 
HETATM   21  C28 UNL     1      44.583  14.981   1.991  1.00  0.00     0.012 C 
BRANCH  20  22
HETATM   22  C22 UNL     1      45.819  12.972   1.663  1.00  0.00     0.005 C 
HETATM   23  C23 UNL     1      46.263  11.911   1.042  1.00  0.00     0.008 C 
BRANCH  23  24
HETATM   24  C24 UNL     1      47.339  11.059   1.665  1.00  0.00     0.179 A 
HETATM   25  O4  UNL     1      48.306  10.615   0.770  1.00  0.00    -0.366 OA
HETATM   26  C25 UNL     1      47.459   9.648   1.325  1.00  0.00     0.084 A 
HETATM   27  C26 UNL     1      46.452   8.962   0.451  1.00  0.00     0.049 C 
HETATM   28  C27 UNL     1      48.152   8.733   2.313  1.00  0.00     0.049 C 
ENDBRANCH  23  24
ENDBRANCH  20  22
BRANCH  21  29
HETATM   29  C29 UNL     1      45.362  15.237   3.213  1.00  0.00     0.155 C 
BRANCH  29  30
HETATM   30  O5  UNL     1      44.570  15.524   4.323  1.00  0.00    -0.391 OA
ATOM     31  H5  UNL     1      44.797  16.344   4.746  1.00  0.00     0.210 HD
ENDBRANCH  29  30
BRANCH  29  32
HETATM   32  C30 UNL     1      46.324  16.386   2.924  1.00  0.00     0.150 C 
HETATM   33 CL1  UNL     1      47.955  15.825   3.307  1.00  0.00    -0.128 Cl
ENDBRANCH  29  32
ENDBRANCH  21  29
ENDBRANCH  19  20
ENDBRANCH  18  19
BRANCH  10  34
HETATM   34  O1  UNL     1      46.140  13.245  -2.407  1.00  0.00    -0.385 OA
ATOM     35  H1  UNL     1      46.641  13.801  -2.991  1.00  0.00     0.211 HD
ENDBRANCH  10  34
BRANCH  17  36
HETATM   36  O3  UNL     1      42.347  15.097  -1.822  1.00  0.00    -0.395 OA
ATOM     37  H3  UNL     1      42.313  14.155  -1.947  1.00  0.00     0.210 HD
ENDBRANCH  17  36
BRANCH  13  38
HETATM   38  C14 UNL     1      42.718  12.920  -6.327  1.00  0.00     0.240 C 
HETATM   39  O2  UNL     1      42.816  13.972  -6.920  1.00  0.00    -0.306 OA
ENDBRANCH  13  38
TORSDOF 10
ENDMDL
MODEL 5
REMARK VINA RESULT: -7.193152822      2.836      3.792
REMARK  10 active torsions:
REMARK  status: ('A' for Active; 'I' for Inactive)
REMARK    1  A    between atoms: C10_10  and  O1_11 
REMARK    2  A    between atoms: C13_15  and  C14_16 
REMARK    3  A    between atoms: C18_21  and  O3_22 
REMARK    4  A    between atoms: C19_24  and  C20_25 
REMARK    5  A    between atoms: C20_25  and  C21_26 
REMARK    6  A    between atoms: C21_26  and  C22_27 
REMARK    7  A    between atoms: C23_28  and  C24_29 
REMARK    8  A    between atoms: C28_34  and  C29_35 
REMARK    9  A    between atoms: C29_35  and  O5_36 
REMARK   10  A    between atoms: C29_35  and  C30_38 
ROOT
HETATM    1  C1  UNL     1      49.928   8.803  -4.358  1.00  0.00     0.015 C 
HETATM    2  C2  UNL     1      50.066   9.033  -2.844  1.00  0.00    -0.042 C 
HETATM    3  C3  UNL     1      50.996   8.047  -2.281  1.00  0.00     0.015 C 
HETATM    4  C4  UNL     1      50.752  10.402  -2.727  1.00  0.00     0.009 C 
HETATM    5  C5  UNL     1      49.782  11.518  -2.536  1.00  0.00     0.002 C 
HETATM    6  C6  UNL     1      49.145  11.362  -1.195  1.00  0.00     0.010 C 
HETATM    7  C7  UNL     1      48.580   9.953  -1.022  1.00  0.00    -0.036 C 
HETATM    8  C8  UNL     1      49.399   9.322   0.119  1.00  0.00     0.016 C 
HETATM    9  C9  UNL     1      47.190  10.035  -0.474  1.00  0.00     0.052 C 
HETATM   10  C10 UNL     1      46.081  10.294  -1.394  1.00  0.00     0.088 C 
HETATM   11  C11 UNL     1      45.738   9.201  -2.316  1.00  0.00    -0.048 C 
HETATM   12  C12 UNL     1      46.482   8.179  -2.674  1.00  0.00    -0.009 C 
HETATM   13  C13 UNL     1      47.891   7.903  -2.198  1.00  0.00     0.075 C 
HETATM   14  C15 UNL     1      48.697   9.143  -2.295  1.00  0.00     0.016 C 
HETATM   15  C16 UNL     1      44.405   9.189  -2.960  1.00  0.00     0.039 C 
HETATM   16  C17 UNL     1      43.404   8.886  -1.871  1.00  0.00     0.036 C 
HETATM   17  C18 UNL     1      43.977   9.257  -0.513  1.00  0.00     0.126 C 
HETATM   18  C19 UNL     1      44.807  10.542  -0.578  1.00  0.00     0.057 C 
ENDROOT
BRANCH  18  19
HETATM   19  C20 UNL     1      45.089  10.941   0.817  1.00  0.00     0.049 C 
BRANCH  19  20
HETATM   20  C21 UNL     1      45.174  12.418   0.942  1.00  0.00    -0.059 C 
HETATM   21  C28 UNL     1      44.258  13.186   0.335  1.00  0.00     0.012 C 
BRANCH  20  22
HETATM   22  C22 UNL     1      46.189  13.059   1.722  1.00  0.00     0.005 C 
HETATM   23  C23 UNL     1      46.127  13.462   2.963  1.00  0.00     0.008 C 
BRANCH  23  24
HETATM   24  C24 UNL     1      47.319  14.117   3.612  1.00  0.00     0.179 A 
HETATM   25  O4  UNL     1      47.027  14.800   4.787  1.00  0.00    -0.366 OA
HETATM   26  C25 UNL     1      47.420  15.568   3.685  1.00  0.00     0.084 A 
HETATM   27  C26 UNL     1      46.420  16.461   3.014  1.00  0.00     0.049 C 
HETATM   28  C27 UNL     1      48.798  16.180   3.835  1.00  0.00     0.049 C 
ENDBRANCH  23  24
ENDBRANCH  20  22
BRANCH  21  29
HETATM   29  C29 UNL     1      44.307  14.653   0.434  1.00  0.00     0.155 C 
BRANCH  29  30
HETATM   30  O5  UNL     1      43.525  15.164   1.469  1.00  0.00    -0.391 OA
ATOM     31  H5  UNL     1      43.373  16.099   1.400  1.00  0.00     0.210 HD
ENDBRANCH  29  30
BRANCH  29  32
HETATM   32  C30 UNL     1      43.868  15.229  -0.909  1.00  0.00     0.150 C 
HETATM   33 CL1  UNL     1      43.849  13.904  -2.077  1.00  0.00    -0.128 Cl
ENDBRANCH  29  32
ENDBRANCH  21  29
ENDBRANCH  19  20
ENDBRANCH  18  19
BRANCH  10  34
HETATM   34  O1  UNL     1      46.246  11.442  -2.181  1.00  0.00    -0.385 OA
ATOM     35  H1  UNL     1      45.885  12.231  -1.796  1.00  0.00     0.211 HD
ENDBRANCH  10  34
BRANCH  17  36
HETATM   36  O3  UNL     1      44.631   8.221   0.096  1.00  0.00    -0.395 OA
ATOM     37  H3  UNL     1      44.042   7.590   0.493  1.00  0.00     0.210 HD
ENDBRANCH  17  36
BRANCH  13  38
HETATM   38  C14 UNL     1      48.345   6.729  -2.929  1.00  0.00     0.240 C 
HETATM   39  O2  UNL     1      48.467   5.666  -2.359  1.00  0.00    -0.306 OA
ENDBRANCH  13  38
TORSDOF 10
ENDMDL
