MODEL 1
REMARK VINA RESULT: -9.424135228      0.000      0.000
REMARK  9 active torsions:
REMARK  status: ('A' for Active; 'I' for Inactive)
REMARK    1  A    between atoms: C5_5  and  C6_6 
REMARK    2  A    between atoms: C6_6  and  C7_7 
REMARK    3  A    between atoms: C7_7  and  C8_8 
REMARK    4  A    between atoms: C10_10  and  C11_11 
REMARK    5  A    between atoms: C12_12  and  C14_14 
REMARK    6  A    between atoms: C19_19  and  O1_20 
REMARK    7  A    between atoms: C21_23  and  C22_24 
REMARK    8  A    between atoms: C25_28  and  O3_29 
REMARK    9  A    between atoms: C30_36  and  O5_37 
ROOT
HETATM    1  C1  UNL     1      50.988   8.386   0.029  1.00  0.00     0.019 C 
HETATM    2  C2  UNL     1      49.859   7.772   0.266  1.00  0.00    -0.061 C 
HETATM    3  C3  UNL     1      49.481   6.501  -0.407  1.00  0.00     0.039 C 
HETATM    4  C4  UNL     1      47.961   6.517  -0.449  1.00  0.00     0.014 C 
HETATM    5  C5  UNL     1      47.550   7.341   0.750  1.00  0.00     0.020 C 
HETATM    6  C20 UNL     1      48.773   8.167   1.150  1.00  0.00    -0.048 C 
HETATM    7  C21 UNL     1      48.957   8.409   2.562  1.00  0.00     0.022 C 
ENDROOT
BRANCH   5   8
HETATM    8  C6  UNL     1      46.347   8.230   0.435  1.00  0.00     0.014 C 
BRANCH   8   9
HETATM    9  C7  UNL     1      46.740   9.430  -0.356  1.00  0.00     0.034 C 
BRANCH   9  10
HETATM   10  C8  UNL     1      46.477  10.642   0.448  1.00  0.00    -0.084 C 
HETATM   11  C9  UNL     1      47.636  11.410   0.961  1.00  0.00     0.043 C 
HETATM   12  C10 UNL     1      45.264  11.076   0.734  1.00  0.00     0.003 C 
BRANCH  12  13
HETATM   13  C11 UNL     1      45.047  12.280   1.533  1.00  0.00     0.003 C 
HETATM   14  C12 UNL     1      44.664  13.424   1.007  1.00  0.00    -0.077 C 
HETATM   15  C13 UNL     1      44.425  13.547  -0.474  1.00  0.00     0.044 C 
BRANCH  14  16
HETATM   16  C14 UNL     1      44.473  14.595   1.888  1.00  0.00     0.050 C 
HETATM   17  C15 UNL     1      45.713  14.848   2.728  1.00  0.00     0.045 C 
HETATM   18  C16 UNL     1      45.831  16.317   2.808  1.00  0.00    -0.084 C 
HETATM   19  C17 UNL     1      46.749  17.017   3.753  1.00  0.00     0.043 C 
HETATM   20  C18 UNL     1      45.029  16.914   1.944  1.00  0.00     0.007 C 
HETATM   21  C19 UNL     1      44.255  15.881   1.158  1.00  0.00     0.149 C 
BRANCH  21  22
HETATM   22  O1  UNL     1      42.922  16.236   1.194  1.00  0.00    -0.391 OA
ATOM     23  H1  UNL     1      42.696  16.590   2.046  1.00  0.00     0.210 HD
ENDBRANCH  21  22
ENDBRANCH  14  16
ENDBRANCH  12  13
ENDBRANCH   9  10
ENDBRANCH   8   9
ENDBRANCH   5   8
BRANCH   7  24
HETATM   24  C22 UNL     1      49.435   7.491   3.584  1.00  0.00     0.025 C 
HETATM   25  C23 UNL     1      50.867   7.108   3.547  1.00  0.00     0.161 C 
HETATM   26  O2  UNL     1      51.688   7.981   3.691  1.00  0.00    -0.292 OA
HETATM   27  C24 UNL     1      51.320   5.723   3.347  1.00  0.00     0.127 C 
HETATM   28  C25 UNL     1      50.496   4.779   4.213  1.00  0.00     0.122 C 
HETATM   29  C26 UNL     1      49.061   4.994   3.803  1.00  0.00     0.198 C 
HETATM   30  C30 UNL     1      50.740   3.380   3.694  1.00  0.00     0.189 C 
HETATM   31  O4  UNL     1      49.072   4.499   2.521  1.00  0.00    -0.367 OA
HETATM   32  C31 UNL     1      48.531   6.364   3.998  1.00  0.00     0.238 C 
HETATM   33  C27 UNL     1      49.591   3.198   2.724  1.00  0.00     0.083 C 
HETATM   34  C28 UNL     1      48.495   2.318   3.292  1.00  0.00     0.048 C 
HETATM   35  C29 UNL     1      50.090   2.609   1.432  1.00  0.00     0.048 C 
HETATM   36  F1  UNL     1      48.347   6.470   5.401  1.00  0.00    -0.241 F 
BRANCH  28  37
HETATM   37  O3  UNL     1      50.739   4.935   5.552  1.00  0.00    -0.384 OA
ATOM     38  H3  UNL     1      50.312   4.275   6.085  1.00  0.00     0.210 HD
ENDBRANCH  28  37
BRANCH  30  39
HETATM   39  O5  UNL     1      51.978   3.273   3.109  1.00  0.00    -0.389 OA
ATOM     40  H5  UNL     1      52.057   2.466   2.614  1.00  0.00     0.210 HD
ENDBRANCH  30  39
ENDBRANCH   7  24
TORSDOF 9
ENDMDL
MODEL 2
REMARK VINA RESULT: -9.308199602      1.607      2.026
REMARK  9 active torsions:
REMARK  status: ('A' for Active; 'I' for Inactive)
REMARK    1  A    between atoms: C5_5  and  C6_6 
REMARK    2  A    between atoms: C6_6  and  C7_7 
REMARK    3  A    between atoms: C7_7  and  C8_8 
REMARK    4  A    between atoms: C10_10  and  C11_11 
REMARK    5  A    between atoms: C12_12  and  C14_14 
REMARK    6  A    between atoms: C19_19  and  O1_20 
REMARK    7  A    between atoms: C21_23  and  C22_24 
REMARK    8  A    between atoms: C25_28  and  O3_29 
REMARK    9  A    between atoms: C30_36  and  O5_37 
ROOT
HETATM    1  C1  UNL     1      51.780   6.334   0.011  1.00  0.00     0.019 C 
HETATM    2  C2  UNL     1      50.570   6.158   0.472  1.00  0.00    -0.061 C 
HETATM    3  C3  UNL     1      49.794   4.913   0.230  1.00  0.00     0.039 C 
HETATM    4  C4  UNL     1      48.338   5.350   0.254  1.00  0.00     0.014 C 
HETATM    5  C5  UNL     1      48.309   6.554   1.168  1.00  0.00     0.020 C 
HETATM    6  C20 UNL     1      49.746   7.074   1.245  1.00  0.00    -0.048 C 
HETATM    7  C21 UNL     1      50.164   7.633   2.509  1.00  0.00     0.022 C 
ENDROOT
BRANCH   5   8
HETATM    8  C6  UNL     1      47.348   7.626   0.654  1.00  0.00     0.014 C 
BRANCH   8   9
HETATM    9  C7  UNL     1      48.064   8.698  -0.092  1.00  0.00     0.034 C 
BRANCH   9  10
HETATM   10  C8  UNL     1      47.881   9.982   0.618  1.00  0.00    -0.084 C 
HETATM   11  C9  UNL     1      48.365  11.221  -0.035  1.00  0.00     0.043 C 
HETATM   12  C10 UNL     1      47.309  10.082   1.803  1.00  0.00     0.003 C 
BRANCH  12  13
HETATM   13  C11 UNL     1      47.146  11.372   2.471  1.00  0.00     0.003 C 
HETATM   14  C12 UNL     1      46.071  12.117   2.328  1.00  0.00    -0.077 C 
HETATM   15  C13 UNL     1      44.934  11.666   1.452  1.00  0.00     0.044 C 
BRANCH  14  16
HETATM   16  C14 UNL     1      45.991  13.411   3.037  1.00  0.00     0.050 C 
HETATM   17  C15 UNL     1      47.372  13.879   3.464  1.00  0.00     0.045 C 
HETATM   18  C16 UNL     1      47.355  15.344   3.283  1.00  0.00    -0.084 C 
HETATM   19  C17 UNL     1      48.406  16.252   3.828  1.00  0.00     0.043 C 
HETATM   20  C18 UNL     1      46.303  15.733   2.585  1.00  0.00     0.007 C 
HETATM   21  C19 UNL     1      45.464  14.534   2.204  1.00  0.00     0.149 C 
BRANCH  21  22
HETATM   22  O1  UNL     1      44.156  14.812   2.541  1.00  0.00    -0.391 OA
ATOM     23  H1  UNL     1      43.618  14.877   1.760  1.00  0.00     0.210 HD
ENDBRANCH  21  22
ENDBRANCH  14  16
ENDBRANCH  12  13
ENDBRANCH   9  10
ENDBRANCH   8   9
ENDBRANCH   5   8
BRANCH   7  24
HETATM   24  C22 UNL     1      50.514   6.937   3.737  1.00  0.00     0.025 C 
HETATM   25  C23 UNL     1      51.906   7.070   4.228  1.00  0.00     0.161 C 
HETATM   26  O2  UNL     1      52.295   8.172   4.530  1.00  0.00    -0.292 OA
HETATM   27  C24 UNL     1      52.820   5.925   4.363  1.00  0.00     0.127 C 
HETATM   28  C25 UNL     1      52.092   4.756   5.014  1.00  0.00     0.122 C 
HETATM   29  C26 UNL     1      50.910   4.464   4.124  1.00  0.00     0.198 C 
HETATM   30  C30 UNL     1      52.940   3.525   4.783  1.00  0.00     0.189 C 
HETATM   31  O4  UNL     1      51.536   4.002   2.990  1.00  0.00    -0.367 OA
HETATM   32  C31 UNL     1      49.936   5.567   3.961  1.00  0.00     0.238 C 
HETATM   33  C27 UNL     1      52.337   2.959   3.514  1.00  0.00     0.083 C 
HETATM   34  C28 UNL     1      51.456   1.756   3.787  1.00  0.00     0.048 C 
HETATM   35  C29 UNL     1      53.425   2.577   2.547  1.00  0.00     0.048 C 
HETATM   36  F1  UNL     1      49.240   5.605   5.196  1.00  0.00    -0.241 F 
BRANCH  28  37
HETATM   37  O3  UNL     1      51.777   4.987   6.326  1.00  0.00    -0.384 OA
ATOM     38  H3  UNL     1      52.362   4.545   6.931  1.00  0.00     0.210 HD
ENDBRANCH  28  37
BRANCH  30  39
HETATM   39  O5  UNL     1      54.270   3.851   4.663  1.00  0.00    -0.389 OA
ATOM     40  H5  UNL     1      54.759   3.154   4.242  1.00  0.00     0.210 HD
ENDBRANCH  30  39
ENDBRANCH   7  24
TORSDOF 9
ENDMDL
MODEL 3
REMARK VINA RESULT: -9.291906556      0.800      1.002
REMARK  9 active torsions:
REMARK  status: ('A' for Active; 'I' for Inactive)
REMARK    1  A    between atoms: C5_5  and  C6_6 
REMARK    2  A    between atoms: C6_6  and  C7_7 
REMARK    3  A    between atoms: C7_7  and  C8_8 
REMARK    4  A    between atoms: C10_10  and  C11_11 
REMARK    5  A    between atoms: C12_12  and  C14_14 
REMARK    6  A    between atoms: C19_19  and  O1_20 
REMARK    7  A    between atoms: C21_23  and  C22_24 
REMARK    8  A    between atoms: C25_28  and  O3_29 
REMARK    9  A    between atoms: C30_36  and  O5_37 
ROOT
HETATM    1  C1  UNL     1      51.014   8.297  -0.004  1.00  0.00     0.019 C 
HETATM    2  C2  UNL     1      49.881   7.694   0.239  1.00  0.00    -0.061 C 
HETATM    3  C3  UNL     1      49.504   6.407  -0.404  1.00  0.00     0.039 C 
HETATM    4  C4  UNL     1      47.984   6.429  -0.460  1.00  0.00     0.014 C 
HETATM    5  C5  UNL     1      47.566   7.286   0.713  1.00  0.00     0.020 C 
HETATM    6  C20 UNL     1      48.789   8.117   1.102  1.00  0.00    -0.048 C 
HETATM    7  C21 UNL     1      48.961   8.395   2.509  1.00  0.00     0.022 C 
ENDROOT
BRANCH   5   8
HETATM    8  C6  UNL     1      46.370   8.171   0.364  1.00  0.00     0.014 C 
BRANCH   8   9
HETATM    9  C7  UNL     1      46.774   9.344  -0.461  1.00  0.00     0.034 C 
BRANCH   9  10
HETATM   10  C8  UNL     1      46.922  10.522   0.420  1.00  0.00    -0.084 C 
HETATM   11  C9  UNL     1      48.035  11.464   0.152  1.00  0.00     0.043 C 
HETATM   12  C10 UNL     1      46.117  10.778   1.433  1.00  0.00     0.003 C 
BRANCH  12  13
HETATM   13  C11 UNL     1      46.299  11.955   2.280  1.00  0.00     0.003 C 
HETATM   14  C12 UNL     1      45.619  13.068   2.108  1.00  0.00    -0.077 C 
HETATM   15  C13 UNL     1      44.600  13.183   1.007  1.00  0.00     0.044 C 
BRANCH  14  16
HETATM   16  C14 UNL     1      45.869  14.213   3.009  1.00  0.00     0.050 C 
HETATM   17  C15 UNL     1      47.344  14.310   3.363  1.00  0.00     0.045 C 
HETATM   18  C16 UNL     1      47.634  15.757   3.407  1.00  0.00    -0.084 C 
HETATM   19  C17 UNL     1      48.891  16.325   3.976  1.00  0.00     0.043 C 
HETATM   20  C18 UNL     1      46.649  16.464   2.883  1.00  0.00     0.007 C 
HETATM   21  C19 UNL     1      45.546  15.544   2.411  1.00  0.00     0.149 C 
BRANCH  21  22
HETATM   22  O1  UNL     1      44.354  16.022   2.914  1.00  0.00    -0.391 OA
ATOM     23  H1  UNL     1      44.251  16.943   2.704  1.00  0.00     0.210 HD
ENDBRANCH  21  22
ENDBRANCH  14  16
ENDBRANCH  12  13
ENDBRANCH   9  10
ENDBRANCH   8   9
ENDBRANCH   5   8
BRANCH   7  24
HETATM   24  C22 UNL     1      49.426   7.503   3.559  1.00  0.00     0.025 C 
HETATM   25  C23 UNL     1      50.859   7.124   3.553  1.00  0.00     0.161 C 
HETATM   26  O2  UNL     1      51.676   8.002   3.689  1.00  0.00    -0.292 OA
HETATM   27  C24 UNL     1      51.319   5.736   3.391  1.00  0.00     0.127 C 
HETATM   28  C25 UNL     1      50.485   4.809   4.267  1.00  0.00     0.122 C 
HETATM   29  C26 UNL     1      49.056   5.011   3.830  1.00  0.00     0.198 C 
HETATM   30  C30 UNL     1      50.741   3.399   3.784  1.00  0.00     0.189 C 
HETATM   31  O4  UNL     1      49.088   4.486   2.559  1.00  0.00    -0.367 OA
HETATM   32  C31 UNL     1      48.520   6.382   3.985  1.00  0.00     0.238 C 
HETATM   33  C27 UNL     1      49.607   3.192   2.801  1.00  0.00     0.083 C 
HETATM   34  C28 UNL     1      48.506   2.322   3.372  1.00  0.00     0.048 C 
HETATM   35  C29 UNL     1      50.129   2.574   1.531  1.00  0.00     0.048 C 
HETATM   36  F1  UNL     1      48.313   6.521   5.382  1.00  0.00    -0.241 F 
BRANCH  28  37
HETATM   37  O3  UNL     1      50.707   4.997   5.605  1.00  0.00    -0.384 OA
ATOM     38  H3  UNL     1      50.636   5.907   5.868  1.00  0.00     0.210 HD
ENDBRANCH  28  37
BRANCH  30  39
HETATM   39  O5  UNL     1      51.989   3.283   3.220  1.00  0.00    -0.389 OA
ATOM     40  H5  UNL     1      52.079   2.464   2.748  1.00  0.00     0.210 HD
ENDBRANCH  30  39
ENDBRANCH   7  24
TORSDOF 9
ENDMDL
MODEL 4
REMARK VINA RESULT: -9.265169969      1.461      1.901
REMARK  9 active torsions:
REMARK  status: ('A' for Active; 'I' for Inactive)
REMARK    1  A    between atoms: C5_5  and  C6_6 
REMARK    2  A    between atoms: C6_6  and  C7_7 
REMARK    3  A    between atoms: C7_7  and  C8_8 
REMARK    4  A    between atoms: C10_10  and  C11_11 
REMARK    5  A    between atoms: C12_12  and  C14_14 
REMARK    6  A    between atoms: C19_19  and  O1_20 
REMARK    7  A    between atoms: C21_23  and  C22_24 
REMARK    8  A    between atoms: C25_28  and  O3_29 
REMARK    9  A    between atoms: C30_36  and  O5_37 
ROOT
HETATM    1  C1  UNL     1      51.149   5.098   0.191  1.00  0.00     0.019 C 
HETATM    2  C2  UNL     1      50.139   5.693   0.769  1.00  0.00    -0.061 C 
HETATM    3  C3  UNL     1      48.768   5.117   0.778  1.00  0.00     0.039 C 
HETATM    4  C4  UNL     1      47.840   6.319   0.854  1.00  0.00     0.014 C 
HETATM    5  C5  UNL     1      48.638   7.380   1.578  1.00  0.00     0.020 C 
HETATM    6  C20 UNL     1      50.108   6.972   1.461  1.00  0.00    -0.048 C 
HETATM    7  C21 UNL     1      50.955   7.277   2.590  1.00  0.00     0.022 C 
ENDROOT
BRANCH   5   8
HETATM    8  C6  UNL     1      48.390   8.769   0.990  1.00  0.00     0.014 C 
BRANCH   8   9
HETATM    9  C7  UNL     1      46.937   9.031   0.787  1.00  0.00     0.034 C 
BRANCH   9  10
HETATM   10  C8  UNL     1      46.586  10.313   1.434  1.00  0.00    -0.084 C 
HETATM   11  C9  UNL     1      47.491  10.842   2.482  1.00  0.00     0.043 C 
HETATM   12  C10 UNL     1      45.509  11.011   1.126  1.00  0.00     0.003 C 
BRANCH  12  13
HETATM   13  C11 UNL     1      45.199  12.275   1.790  1.00  0.00     0.003 C 
HETATM   14  C12 UNL     1      44.748  13.327   1.141  1.00  0.00    -0.077 C 
HETATM   15  C13 UNL     1      44.526  13.276  -0.346  1.00  0.00     0.044 C 
BRANCH  14  16
HETATM   16  C14 UNL     1      44.463  14.569   1.890  1.00  0.00     0.050 C 
HETATM   17  C15 UNL     1      45.593  14.891   2.853  1.00  0.00     0.045 C 
HETATM   18  C16 UNL     1      45.718  16.362   2.823  1.00  0.00    -0.084 C 
HETATM   19  C17 UNL     1      46.520  17.139   3.812  1.00  0.00     0.043 C 
HETATM   20  C18 UNL     1      45.036  16.884   1.819  1.00  0.00     0.007 C 
HETATM   21  C19 UNL     1      44.352  15.789   1.033  1.00  0.00     0.149 C 
BRANCH  21  22
HETATM   22  O1  UNL     1      43.030  16.147   0.874  1.00  0.00    -0.391 OA
ATOM     23  H1  UNL     1      42.466  15.387   0.967  1.00  0.00     0.210 HD
ENDBRANCH  21  22
ENDBRANCH  14  16
ENDBRANCH  12  13
ENDBRANCH   9  10
ENDBRANCH   8   9
ENDBRANCH   5   8
BRANCH   7  24
HETATM   24  C22 UNL     1      51.030   6.601   3.876  1.00  0.00     0.025 C 
HETATM   25  C23 UNL     1      52.348   6.559   4.554  1.00  0.00     0.161 C 
HETATM   26  O2  UNL     1      52.851   7.609   4.873  1.00  0.00    -0.292 OA
HETATM   27  C24 UNL     1      53.056   5.304   4.851  1.00  0.00     0.127 C 
HETATM   28  C25 UNL     1      52.082   4.285   5.428  1.00  0.00     0.122 C 
HETATM   29  C26 UNL     1      51.001   4.119   4.391  1.00  0.00     0.198 C 
HETATM   30  C30 UNL     1      52.763   2.937   5.356  1.00  0.00     0.189 C 
HETATM   31  O4  UNL     1      51.698   3.516   3.371  1.00  0.00    -0.367 OA
HETATM   32  C31 UNL     1      50.231   5.340   4.058  1.00  0.00     0.238 C 
HETATM   33  C27 UNL     1      52.258   2.398   4.033  1.00  0.00     0.083 C 
HETATM   34  C28 UNL     1      51.181   1.348   4.216  1.00  0.00     0.048 C 
HETATM   35  C29 UNL     1      53.398   1.816   3.241  1.00  0.00     0.048 C 
HETATM   36  F1  UNL     1      49.388   5.539   5.181  1.00  0.00    -0.241 F 
BRANCH  28  37
HETATM   37  O3  UNL     1      51.632   4.625   6.676  1.00  0.00    -0.384 OA
ATOM     38  H3  UNL     1      51.250   3.892   7.144  1.00  0.00     0.210 HD
ENDBRANCH  28  37
BRANCH  30  39
HETATM   39  O5  UNL     1      54.130   3.064   5.415  1.00  0.00    -0.389 OA
ATOM     40  H5  UNL     1      54.559   2.223   5.309  1.00  0.00     0.210 HD
ENDBRANCH  30  39
ENDBRANCH   7  24
TORSDOF 9
ENDMDL
MODEL 5
REMARK VINA RESULT: -9.249018639      1.776      2.370
REMARK  9 active torsions:
REMARK  status: ('A' for Active; 'I' for Inactive)
REMARK    1  A    between atoms: C5_5  and  C6_6 
REMARK    2  A    between atoms: C6_6  and  C7_7 
REMARK    3  A    between atoms: C7_7  and  C8_8 
REMARK    4  A    between atoms: C10_10  and  C11_11 
REMARK    5  A    between atoms: C12_12  and  C14_14 
REMARK    6  A    between atoms: C19_19  and  O1_20 
REMARK    7  A    between atoms: C21_23  and  C22_24 
REMARK    8  A    between atoms: C25_28  and  O3_29 
REMARK    9  A    between atoms: C30_36  and  O5_37 
ROOT
HETATM    1  C1  UNL     1      49.266  10.081  -1.439  1.00  0.00     0.019 C 
HETATM    2  C2  UNL     1      48.282   9.281  -1.121  1.00  0.00    -0.061 C 
HETATM    3  C3  UNL     1      47.844   8.164  -1.999  1.00  0.00     0.039 C 
HETATM    4  C4  UNL     1      46.366   7.983  -1.692  1.00  0.00     0.014 C 
HETATM    5  C5  UNL     1      46.209   8.439  -0.259  1.00  0.00     0.020 C 
HETATM    6  C20 UNL     1      47.429   9.307   0.056  1.00  0.00    -0.048 C 
HETATM    7  C21 UNL     1      47.944   9.234   1.403  1.00  0.00     0.022 C 
ENDROOT
BRANCH   5   8
HETATM    8  C6  UNL     1      44.903   9.205  -0.053  1.00  0.00     0.014 C 
BRANCH   8   9
HETATM    9  C7  UNL     1      44.772  10.341  -1.008  1.00  0.00     0.034 C 
BRANCH   9  10
HETATM   10  C8  UNL     1      44.733  11.608  -0.246  1.00  0.00    -0.084 C 
HETATM   11  C9  UNL     1      44.542  12.872  -0.996  1.00  0.00     0.043 C 
HETATM   12  C10 UNL     1      44.859  11.671   1.065  1.00  0.00     0.003 C 
BRANCH  12  13
HETATM   13  C11 UNL     1      44.814  12.944   1.780  1.00  0.00     0.003 C 
HETATM   14  C12 UNL     1      45.843  13.425   2.444  1.00  0.00    -0.077 C 
HETATM   15  C13 UNL     1      47.143  12.669   2.498  1.00  0.00     0.044 C 
BRANCH  14  16
HETATM   16  C14 UNL     1      45.710  14.720   3.144  1.00  0.00     0.050 C 
HETATM   17  C15 UNL     1      46.952  15.020   3.966  1.00  0.00     0.045 C 
HETATM   18  C16 UNL     1      47.156  16.477   3.837  1.00  0.00    -0.084 C 
HETATM   19  C17 UNL     1      48.100  17.253   4.692  1.00  0.00     0.043 C 
HETATM   20  C18 UNL     1      46.403  16.987   2.879  1.00  0.00     0.007 C 
HETATM   21  C19 UNL     1      45.579  15.897   2.232  1.00  0.00     0.149 C 
BRANCH  21  22
HETATM   22  O1  UNL     1      44.270  16.329   2.188  1.00  0.00    -0.391 OA
ATOM     23  H1  UNL     1      43.889  16.325   3.058  1.00  0.00     0.210 HD
ENDBRANCH  21  22
ENDBRANCH  14  16
ENDBRANCH  12  13
ENDBRANCH   9  10
ENDBRANCH   8   9
ENDBRANCH   5   8
BRANCH   7  24
HETATM   24  C22 UNL     1      48.732   8.176   2.016  1.00  0.00     0.025 C 
HETATM   25  C23 UNL     1      50.054   7.872   1.420  1.00  0.00     0.161 C 
HETATM   26  O2  UNL     1      50.889   8.743   1.424  1.00  0.00    -0.292 OA
HETATM   27  C24 UNL     1      50.384   6.564   0.832  1.00  0.00     0.127 C 
HETATM   28  C25 UNL     1      49.897   5.448   1.747  1.00  0.00     0.122 C 
HETATM   29  C26 UNL     1      48.414   5.665   1.903  1.00  0.00     0.198 C 
HETATM   30  C30 UNL     1      49.920   4.172   0.935  1.00  0.00     0.189 C 
HETATM   31  O4  UNL     1      47.969   5.400   0.629  1.00  0.00    -0.367 OA
HETATM   32  C31 UNL     1      48.009   6.954   2.510  1.00  0.00     0.238 C 
HETATM   33  C27 UNL     1      48.503   4.109   0.406  1.00  0.00     0.083 C 
HETATM   34  C28 UNL     1      47.658   3.094   1.151  1.00  0.00     0.048 C 
HETATM   35  C29 UNL     1      48.511   3.775  -1.062  1.00  0.00     0.048 C 
HETATM   36  F1  UNL     1      48.326   6.808   3.884  1.00  0.00    -0.241 F 
BRANCH  28  37
HETATM   37  O3  UNL     1      50.593   5.381   2.925  1.00  0.00    -0.384 OA
ATOM     38  H3  UNL     1      51.516   5.194   2.800  1.00  0.00     0.210 HD
ENDBRANCH  28  37
BRANCH  30  39
HETATM   39  O5  UNL     1      50.876   4.225  -0.051  1.00  0.00    -0.389 OA
ATOM     40  H5  UNL     1      51.677   3.794   0.222  1.00  0.00     0.210 HD
ENDBRANCH  30  39
ENDBRANCH   7  24
TORSDOF 9
ENDMDL
