MODEL 1
REMARK VINA RESULT: -7.942965207      0.000      0.000
REMARK  8 active torsions:
REMARK  status: ('A' for Active; 'I' for Inactive)
REMARK    1  A    between atoms: C7_10  and  N3_11 
REMARK    2  A    between atoms: N3_11  and  C8_12 
REMARK    3  A    between atoms: C9_13  and  C10_14 
REMARK    4  A    between atoms: N4_15  and  C11_17 
REMARK    5  A    between atoms: C11_17  and  C12_18 
REMARK    6  A    between atoms: C12_18  and  C13_19 
REMARK    7  A    between atoms: C16_22  and  N5_23 
REMARK    8  A    between atoms: N5_23  and  S1_25 
ROOT
HETATM    1  C1  UNL     1      44.254   9.632  -0.055  1.00  0.00     0.052 C 
HETATM    2  C2  UNL     1      45.452   9.615  -0.932  1.00  0.00    -0.017 A 
HETATM    3  C3  UNL     1      46.699   9.464  -0.407  1.00  0.00     0.051 A 
HETATM    4  C4  UNL     1      47.844   9.440  -1.173  1.00  0.00     0.114 A 
HETATM    5  C5  UNL     1      49.146   9.276  -0.600  1.00  0.00     0.117 C 
HETATM    6  N1  UNL     1      50.192   9.126  -0.149  1.00  0.00    -0.190 NA
HETATM    7  N2  UNL     1      47.692   9.576  -2.518  1.00  0.00    -0.354 N 
ATOM      8  H2  UNL     1      48.515   9.565  -3.120  1.00  0.00     0.166 HD
HETATM    9  C6  UNL     1      46.502   9.723  -3.051  1.00  0.00     0.134 A 
HETATM   10  C7  UNL     1      45.291   9.755  -2.323  1.00  0.00     0.129 A 
ENDROOT
BRANCH  10  11
HETATM   11  N3  UNL     1      44.102   9.902  -2.905  1.00  0.00    -0.402 NA
BRANCH  11  12
HETATM   12  C8  UNL     1      43.110  10.405  -3.352  1.00  0.00     0.136 A 
HETATM   13  C9  UNL     1      43.087  11.686  -3.923  1.00  0.00     0.036 A 
HETATM   14  C20 UNL     1      41.888  12.153  -4.399  1.00  0.00     0.106 A 
HETATM   15  N6  UNL     1      40.728  11.459  -4.356  1.00  0.00    -0.351 N 
HETATM   16  C21 UNL     1      40.748  10.233  -3.811  1.00  0.00     0.120 A 
ATOM     17  H6  UNL     1      39.865  11.855  -4.726  1.00  0.00     0.166 HD
HETATM   18  N7  UNL     1      39.766   9.294  -3.619  1.00  0.00    -0.350 N 
HETATM   19  C24 UNL     1      41.878   9.682  -3.313  1.00  0.00     0.073 A 
HETATM   20  C22 UNL     1      40.285   8.209  -3.024  1.00  0.00     0.114 A 
ATOM     21  H7  UNL     1      38.788   9.404  -3.889  1.00  0.00     0.166 HD
HETATM   22  C23 UNL     1      41.643   8.416  -2.808  1.00  0.00     0.066 A 
HETATM   23 CL1  UNL     1      42.810   7.367  -2.081  1.00  0.00    -0.082 Cl
BRANCH  13  24
HETATM   24  C10 UNL     1      44.296  12.482  -4.001  1.00  0.00     0.103 C 
HETATM   25  N4  UNL     1      44.746  13.350  -3.248  1.00  0.00    -0.378 N 
ATOM     26  H4  UNL     1      45.628  13.683  -3.638  1.00  0.00     0.164 HD
BRANCH  25  27
HETATM   27  C11 UNL     1      44.503  14.045  -2.069  1.00  0.00     0.065 C 
BRANCH  27  28
HETATM   28  C12 UNL     1      44.424  13.088  -0.907  1.00  0.00     0.083 C 
BRANCH  28  29
HETATM   29  C13 UNL     1      44.725  13.657   0.389  1.00  0.00    -0.053 A 
HETATM   30  C14 UNL     1      44.200  14.826   0.861  1.00  0.00     0.010 A 
HETATM   31  C15 UNL     1      44.485  15.362   2.082  1.00  0.00     0.030 A 
HETATM   32  C16 UNL     1      45.365  14.701   2.930  1.00  0.00     0.042 A 
HETATM   33  C18 UNL     1      45.915  13.520   2.491  1.00  0.00     0.030 A 
HETATM   34  C19 UNL     1      45.599  12.998   1.228  1.00  0.00     0.010 A 
BRANCH  32  35
HETATM   35  N5  UNL     1      45.634  15.285   4.190  1.00  0.00    -0.285 N 
ATOM     36  H5  UNL     1      45.167  14.937   5.028  1.00  0.00     0.178 HD
BRANCH  35  37
HETATM   37  S1  UNL     1      46.750  16.582   4.296  1.00  0.00     0.227 S 
HETATM   38  C17 UNL     1      48.325  15.993   3.689  1.00  0.00     0.186 C 
HETATM   39  O1  UNL     1      46.868  17.012   5.735  1.00  0.00    -0.206 OA
HETATM   40  O2  UNL     1      46.300  17.779   3.527  1.00  0.00    -0.206 OA
ENDBRANCH  35  37
ENDBRANCH  32  35
ENDBRANCH  28  29
ENDBRANCH  27  28
ENDBRANCH  25  27
ENDBRANCH  13  24
ENDBRANCH  11  12
ENDBRANCH  10  11
TORSDOF 8
ENDMDL
MODEL 2
REMARK VINA RESULT: -7.835862948      3.101      4.627
REMARK  8 active torsions:
REMARK  status: ('A' for Active; 'I' for Inactive)
REMARK    1  A    between atoms: C7_10  and  N3_11 
REMARK    2  A    between atoms: N3_11  and  C8_12 
REMARK    3  A    between atoms: C9_13  and  C10_14 
REMARK    4  A    between atoms: N4_15  and  C11_17 
REMARK    5  A    between atoms: C11_17  and  C12_18 
REMARK    6  A    between atoms: C12_18  and  C13_19 
REMARK    7  A    between atoms: C16_22  and  N5_23 
REMARK    8  A    between atoms: N5_23  and  S1_25 
ROOT
HETATM    1  C1  UNL     1      48.344  10.229   0.418  1.00  0.00     0.052 C 
HETATM    2  C2  UNL     1      48.081   8.837   0.865  1.00  0.00    -0.017 A 
HETATM    3  C3  UNL     1      48.349   8.452   2.142  1.00  0.00     0.051 A 
HETATM    4  C4  UNL     1      48.124   7.175   2.610  1.00  0.00     0.114 A 
HETATM    5  C5  UNL     1      48.410   6.792   3.960  1.00  0.00     0.117 C 
HETATM    6  N1  UNL     1      48.619   6.484   5.047  1.00  0.00    -0.190 NA
HETATM    7  N2  UNL     1      47.608   6.276   1.730  1.00  0.00    -0.354 N 
ATOM      8  H2  UNL     1      47.428   5.320   2.037  1.00  0.00     0.166 HD
HETATM    9  C6  UNL     1      47.340   6.620   0.493  1.00  0.00     0.134 A 
HETATM   10  C7  UNL     1      47.546   7.909  -0.048  1.00  0.00     0.129 A 
ENDROOT
BRANCH  10  11
HETATM   11  N3  UNL     1      47.256   8.218  -1.311  1.00  0.00    -0.402 NA
BRANCH  11  12
HETATM   12  C8  UNL     1      46.723   8.227  -2.386  1.00  0.00     0.136 A 
HETATM   13  C9  UNL     1      45.339   8.368  -2.557  1.00  0.00     0.036 A 
HETATM   14  C20 UNL     1      44.849   8.362  -3.838  1.00  0.00     0.106 A 
HETATM   15  N6  UNL     1      45.614   8.230  -4.946  1.00  0.00    -0.351 N 
HETATM   16  C21 UNL     1      46.939   8.096  -4.784  1.00  0.00     0.120 A 
ATOM     17  H6  UNL     1      45.196   8.233  -5.876  1.00  0.00     0.166 HD
HETATM   18  N7  UNL     1      47.966   7.945  -5.682  1.00  0.00    -0.350 N 
HETATM   19  C24 UNL     1      47.520   8.089  -3.564  1.00  0.00     0.073 A 
HETATM   20  C22 UNL     1      49.132   7.850  -5.025  1.00  0.00     0.114 A 
ATOM     21  H7  UNL     1      47.859   7.910  -6.696  1.00  0.00     0.166 HD
HETATM   22  C23 UNL     1      48.892   7.938  -3.659  1.00  0.00     0.066 A 
HETATM   23 CL1  UNL     1      50.011   7.877  -2.342  1.00  0.00    -0.082 Cl
BRANCH  13  24
HETATM   24  C10 UNL     1      44.464   8.514  -1.410  1.00  0.00     0.103 C 
HETATM   25  N4  UNL     1      44.327   9.442  -0.608  1.00  0.00    -0.378 N 
ATOM     26  H4  UNL     1      43.608   9.176   0.065  1.00  0.00     0.164 HD
BRANCH  25  27
HETATM   27  C11 UNL     1      44.782  10.712  -0.277  1.00  0.00     0.065 C 
BRANCH  27  28
HETATM   28  C12 UNL     1      44.579  10.972   1.194  1.00  0.00     0.083 C 
BRANCH  28  29
HETATM   29  C13 UNL     1      45.297  12.108   1.731  1.00  0.00    -0.053 A 
HETATM   30  C14 UNL     1      44.937  13.411   1.538  1.00  0.00     0.010 A 
HETATM   31  C15 UNL     1      45.615  14.481   2.044  1.00  0.00     0.030 A 
HETATM   32  C16 UNL     1      46.754  14.268   2.811  1.00  0.00     0.042 A 
HETATM   33  C18 UNL     1      47.148  12.969   3.028  1.00  0.00     0.030 A 
HETATM   34  C19 UNL     1      46.427  11.893   2.492  1.00  0.00     0.010 A 
BRANCH  32  35
HETATM   35  N5  UNL     1      47.428  15.402   3.322  1.00  0.00    -0.285 N 
ATOM     36  H5  UNL     1      48.412  15.558   3.100  1.00  0.00     0.178 HD
BRANCH  35  37
HETATM   37  S1  UNL     1      46.579  16.511   4.316  1.00  0.00     0.227 S 
HETATM   38  C17 UNL     1      45.332  15.593   5.210  1.00  0.00     0.186 C 
HETATM   39  O1  UNL     1      45.938  17.560   3.444  1.00  0.00    -0.206 OA
HETATM   40  O2  UNL     1      47.484  17.232   5.258  1.00  0.00    -0.206 OA
ENDBRANCH  35  37
ENDBRANCH  32  35
ENDBRANCH  28  29
ENDBRANCH  27  28
ENDBRANCH  25  27
ENDBRANCH  13  24
ENDBRANCH  11  12
ENDBRANCH  10  11
TORSDOF 8
ENDMDL
MODEL 3
REMARK VINA RESULT: -7.785369152      2.531      3.258
REMARK  8 active torsions:
REMARK  status: ('A' for Active; 'I' for Inactive)
REMARK    1  A    between atoms: C7_10  and  N3_11 
REMARK    2  A    between atoms: N3_11  and  C8_12 
REMARK    3  A    between atoms: C9_13  and  C10_14 
REMARK    4  A    between atoms: N4_15  and  C11_17 
REMARK    5  A    between atoms: C11_17  and  C12_18 
REMARK    6  A    between atoms: C12_18  and  C13_19 
REMARK    7  A    between atoms: C16_22  and  N5_23 
REMARK    8  A    between atoms: N5_23  and  S1_25 
ROOT
HETATM    1  C1  UNL     1      47.091  11.191  -2.928  1.00  0.00     0.052 C 
HETATM    2  C2  UNL     1      47.750   9.976  -2.384  1.00  0.00    -0.017 A 
HETATM    3  C3  UNL     1      49.039  10.019  -1.949  1.00  0.00     0.051 A 
HETATM    4  C4  UNL     1      49.700   8.924  -1.435  1.00  0.00     0.114 A 
HETATM    5  C5  UNL     1      51.056   8.991  -0.979  1.00  0.00     0.117 C 
HETATM    6  N1  UNL     1      52.137   9.043  -0.594  1.00  0.00    -0.190 NA
HETATM    7  N2  UNL     1      49.006   7.756  -1.373  1.00  0.00    -0.354 N 
ATOM      8  H2  UNL     1      49.459   6.921  -1.000  1.00  0.00     0.166 HD
HETATM    9  C6  UNL     1      47.763   7.687  -1.785  1.00  0.00     0.134 A 
HETATM   10  C7  UNL     1      47.029   8.770  -2.320  1.00  0.00     0.129 A 
ENDROOT
BRANCH  10  11
HETATM   11  N3  UNL     1      45.765   8.657  -2.724  1.00  0.00    -0.402 NA
BRANCH  11  12
HETATM   12  C8  UNL     1      44.617   8.317  -2.784  1.00  0.00     0.136 A 
HETATM   13  C9  UNL     1      43.794   8.182  -1.656  1.00  0.00     0.036 A 
HETATM   14  C20 UNL     1      42.496   7.783  -1.854  1.00  0.00     0.106 A 
HETATM   15  N6  UNL     1      41.959   7.514  -3.066  1.00  0.00    -0.351 N 
HETATM   16  C21 UNL     1      42.744   7.643  -4.146  1.00  0.00     0.120 A 
ATOM     17  H6  UNL     1      40.986   7.221  -3.155  1.00  0.00     0.166 HD
HETATM   18  N7  UNL     1      42.509   7.449  -5.484  1.00  0.00    -0.350 N 
HETATM   19  C24 UNL     1      44.037   8.029  -4.057  1.00  0.00     0.073 A 
HETATM   20  C22 UNL     1      43.624   7.710  -6.184  1.00  0.00     0.114 A 
ATOM     21  H7  UNL     1      41.620   7.151  -5.886  1.00  0.00     0.166 HD
HETATM   22  C23 UNL     1      44.633   8.087  -5.304  1.00  0.00     0.066 A 
HETATM   23 CL1  UNL     1      46.270   8.534  -5.639  1.00  0.00    -0.082 Cl
BRANCH  13  24
HETATM   24  C10 UNL     1      44.309   8.457  -0.329  1.00  0.00     0.103 C 
HETATM   25  N4  UNL     1      44.682   9.511   0.194  1.00  0.00    -0.378 N 
ATOM     26  H4  UNL     1      44.978   9.305   1.148  1.00  0.00     0.164 HD
BRANCH  25  27
HETATM   27  C11 UNL     1      44.849  10.873  -0.028  1.00  0.00     0.065 C 
BRANCH  27  28
HETATM   28  C12 UNL     1      44.304  11.661   1.136  1.00  0.00     0.083 C 
BRANCH  28  29
HETATM   29  C13 UNL     1      45.203  12.649   1.694  1.00  0.00    -0.053 A 
HETATM   30  C14 UNL     1      46.409  12.360   2.266  1.00  0.00     0.010 A 
HETATM   31  C15 UNL     1      47.255  13.291   2.792  1.00  0.00     0.030 A 
HETATM   32  C16 UNL     1      46.898  14.633   2.763  1.00  0.00     0.042 A 
HETATM   33  C18 UNL     1      45.690  14.964   2.196  1.00  0.00     0.030 A 
HETATM   34  C19 UNL     1      44.845  13.980   1.664  1.00  0.00     0.010 A 
BRANCH  32  35
HETATM   35  N5  UNL     1      47.801  15.570   3.316  1.00  0.00    -0.285 N 
ATOM     36  H5  UNL     1      48.794  15.526   3.085  1.00  0.00     0.178 HD
BRANCH  35  37
HETATM   37  S1  UNL     1      47.214  16.782   4.378  1.00  0.00     0.227 S 
HETATM   38  C17 UNL     1      46.061  16.005   5.502  1.00  0.00     0.186 C 
HETATM   39  O1  UNL     1      46.524  17.850   3.571  1.00  0.00    -0.206 OA
HETATM   40  O2  UNL     1      48.314  17.456   5.130  1.00  0.00    -0.206 OA
ENDBRANCH  35  37
ENDBRANCH  32  35
ENDBRANCH  28  29
ENDBRANCH  27  28
ENDBRANCH  25  27
ENDBRANCH  13  24
ENDBRANCH  11  12
ENDBRANCH  10  11
TORSDOF 8
ENDMDL
MODEL 4
REMARK VINA RESULT: -7.767611055      2.804      5.276
REMARK  8 active torsions:
REMARK  status: ('A' for Active; 'I' for Inactive)
REMARK    1  A    between atoms: C7_10  and  N3_11 
REMARK    2  A    between atoms: N3_11  and  C8_12 
REMARK    3  A    between atoms: C9_13  and  C10_14 
REMARK    4  A    between atoms: N4_15  and  C11_17 
REMARK    5  A    between atoms: C11_17  and  C12_18 
REMARK    6  A    between atoms: C12_18  and  C13_19 
REMARK    7  A    between atoms: C16_22  and  N5_23 
REMARK    8  A    between atoms: N5_23  and  S1_25 
ROOT
HETATM    1  C1  UNL     1      46.602  11.245  -0.267  1.00  0.00     0.052 C 
HETATM    2  C2  UNL     1      45.901  10.551  -1.377  1.00  0.00    -0.017 A 
HETATM    3  C3  UNL     1      44.913   9.651  -1.123  1.00  0.00     0.051 A 
HETATM    4  C4  UNL     1      44.229   8.979  -2.114  1.00  0.00     0.114 A 
HETATM    5  C5  UNL     1      43.190   8.037  -1.825  1.00  0.00     0.117 C 
HETATM    6  N1  UNL     1      42.343   7.295  -1.600  1.00  0.00    -0.190 NA
HETATM    7  N2  UNL     1      44.580   9.248  -3.400  1.00  0.00    -0.354 N 
ATOM      8  H2  UNL     1      44.099   8.772  -4.162  1.00  0.00     0.166 HD
HETATM    9  C6  UNL     1      45.529  10.113  -3.673  1.00  0.00     0.134 A 
HETATM   10  C7  UNL     1      46.265  10.834  -2.706  1.00  0.00     0.129 A 
ENDROOT
BRANCH  10  11
HETATM   11  N3  UNL     1      47.219  11.707  -3.028  1.00  0.00    -0.402 NA
BRANCH  11  12
HETATM   12  C8  UNL     1      47.771  12.727  -3.332  1.00  0.00     0.136 A 
HETATM   13  C9  UNL     1      47.117  13.799  -3.956  1.00  0.00     0.036 A 
HETATM   14  C20 UNL     1      47.859  14.914  -4.256  1.00  0.00     0.106 A 
HETATM   15  N6  UNL     1      49.178  15.046  -3.988  1.00  0.00    -0.351 N 
HETATM   16  C21 UNL     1      49.805  14.021  -3.390  1.00  0.00     0.120 A 
ATOM     17  H6  UNL     1      49.681  15.899  -4.232  1.00  0.00     0.166 HD
HETATM   18  N7  UNL     1      51.107  13.843  -2.994  1.00  0.00    -0.350 N 
HETATM   19  C24 UNL     1      49.165  12.879  -3.055  1.00  0.00     0.073 A 
HETATM   20  C22 UNL     1      51.250  12.631  -2.435  1.00  0.00     0.114 A 
ATOM     21  H7  UNL     1      51.854  14.529  -3.106  1.00  0.00     0.166 HD
HETATM   22  C23 UNL     1      50.023  11.977  -2.453  1.00  0.00     0.066 A 
HETATM   23 CL1  UNL     1      49.613  10.399  -1.873  1.00  0.00    -0.082 Cl
BRANCH  13  24
HETATM   24  C10 UNL     1      45.704  13.721  -4.269  1.00  0.00     0.103 C 
HETATM   25  N4  UNL     1      44.715  14.144  -3.665  1.00  0.00    -0.378 N 
ATOM     26  H4  UNL     1      43.884  13.895  -4.202  1.00  0.00     0.164 HD
BRANCH  25  27
HETATM   27  C11 UNL     1      44.307  14.832  -2.528  1.00  0.00     0.065 C 
BRANCH  27  28
HETATM   28  C12 UNL     1      44.083  13.871  -1.389  1.00  0.00     0.083 C 
BRANCH  28  29
HETATM   29  C13 UNL     1      44.245  14.428  -0.063  1.00  0.00    -0.053 A 
HETATM   30  C14 UNL     1      44.565  13.700   1.047  1.00  0.00     0.010 A 
HETATM   31  C15 UNL     1      44.717  14.226   2.296  1.00  0.00     0.030 A 
HETATM   32  C16 UNL     1      44.540  15.591   2.489  1.00  0.00     0.042 A 
HETATM   33  C18 UNL     1      44.217  16.358   1.395  1.00  0.00     0.030 A 
HETATM   34  C19 UNL     1      44.069  15.783   0.125  1.00  0.00     0.010 A 
BRANCH  32  35
HETATM   35  N5  UNL     1      44.709  16.101   3.798  1.00  0.00    -0.285 N 
ATOM     36  H5  UNL     1      43.943  16.589   4.263  1.00  0.00     0.178 HD
BRANCH  35  37
HETATM   37  S1  UNL     1      46.212  15.891   4.596  1.00  0.00     0.227 S 
HETATM   38  C17 UNL     1      47.491  15.867   3.347  1.00  0.00     0.186 C 
HETATM   39  O1  UNL     1      46.189  14.589   5.352  1.00  0.00    -0.206 OA
HETATM   40  O2  UNL     1      46.472  16.965   5.601  1.00  0.00    -0.206 OA
ENDBRANCH  35  37
ENDBRANCH  32  35
ENDBRANCH  28  29
ENDBRANCH  27  28
ENDBRANCH  25  27
ENDBRANCH  13  24
ENDBRANCH  11  12
ENDBRANCH  10  11
TORSDOF 8
ENDMDL
MODEL 5
REMARK VINA RESULT: -7.746455291      1.973      2.959
REMARK  8 active torsions:
REMARK  status: ('A' for Active; 'I' for Inactive)
REMARK    1  A    between atoms: C7_10  and  N3_11 
REMARK    2  A    between atoms: N3_11  and  C8_12 
REMARK    3  A    between atoms: C9_13  and  C10_14 
REMARK    4  A    between atoms: N4_15  and  C11_17 
REMARK    5  A    between atoms: C11_17  and  C12_18 
REMARK    6  A    between atoms: C12_18  and  C13_19 
REMARK    7  A    between atoms: C16_22  and  N5_23 
REMARK    8  A    between atoms: N5_23  and  S1_25 
ROOT
HETATM    1  C1  UNL     1      45.026  12.740  -2.358  1.00  0.00     0.052 C 
HETATM    2  C2  UNL     1      46.145  11.781  -2.544  1.00  0.00    -0.017 A 
HETATM    3  C3  UNL     1      47.427  12.143  -2.263  1.00  0.00     0.051 A 
HETATM    4  C4  UNL     1      48.502  11.295  -2.416  1.00  0.00     0.114 A 
HETATM    5  C5  UNL     1      49.843  11.694  -2.112  1.00  0.00     0.117 C 
HETATM    6  N1  UNL     1      50.919  12.003  -1.851  1.00  0.00    -0.190 NA
HETATM    7  N2  UNL     1      48.241  10.040  -2.872  1.00  0.00    -0.354 N 
ATOM      8  H2  UNL     1      49.010   9.382  -2.999  1.00  0.00     0.166 HD
HETATM    9  C6  UNL     1      47.015   9.665  -3.149  1.00  0.00     0.134 A 
HETATM   10  C7  UNL     1      45.871  10.484  -3.014  1.00  0.00     0.129 A 
ENDROOT
BRANCH  10  11
HETATM   11  N3  UNL     1      44.641  10.061  -3.304  1.00  0.00    -0.402 NA
BRANCH  11  12
HETATM   12  C8  UNL     1      43.573   9.523  -3.214  1.00  0.00     0.136 A 
HETATM   13  C9  UNL     1      43.244   8.635  -2.180  1.00  0.00     0.036 A 
HETATM   14  C20 UNL     1      41.988   8.082  -2.187  1.00  0.00     0.106 A 
HETATM   15  N6  UNL     1      41.048   8.339  -3.125  1.00  0.00    -0.351 N 
HETATM   16  C21 UNL     1      41.362   9.189  -4.115  1.00  0.00     0.120 A 
ATOM     17  H6  UNL     1      40.129   7.900  -3.082  1.00  0.00     0.166 HD
HETATM   18  N7  UNL     1      40.650   9.648  -5.196  1.00  0.00    -0.350 N 
HETATM   19  C24 UNL     1      42.572   9.786  -4.199  1.00  0.00     0.073 A 
HETATM   20  C22 UNL     1      41.406  10.496  -5.910  1.00  0.00     0.114 A 
ATOM     21  H7  UNL     1      39.691   9.384  -5.421  1.00  0.00     0.166 HD
HETATM   22  C23 UNL     1      42.651  10.614  -5.303  1.00  0.00     0.066 A 
HETATM   23 CL1  UNL     1      44.018  11.562  -5.780  1.00  0.00    -0.082 Cl
BRANCH  13  24
HETATM   24  C10 UNL     1      44.206   8.320  -1.143  1.00  0.00     0.103 C 
HETATM   25  N4  UNL     1      44.638   8.994  -0.204  1.00  0.00    -0.378 N 
ATOM     26  H4  UNL     1      45.306   8.425   0.316  1.00  0.00     0.164 HD
BRANCH  25  27
HETATM   27  C11 UNL     1      44.557  10.238   0.411  1.00  0.00     0.065 C 
BRANCH  27  28
HETATM   28  C12 UNL     1      45.895  10.622   0.989  1.00  0.00     0.083 C 
BRANCH  28  29
HETATM   29  C13 UNL     1      45.980  11.964   1.525  1.00  0.00    -0.053 A 
HETATM   30  C14 UNL     1      45.056  12.944   1.303  1.00  0.00     0.010 A 
HETATM   31  C15 UNL     1      45.136  14.208   1.808  1.00  0.00     0.030 A 
HETATM   32  C16 UNL     1      46.220  14.558   2.604  1.00  0.00     0.042 A 
HETATM   33  C18 UNL     1      47.173  13.598   2.850  1.00  0.00     0.030 A 
HETATM   34  C19 UNL     1      47.056  12.307   2.315  1.00  0.00     0.010 A 
BRANCH  32  35
HETATM   35  N5  UNL     1      46.269  15.877   3.112  1.00  0.00    -0.285 N 
ATOM     36  H5  UNL     1      46.560  16.649   2.512  1.00  0.00     0.178 HD
BRANCH  35  37
HETATM   37  S1  UNL     1      45.834  16.167   4.745  1.00  0.00     0.227 S 
HETATM   38  C17 UNL     1      45.650  14.580   5.548  1.00  0.00     0.186 C 
HETATM   39  O1  UNL     1      44.535  16.929   4.780  1.00  0.00    -0.206 OA
HETATM   40  O2  UNL     1      46.842  17.008   5.457  1.00  0.00    -0.206 OA
ENDBRANCH  35  37
ENDBRANCH  32  35
ENDBRANCH  28  29
ENDBRANCH  27  28
ENDBRANCH  25  27
ENDBRANCH  13  24
ENDBRANCH  11  12
ENDBRANCH  10  11
TORSDOF 8
ENDMDL
