MODEL 1
REMARK VINA RESULT: -7.442288731      0.000      0.000
REMARK  10 active torsions:
REMARK  status: ('A' for Active; 'I' for Inactive)
REMARK    1  A    between atoms: C2_2  and  C3_3 
REMARK    2  A    between atoms: C9_9  and  O1_10 
REMARK    3  A    between atoms: C10_12  and  O2_13 
REMARK    4  A    between atoms: C19_23  and  O3_24 
REMARK    5  A    between atoms: C20_26  and  C21_27 
REMARK    6  A    between atoms: C21_27  and  C23_29 
REMARK    7  A    between atoms: C23_29  and  C24_30 
REMARK    8  A    between atoms: C24_30  and  C25_31 
REMARK    9  A    between atoms: C25_31  and  C26_33 
REMARK   10  A    between atoms: C26_33  and  C27_34 
ROOT
HETATM    1  C3  UNL     1      49.976   4.357   1.104  1.00  0.00     0.246 C 
HETATM    2  C4  UNL     1      49.165   3.263   1.758  1.00  0.00     0.040 C 
HETATM    3  C5  UNL     1      49.905   2.514   2.807  1.00  0.00     0.008 C 
HETATM    4  C6  UNL     1      50.337   3.359   3.961  1.00  0.00    -0.003 C 
HETATM    5  C7  UNL     1      50.866   2.478   5.062  1.00  0.00     0.003 C 
HETATM    6  C8  UNL     1      50.626   3.020   6.445  1.00  0.00     0.040 C 
HETATM    7  C9  UNL     1      52.012   3.108   7.054  1.00  0.00     0.148 C 
HETATM    8  C10 UNL     1      52.685   1.895   6.420  1.00  0.00     0.155 C 
HETATM    9  C11 UNL     1      52.286   2.093   4.951  1.00  0.00    -0.011 C 
HETATM   10  C12 UNL     1      52.502   0.770   4.241  1.00  0.00     0.018 C 
HETATM   11  C13 UNL     1      53.214   3.096   4.374  1.00  0.00     0.012 C 
HETATM   12  C14 UNL     1      52.568   3.791   3.150  1.00  0.00     0.008 C 
HETATM   13  C15 UNL     1      51.330   4.433   3.627  1.00  0.00     0.029 C 
HETATM   14  C16 UNL     1      50.786   5.640   2.978  1.00  0.00     0.164 C 
HETATM   15  C17 UNL     1      50.032   6.420   4.044  1.00  0.00     0.049 C 
HETATM   16  C18 UNL     1      51.852   6.513   2.428  1.00  0.00     0.075 C 
HETATM   17  C19 UNL     1      51.141   7.510   1.478  1.00  0.00     0.154 C 
HETATM   18  C20 UNL     1      49.865   6.782   1.192  1.00  0.00     0.257 C 
HETATM   19  N1  UNL     1      49.880   5.519   1.885  1.00  0.00     0.114 N 
ENDROOT
BRANCH  18  20
HETATM   20  C21 UNL     1      48.715   7.671   1.415  1.00  0.00     0.018 C 
HETATM   21  C22 UNL     1      47.466   6.929   1.904  1.00  0.00     0.012 C 
BRANCH  20  22
HETATM   22  C23 UNL     1      48.348   8.413   0.136  1.00  0.00     0.014 C 
BRANCH  22  23
HETATM   23  C24 UNL     1      47.180   9.328   0.258  1.00  0.00     0.079 C 
BRANCH  23  24
HETATM   24  C25 UNL     1      47.615  10.601   0.881  1.00  0.00     0.132 C 
HETATM   25  O4  UNL     1      48.366  11.331   0.277  1.00  0.00    -0.298 OA
BRANCH  24  26
HETATM   26  C26 UNL     1      47.148  10.987   2.225  1.00  0.00     0.129 C 
BRANCH  26  27
HETATM   27  C27 UNL     1      46.716  12.404   2.287  1.00  0.00     0.014 C 
HETATM   28 CL1  UNL     1      45.343  12.945   1.346  1.00  0.00    -0.089 Cl
HETATM   29  C28 UNL     1      47.364  13.246   3.046  1.00  0.00    -0.011 C 
HETATM   30  C29 UNL     1      46.980  14.691   3.155  1.00  0.00     0.037 C 
ENDBRANCH  26  27
ENDBRANCH  24  26
ENDBRANCH  23  24
ENDBRANCH  22  23
ENDBRANCH  20  22
ENDBRANCH  18  20
BRANCH  17  31
HETATM   31  O3  UNL     1      51.040   8.669   2.197  1.00  0.00    -0.393 OA
ATOM     32  H3  UNL     1      51.347   9.349   1.609  1.00  0.00     0.210 HD
ENDBRANCH  17  31
BRANCH   1  33
HETATM   33  C2  UNL     1      49.462   4.471  -0.281  1.00  0.00    -0.002 C 
HETATM   34  C1  UNL     1      48.287   3.977  -0.665  1.00  0.00     0.009 C 
ENDBRANCH   1  33
BRANCH   7  35
HETATM   35  O1  UNL     1      51.898   2.964   8.419  1.00  0.00    -0.393 OA
ATOM     36  H1  UNL     1      52.332   2.158   8.673  1.00  0.00     0.210 HD
ENDBRANCH   7  35
BRANCH   8  37
HETATM   37  O2  UNL     1      52.157   0.734   6.929  1.00  0.00    -0.392 OA
ATOM     38  H2  UNL     1      51.441   0.429   6.385  1.00  0.00     0.210 HD
ENDBRANCH   8  37
TORSDOF 10
ENDMDL
MODEL 2
REMARK VINA RESULT: -7.334274784      1.148      1.251
REMARK  10 active torsions:
REMARK  status: ('A' for Active; 'I' for Inactive)
REMARK    1  A    between atoms: C2_2  and  C3_3 
REMARK    2  A    between atoms: C9_9  and  O1_10 
REMARK    3  A    between atoms: C10_12  and  O2_13 
REMARK    4  A    between atoms: C19_23  and  O3_24 
REMARK    5  A    between atoms: C20_26  and  C21_27 
REMARK    6  A    between atoms: C21_27  and  C23_29 
REMARK    7  A    between atoms: C23_29  and  C24_30 
REMARK    8  A    between atoms: C24_30  and  C25_31 
REMARK    9  A    between atoms: C25_31  and  C26_33 
REMARK   10  A    between atoms: C26_33  and  C27_34 
ROOT
HETATM    1  C3  UNL     1      51.461   5.089   1.267  1.00  0.00     0.246 C 
HETATM    2  C4  UNL     1      51.147   3.614   1.182  1.00  0.00     0.040 C 
HETATM    3  C5  UNL     1      51.638   2.829   2.344  1.00  0.00     0.008 C 
HETATM    4  C6  UNL     1      51.029   3.236   3.647  1.00  0.00    -0.003 C 
HETATM    5  C7  UNL     1      51.409   2.242   4.713  1.00  0.00     0.003 C 
HETATM    6  C8  UNL     1      50.361   2.061   5.779  1.00  0.00     0.040 C 
HETATM    7  C9  UNL     1      51.086   2.390   7.070  1.00  0.00     0.148 C 
HETATM    8  C10 UNL     1      52.483   1.860   6.762  1.00  0.00     0.155 C 
HETATM    9  C11 UNL     1      52.710   2.471   5.372  1.00  0.00    -0.011 C 
HETATM   10  C12 UNL     1      53.857   1.716   4.727  1.00  0.00     0.018 C 
HETATM   11  C13 UNL     1      53.126   3.881   5.573  1.00  0.00     0.012 C 
HETATM   12  C14 UNL     1      52.808   4.724   4.313  1.00  0.00     0.008 C 
HETATM   13  C15 UNL     1      51.354   4.631   4.092  1.00  0.00     0.029 C 
HETATM   14  C16 UNL     1      50.602   5.714   3.430  1.00  0.00     0.164 C 
HETATM   15  C17 UNL     1      49.185   5.676   3.982  1.00  0.00     0.049 C 
HETATM   16  C18 UNL     1      51.176   7.052   3.713  1.00  0.00     0.075 C 
HETATM   17  C19 UNL     1      50.537   8.018   2.683  1.00  0.00     0.154 C 
HETATM   18  C20 UNL     1      50.088   7.060   1.624  1.00  0.00     0.257 C 
HETATM   19  N1  UNL     1      50.457   5.724   2.013  1.00  0.00     0.114 N 
ENDROOT
BRANCH  18  20
HETATM   20  C21 UNL     1      48.679   7.309   1.282  1.00  0.00     0.018 C 
HETATM   21  C22 UNL     1      47.970   6.073   0.716  1.00  0.00     0.012 C 
BRANCH  20  22
HETATM   22  C23 UNL     1      48.560   8.428   0.256  1.00  0.00     0.014 C 
BRANCH  22  23
HETATM   23  C24 UNL     1      47.324   9.250   0.369  1.00  0.00     0.079 C 
BRANCH  23  24
HETATM   24  C25 UNL     1      47.664  10.577   0.936  1.00  0.00     0.132 C 
HETATM   25  O4  UNL     1      48.381  11.323   0.310  1.00  0.00    -0.298 OA
BRANCH  24  26
HETATM   26  C26 UNL     1      47.142  10.997   2.249  1.00  0.00     0.129 C 
BRANCH  26  27
HETATM   27  C27 UNL     1      46.670  12.402   2.245  1.00  0.00     0.014 C 
HETATM   28 CL1  UNL     1      45.337  12.877   1.215  1.00  0.00    -0.089 Cl
HETATM   29  C28 UNL     1      47.252  13.284   3.013  1.00  0.00    -0.011 C 
HETATM   30  C29 UNL     1      46.825  14.720   3.057  1.00  0.00     0.037 C 
ENDBRANCH  26  27
ENDBRANCH  24  26
ENDBRANCH  23  24
ENDBRANCH  22  23
ENDBRANCH  20  22
ENDBRANCH  18  20
BRANCH  17  31
HETATM   31  O3  UNL     1      49.556   8.673   3.377  1.00  0.00    -0.393 OA
ATOM     32  H3  UNL     1      49.114   7.994   3.874  1.00  0.00     0.210 HD
ENDBRANCH  17  31
BRANCH   1  33
HETATM   33  C2  UNL     1      51.610   5.555  -0.132  1.00  0.00    -0.002 C 
HETATM   34  C1  UNL     1      51.179   4.858  -1.181  1.00  0.00     0.009 C 
ENDBRANCH   1  33
BRANCH   7  35
HETATM   35  O1  UNL     1      50.494   1.682   8.093  1.00  0.00    -0.393 OA
ATOM     36  H1  UNL     1      50.791   2.045   8.920  1.00  0.00     0.210 HD
ENDBRANCH   7  35
BRANCH   8  37
HETATM   37  O2  UNL     1      52.475   0.488   6.709  1.00  0.00    -0.392 OA
ATOM     38  H2  UNL     1      53.028   0.180   6.000  1.00  0.00     0.210 HD
ENDBRANCH   8  37
TORSDOF 10
ENDMDL
MODEL 3
REMARK VINA RESULT: -7.167753112      7.133     10.694
REMARK  10 active torsions:
REMARK  status: ('A' for Active; 'I' for Inactive)
REMARK    1  A    between atoms: C2_2  and  C3_3 
REMARK    2  A    between atoms: C9_9  and  O1_10 
REMARK    3  A    between atoms: C10_12  and  O2_13 
REMARK    4  A    between atoms: C19_23  and  O3_24 
REMARK    5  A    between atoms: C20_26  and  C21_27 
REMARK    6  A    between atoms: C21_27  and  C23_29 
REMARK    7  A    between atoms: C23_29  and  C24_30 
REMARK    8  A    between atoms: C24_30  and  C25_31 
REMARK    9  A    between atoms: C25_31  and  C26_33 
REMARK   10  A    between atoms: C26_33  and  C27_34 
ROOT
HETATM    1  C3  UNL     1      44.819  11.363  -2.474  1.00  0.00     0.246 C 
HETATM    2  C4  UNL     1      43.419  11.849  -2.769  1.00  0.00     0.040 C 
HETATM    3  C5  UNL     1      42.721  11.065  -3.821  1.00  0.00     0.008 C 
HETATM    4  C6  UNL     1      42.519   9.627  -3.467  1.00  0.00    -0.003 C 
HETATM    5  C7  UNL     1      41.611   8.982  -4.480  1.00  0.00     0.003 C 
HETATM    6  C8  UNL     1      40.749   7.885  -3.914  1.00  0.00     0.040 C 
HETATM    7  C9  UNL     1      41.093   6.672  -4.757  1.00  0.00     0.148 C 
HETATM    8  C10 UNL     1      41.342   7.323  -6.114  1.00  0.00     0.155 C 
HETATM    9  C11 UNL     1      42.266   8.477  -5.702  1.00  0.00    -0.011 C 
HETATM   10  C12 UNL     1      42.277   9.478  -6.842  1.00  0.00     0.018 C 
HETATM   11  C13 UNL     1      43.631   7.916  -5.553  1.00  0.00     0.012 C 
HETATM   12  C14 UNL     1      44.480   8.799  -4.603  1.00  0.00     0.008 C 
HETATM   13  C15 UNL     1      43.779   8.828  -3.308  1.00  0.00     0.029 C 
HETATM   14  C16 UNL     1      44.507   9.013  -2.039  1.00  0.00     0.164 C 
HETATM   15  C17 UNL     1      43.708   8.304  -0.956  1.00  0.00     0.049 C 
HETATM   16  C18 UNL     1      45.866   8.420  -2.078  1.00  0.00     0.075 C 
HETATM   17  C19 UNL     1      46.624   9.003  -0.859  1.00  0.00     0.154 C 
HETATM   18  C20 UNL     1      45.814  10.229  -0.571  1.00  0.00     0.257 C 
HETATM   19  N1  UNL     1      44.748  10.323  -1.535  1.00  0.00     0.114 N 
ENDROOT
BRANCH  18  20
HETATM   20  C21 UNL     1      45.454  10.275   0.854  1.00  0.00     0.018 C 
HETATM   21  C22 UNL     1      44.329  11.269   1.160  1.00  0.00     0.012 C 
BRANCH  20  22
HETATM   22  C23 UNL     1      46.659  10.655   1.705  1.00  0.00     0.014 C 
BRANCH  22  23
HETATM   23  C24 UNL     1      47.246  11.987   1.397  1.00  0.00     0.079 C 
BRANCH  23  24
HETATM   24  C25 UNL     1      47.101  12.874   2.576  1.00  0.00     0.132 C 
HETATM   25  O4  UNL     1      47.608  12.552   3.626  1.00  0.00    -0.298 OA
BRANCH  24  26
HETATM   26  C26 UNL     1      46.348  14.138   2.487  1.00  0.00     0.129 C 
BRANCH  26  27
HETATM   27  C27 UNL     1      46.704  15.085   3.571  1.00  0.00     0.014 C 
HETATM   28 CL1  UNL     1      45.797  15.085   5.068  1.00  0.00    -0.089 Cl
HETATM   29  C28 UNL     1      47.695  15.919   3.404  1.00  0.00    -0.011 C 
HETATM   30  C29 UNL     1      48.106  16.901   4.459  1.00  0.00     0.037 C 
ENDBRANCH  26  27
ENDBRANCH  24  26
ENDBRANCH  23  24
ENDBRANCH  22  23
ENDBRANCH  20  22
ENDBRANCH  18  20
BRANCH  17  31
HETATM   31  O3  UNL     1      46.592   8.010   0.082  1.00  0.00    -0.393 OA
ATOM     32  H3  UNL     1      47.212   7.360  -0.228  1.00  0.00     0.210 HD
ENDBRANCH  17  31
BRANCH   1  33
HETATM   33  C2  UNL     1      45.584  12.559  -2.049  1.00  0.00    -0.002 C 
HETATM   34  C1  UNL     1      45.006  13.695  -1.666  1.00  0.00     0.009 C 
ENDBRANCH   1  33
BRANCH   7  35
HETATM   35  O1  UNL     1      39.995   5.841  -4.792  1.00  0.00    -0.393 OA
ATOM     36  H1  UNL     1      40.080   5.202  -4.094  1.00  0.00     0.210 HD
ENDBRANCH   7  35
BRANCH   8  37
HETATM   37  O2  UNL     1      40.165   7.790  -6.645  1.00  0.00    -0.392 OA
ATOM     38  H2  UNL     1      39.903   8.594  -6.212  1.00  0.00     0.210 HD
ENDBRANCH   8  37
TORSDOF 10
ENDMDL
MODEL 4
REMARK VINA RESULT: -7.070207161      4.003      9.812
REMARK  10 active torsions:
REMARK  status: ('A' for Active; 'I' for Inactive)
REMARK    1  A    between atoms: C2_2  and  C3_3 
REMARK    2  A    between atoms: C9_9  and  O1_10 
REMARK    3  A    between atoms: C10_12  and  O2_13 
REMARK    4  A    between atoms: C19_23  and  O3_24 
REMARK    5  A    between atoms: C20_26  and  C21_27 
REMARK    6  A    between atoms: C21_27  and  C23_29 
REMARK    7  A    between atoms: C23_29  and  C24_30 
REMARK    8  A    between atoms: C24_30  and  C25_31 
REMARK    9  A    between atoms: C25_31  and  C26_33 
REMARK   10  A    between atoms: C26_33  and  C27_34 
ROOT
HETATM    1  C3  UNL     1      46.895  10.658   0.465  1.00  0.00     0.246 C 
HETATM    2  C4  UNL     1      45.461  10.616   0.939  1.00  0.00     0.040 C 
HETATM    3  C5  UNL     1      44.470  10.479  -0.160  1.00  0.00     0.008 C 
HETATM    4  C6  UNL     1      44.610   9.215  -0.945  1.00  0.00    -0.003 C 
HETATM    5  C7  UNL     1      43.432   9.064  -1.871  1.00  0.00     0.003 C 
HETATM    6  C8  UNL     1      43.036   7.634  -2.126  1.00  0.00     0.040 C 
HETATM    7  C9  UNL     1      43.115   7.491  -3.633  1.00  0.00     0.148 C 
HETATM    8  C10 UNL     1      42.671   8.880  -4.081  1.00  0.00     0.155 C 
HETATM    9  C11 UNL     1      43.542   9.756  -3.170  1.00  0.00    -0.011 C 
HETATM   10  C12 UNL     1      42.938  11.148  -3.168  1.00  0.00     0.018 C 
HETATM   11  C13 UNL     1      44.890   9.826  -3.785  1.00  0.00     0.012 C 
HETATM   12  C14 UNL     1      45.959  10.153  -2.712  1.00  0.00     0.008 C 
HETATM   13  C15 UNL     1      45.895   9.078  -1.706  1.00  0.00     0.029 C 
HETATM   14  C16 UNL     1      47.078   8.689  -0.914  1.00  0.00     0.164 C 
HETATM   15  C17 UNL     1      46.919   7.217  -0.566  1.00  0.00     0.049 C 
HETATM   16  C18 UNL     1      48.342   8.855  -1.673  1.00  0.00     0.075 C 
HETATM   17  C19 UNL     1      49.483   8.774  -0.627  1.00  0.00     0.154 C 
HETATM   18  C20 UNL     1      48.744   9.093   0.635  1.00  0.00     0.257 C 
HETATM   19  N1  UNL     1      47.361   9.343   0.319  1.00  0.00     0.114 N 
ENDROOT
BRANCH  18  20
HETATM   20  C21 UNL     1      49.040   8.082   1.662  1.00  0.00     0.018 C 
HETATM   21  C22 UNL     1      48.007   8.055   2.794  1.00  0.00     0.012 C 
BRANCH  20  22
HETATM   22  C23 UNL     1      50.409   8.326   2.283  1.00  0.00     0.014 C 
BRANCH  22  23
HETATM   23  C24 UNL     1      50.455   8.191   3.765  1.00  0.00     0.079 C 
BRANCH  23  24
HETATM   24  C25 UNL     1      51.759   7.609   4.166  1.00  0.00     0.132 C 
HETATM   25  O4  UNL     1      52.572   8.306   4.728  1.00  0.00    -0.298 OA
BRANCH  24  26
HETATM   26  C26 UNL     1      52.077   6.197   3.889  1.00  0.00     0.129 C 
BRANCH  26  27
HETATM   27  C27 UNL     1      51.457   5.275   4.870  1.00  0.00     0.014 C 
HETATM   28 CL1  UNL     1      49.719   5.068   4.904  1.00  0.00    -0.089 Cl
HETATM   29  C28 UNL     1      52.212   4.619   5.709  1.00  0.00    -0.011 C 
HETATM   30  C29 UNL     1      51.651   3.672   6.726  1.00  0.00     0.037 C 
ENDBRANCH  26  27
ENDBRANCH  24  26
ENDBRANCH  23  24
ENDBRANCH  22  23
ENDBRANCH  20  22
ENDBRANCH  18  20
BRANCH  17  31
HETATM   31  O3  UNL     1      49.980   7.505  -0.746  1.00  0.00    -0.393 OA
ATOM     32  H3  UNL     1      49.687   7.054   0.037  1.00  0.00     0.210 HD
ENDBRANCH  17  31
BRANCH   1  33
HETATM   33  C2  UNL     1      47.624  11.491   1.449  1.00  0.00    -0.002 C 
HETATM   34  C1  UNL     1      47.068  11.954   2.566  1.00  0.00     0.009 C 
ENDBRANCH   1  33
BRANCH   7  35
HETATM   35  O1  UNL     1      42.217   6.524  -4.026  1.00  0.00    -0.393 OA
ATOM     36  H1  UNL     1      42.132   5.889  -3.325  1.00  0.00     0.210 HD
ENDBRANCH   7  35
BRANCH   8  37
HETATM   37  O2  UNL     1      41.335   9.063  -3.820  1.00  0.00    -0.392 OA
ATOM     38  H2  UNL     1      41.011   9.833  -4.272  1.00  0.00     0.210 HD
ENDBRANCH   8  37
TORSDOF 10
ENDMDL
MODEL 5
REMARK VINA RESULT: -7.020681614      0.749      1.043
REMARK  10 active torsions:
REMARK  status: ('A' for Active; 'I' for Inactive)
REMARK    1  A    between atoms: C2_2  and  C3_3 
REMARK    2  A    between atoms: C9_9  and  O1_10 
REMARK    3  A    between atoms: C10_12  and  O2_13 
REMARK    4  A    between atoms: C19_23  and  O3_24 
REMARK    5  A    between atoms: C20_26  and  C21_27 
REMARK    6  A    between atoms: C21_27  and  C23_29 
REMARK    7  A    between atoms: C23_29  and  C24_30 
REMARK    8  A    between atoms: C24_30  and  C25_31 
REMARK    9  A    between atoms: C25_31  and  C26_33 
REMARK   10  A    between atoms: C26_33  and  C27_34 
ROOT
HETATM    1  C3  UNL     1      49.972   4.392   1.117  1.00  0.00     0.246 C 
HETATM    2  C4  UNL     1      49.149   3.297   1.753  1.00  0.00     0.040 C 
HETATM    3  C5  UNL     1      49.872   2.538   2.806  1.00  0.00     0.008 C 
HETATM    4  C6  UNL     1      50.294   3.373   3.971  1.00  0.00    -0.003 C 
HETATM    5  C7  UNL     1      50.805   2.482   5.071  1.00  0.00     0.003 C 
HETATM    6  C8  UNL     1      50.551   3.015   6.456  1.00  0.00     0.040 C 
HETATM    7  C9  UNL     1      51.930   3.093   7.082  1.00  0.00     0.148 C 
HETATM    8  C10 UNL     1      52.605   1.881   6.448  1.00  0.00     0.155 C 
HETATM    9  C11 UNL     1      52.225   2.090   4.976  1.00  0.00    -0.011 C 
HETATM   10  C12 UNL     1      52.443   0.771   4.259  1.00  0.00     0.018 C 
HETATM   11  C13 UNL     1      53.164   3.093   4.417  1.00  0.00     0.012 C 
HETATM   12  C14 UNL     1      52.537   3.799   3.189  1.00  0.00     0.008 C 
HETATM   13  C15 UNL     1      51.296   4.444   3.656  1.00  0.00     0.029 C 
HETATM   14  C16 UNL     1      50.765   5.658   3.008  1.00  0.00     0.164 C 
HETATM   15  C17 UNL     1      50.002   6.435   4.071  1.00  0.00     0.049 C 
HETATM   16  C18 UNL     1      51.842   6.530   2.477  1.00  0.00     0.075 C 
HETATM   17  C19 UNL     1      51.147   7.537   1.526  1.00  0.00     0.154 C 
HETATM   18  C20 UNL     1      49.871   6.816   1.219  1.00  0.00     0.257 C 
HETATM   19  N1  UNL     1      49.872   5.549   1.904  1.00  0.00     0.114 N 
ENDROOT
BRANCH  18  20
HETATM   20  C21 UNL     1      48.723   7.709   1.435  1.00  0.00     0.018 C 
HETATM   21  C22 UNL     1      47.479   6.977   1.950  1.00  0.00     0.012 C 
BRANCH  20  22
HETATM   22  C23 UNL     1      48.344   8.425   0.145  1.00  0.00     0.014 C 
BRANCH  22  23
HETATM   23  C24 UNL     1      46.944   8.198  -0.309  1.00  0.00     0.079 C 
BRANCH  23  24
HETATM   24  C25 UNL     1      46.262   9.503  -0.476  1.00  0.00     0.132 C 
HETATM   25  O4  UNL     1      46.574  10.221  -1.398  1.00  0.00    -0.298 OA
BRANCH  24  26
HETATM   26  C26 UNL     1      45.213   9.937   0.464  1.00  0.00     0.129 C 
BRANCH  26  27
HETATM   27  C27 UNL     1      45.586  11.171   1.196  1.00  0.00     0.014 C 
HETATM   28 CL1  UNL     1      44.676  12.646   0.951  1.00  0.00    -0.089 Cl
HETATM   29  C28 UNL     1      46.596  11.153   2.024  1.00  0.00    -0.011 C 
HETATM   30  C29 UNL     1      47.026  12.364   2.795  1.00  0.00     0.037 C 
ENDBRANCH  26  27
ENDBRANCH  24  26
ENDBRANCH  23  24
ENDBRANCH  22  23
ENDBRANCH  20  22
ENDBRANCH  18  20
BRANCH  17  31
HETATM   31  O3  UNL     1      51.043   8.692   2.252  1.00  0.00    -0.393 OA
ATOM     32  H3  UNL     1      51.835   9.177   2.055  1.00  0.00     0.210 HD
ENDBRANCH  17  31
BRANCH   1  33
HETATM   33  C2  UNL     1      49.475   4.518  -0.274  1.00  0.00    -0.002 C 
HETATM   34  C1  UNL     1      48.294   4.051  -0.670  1.00  0.00     0.009 C 
ENDBRANCH   1  33
BRANCH   7  35
HETATM   35  O1  UNL     1      51.799   2.940   8.444  1.00  0.00    -0.393 OA
ATOM     36  H1  UNL     1      52.543   3.355   8.866  1.00  0.00     0.210 HD
ENDBRANCH   7  35
BRANCH   8  37
HETATM   37  O2  UNL     1      52.066   0.719   6.942  1.00  0.00    -0.392 OA
ATOM     38  H2  UNL     1      51.389   0.393   6.361  1.00  0.00     0.210 HD
ENDBRANCH   8  37
TORSDOF 10
ENDMDL
