MODEL 1
REMARK VINA RESULT: -6.575118776      0.000      0.000
REMARK  11 active torsions:
REMARK  status: ('A' for Active; 'I' for Inactive)
REMARK    1  A    between atoms: C2_2  and  O2_4 
REMARK    2  A    between atoms: O2_4  and  C3_5 
REMARK    3  A    between atoms: C12_14  and  C13_15 
REMARK    4  A    between atoms: C13_15  and  O3_18 
REMARK    5  A    between atoms: C18_22  and  C19_23 
REMARK    6  A    between atoms: C19_23  and  C21_25 
REMARK    7  A    between atoms: C21_25  and  N1_26 
REMARK    8  A    between atoms: N1_26  and  C22_27 
REMARK    9  A    between atoms: N1_26  and  C24_30 
REMARK   10  A    between atoms: C22_27  and  C23_28 
REMARK   11  A    between atoms: C24_30  and  C25_31 
ROOT
HETATM    1  C3  UNL     1      46.474   7.737  -4.839  1.00  0.00     0.154 C 
HETATM    2  C4  UNL     1      45.985   7.487  -3.441  1.00  0.00     0.002 C 
HETATM    3  C5  UNL     1      45.596   8.490  -2.672  1.00  0.00    -0.018 C 
HETATM    4  C6  UNL     1      45.668   9.853  -3.259  1.00  0.00    -0.018 C 
HETATM    5  C7  UNL     1      44.659  10.019  -4.403  1.00  0.00     0.020 C 
HETATM    6  C8  UNL     1      47.076   9.952  -3.797  1.00  0.00     0.004 C 
HETATM    7  C9  UNL     1      47.444  11.304  -4.272  1.00  0.00     0.033 C 
HETATM    8  C10 UNL     1      47.516  12.416  -3.334  1.00  0.00    -0.023 C 
HETATM    9  C11 UNL     1      47.550  12.250  -1.876  1.00  0.00    -0.071 C 
HETATM   10  C12 UNL     1      48.801  12.231  -1.097  1.00  0.00     0.048 C 
HETATM   11  C16 UNL     1      48.860  11.115  -0.064  1.00  0.00     0.012 C 
HETATM   12  C17 UNL     1      47.859  11.171   1.035  1.00  0.00     0.007 C 
HETATM   13  C18 UNL     1      46.761  12.134   0.898  1.00  0.00     0.003 C 
HETATM   14  C26 UNL     1      45.774  11.834  -0.150  1.00  0.00    -0.032 C 
HETATM   15  C27 UNL     1      45.045  13.125  -0.503  1.00  0.00     0.016 C 
HETATM   16  C28 UNL     1      44.819  10.711   0.069  1.00  0.00     0.011 C 
HETATM   17  C29 UNL     1      44.246  10.584  -1.345  1.00  0.00     0.007 C 
HETATM   18  C30 UNL     1      45.386  10.959  -2.269  1.00  0.00     0.007 C 
HETATM   19  C31 UNL     1      46.539  11.280  -1.372  1.00  0.00     0.028 C 
HETATM   20  C32 UNL     1      47.283   8.996  -4.921  1.00  0.00     0.042 C 
ENDROOT
BRANCH  13  21
HETATM   21  C19 UNL     1      46.180  12.606   2.238  1.00  0.00     0.025 C 
HETATM   22  C20 UNL     1      46.276  11.604   3.302  1.00  0.00     0.016 C 
BRANCH  21  23
HETATM   23  C21 UNL     1      46.755  13.944   2.556  1.00  0.00     0.068 C 
BRANCH  23  24
HETATM   24  N1  UNL     1      46.160  14.775   3.491  1.00  0.00    -0.364 N 
BRANCH  24  25
HETATM   25  C22 UNL     1      45.020  15.532   3.309  1.00  0.00     0.078 C 
BRANCH  25  26
HETATM   26  C23 UNL     1      45.116  16.641   2.281  1.00  0.00     0.159 C 
HETATM   27 CL1  UNL     1      44.188  16.259   0.819  1.00  0.00    -0.125 Cl
ENDBRANCH  25  26
ENDBRANCH  24  25
BRANCH  24  28
HETATM   28  C24 UNL     1      46.926  15.040   4.683  1.00  0.00     0.226 C 
BRANCH  28  29
HETATM   29  C25 UNL     1      47.524  16.366   4.775  1.00  0.00     0.249 C 
HETATM   30  N2  UNL     1      47.134  17.237   5.817  1.00  0.00    -0.061 NA
HETATM   31  O4  UNL     1      48.382  16.784   3.962  1.00  0.00    -0.275 OA
ENDBRANCH  28  29
ENDBRANCH  24  28
ENDBRANCH  23  24
ENDBRANCH  21  23
ENDBRANCH  13  21
BRANCH  10  32
HETATM   32  C13 UNL     1      50.147  12.269  -1.724  1.00  0.00     0.058 C 
HETATM   33  C14 UNL     1      50.439  13.350  -2.713  1.00  0.00     0.046 C 
HETATM   34  C15 UNL     1      50.460  10.982  -2.466  1.00  0.00     0.046 C 
BRANCH  32  35
HETATM   35  O3  UNL     1      51.181  12.266  -0.751  1.00  0.00    -0.390 OA
ATOM     36  H3  UNL     1      52.024  12.477  -1.133  1.00  0.00     0.210 HD
ENDBRANCH  32  35
ENDBRANCH  10  32
BRANCH   1  37
HETATM   37  O2  UNL     1      47.233   6.642  -5.331  1.00  0.00    -0.312 OA
BRANCH  37  38
HETATM   38  C2  UNL     1      46.671   5.603  -6.055  1.00  0.00     0.255 C 
HETATM   39  C1  UNL     1      46.093   5.722  -7.397  1.00  0.00     0.126 C 
HETATM   40  O1  UNL     1      46.669   4.470  -5.498  1.00  0.00    -0.266 OA
ENDBRANCH  37  38
ENDBRANCH   1  37
TORSDOF 11
ENDMDL
MODEL 2
REMARK VINA RESULT: -6.385175468      1.510      1.882
REMARK  11 active torsions:
REMARK  status: ('A' for Active; 'I' for Inactive)
REMARK    1  A    between atoms: C2_2  and  O2_4 
REMARK    2  A    between atoms: O2_4  and  C3_5 
REMARK    3  A    between atoms: C12_14  and  C13_15 
REMARK    4  A    between atoms: C13_15  and  O3_18 
REMARK    5  A    between atoms: C18_22  and  C19_23 
REMARK    6  A    between atoms: C19_23  and  C21_25 
REMARK    7  A    between atoms: C21_25  and  N1_26 
REMARK    8  A    between atoms: N1_26  and  C22_27 
REMARK    9  A    between atoms: N1_26  and  C24_30 
REMARK   10  A    between atoms: C22_27  and  C23_28 
REMARK   11  A    between atoms: C24_30  and  C25_31 
ROOT
HETATM    1  C3  UNL     1      46.070   8.033  -5.217  1.00  0.00     0.154 C 
HETATM    2  C4  UNL     1      45.573   7.745  -3.829  1.00  0.00     0.002 C 
HETATM    3  C5  UNL     1      45.231   8.730  -3.016  1.00  0.00    -0.018 C 
HETATM    4  C6  UNL     1      45.363  10.113  -3.545  1.00  0.00    -0.018 C 
HETATM    5  C7  UNL     1      44.360  10.373  -4.677  1.00  0.00     0.020 C 
HETATM    6  C8  UNL     1      46.773  10.172  -4.083  1.00  0.00     0.004 C 
HETATM    7  C9  UNL     1      47.200  11.526  -4.501  1.00  0.00     0.033 C 
HETATM    8  C10 UNL     1      47.324  12.592  -3.517  1.00  0.00    -0.023 C 
HETATM    9  C11 UNL     1      47.353  12.361  -2.067  1.00  0.00    -0.071 C 
HETATM   10  C12 UNL     1      48.602  12.254  -1.294  1.00  0.00     0.048 C 
HETATM   11  C16 UNL     1      48.614  11.092  -0.310  1.00  0.00     0.012 C 
HETATM   12  C17 UNL     1      47.618  11.146   0.794  1.00  0.00     0.007 C 
HETATM   13  C18 UNL     1      46.564  12.161   0.703  1.00  0.00     0.003 C 
HETATM   14  C26 UNL     1      45.563  11.951  -0.353  1.00  0.00    -0.032 C 
HETATM   15  C27 UNL     1      44.891  13.288  -0.649  1.00  0.00     0.016 C 
HETATM   16  C28 UNL     1      44.559  10.863  -0.179  1.00  0.00     0.011 C 
HETATM   17  C29 UNL     1      43.978  10.824  -1.596  1.00  0.00     0.007 C 
HETATM   18  C30 UNL     1      45.132  11.187  -2.507  1.00  0.00     0.007 C 
HETATM   19  C31 UNL     1      46.300  11.417  -1.601  1.00  0.00     0.028 C 
HETATM   20  C32 UNL     1      46.935   9.257  -5.248  1.00  0.00     0.042 C 
ENDROOT
BRANCH  13  21
HETATM   21  C19 UNL     1      46.008  12.600   2.064  1.00  0.00     0.025 C 
HETATM   22  C20 UNL     1      46.322  11.672   3.151  1.00  0.00     0.016 C 
BRANCH  21  23
HETATM   23  C21 UNL     1      46.394  14.021   2.295  1.00  0.00     0.068 C 
BRANCH  23  24
HETATM   24  N1  UNL     1      45.755  14.791   3.254  1.00  0.00    -0.364 N 
BRANCH  24  25
HETATM   25  C22 UNL     1      46.185  15.012   4.547  1.00  0.00     0.078 C 
BRANCH  25  26
HETATM   26  C23 UNL     1      46.885  16.333   4.797  1.00  0.00     0.159 C 
HETATM   27 CL1  UNL     1      48.412  16.441   3.902  1.00  0.00    -0.125 Cl
ENDBRANCH  25  26
ENDBRANCH  24  25
BRANCH  24  28
HETATM   28  C24 UNL     1      44.414  15.214   2.938  1.00  0.00     0.226 C 
BRANCH  28  29
HETATM   29  C25 UNL     1      44.302  16.378   2.068  1.00  0.00     0.249 C 
HETATM   30  N2  UNL     1      44.691  17.649   2.548  1.00  0.00    -0.061 NA
HETATM   31  O4  UNL     1      43.870  16.311   0.893  1.00  0.00    -0.275 OA
ENDBRANCH  28  29
ENDBRANCH  24  28
ENDBRANCH  23  24
ENDBRANCH  21  23
ENDBRANCH  13  21
BRANCH  10  32
HETATM   32  C13 UNL     1      49.948  12.259  -1.923  1.00  0.00     0.058 C 
HETATM   33  C14 UNL     1      50.265  13.334  -2.911  1.00  0.00     0.046 C 
HETATM   34  C15 UNL     1      50.226  10.965  -2.669  1.00  0.00     0.046 C 
BRANCH  32  35
HETATM   35  O3  UNL     1      50.983  12.227  -0.953  1.00  0.00    -0.390 OA
ATOM     36  H3  UNL     1      51.550  11.473  -1.068  1.00  0.00     0.210 HD
ENDBRANCH  32  35
ENDBRANCH  10  32
BRANCH   1  37
HETATM   37  O2  UNL     1      46.779   6.928  -5.758  1.00  0.00    -0.312 OA
BRANCH  37  38
HETATM   38  C2  UNL     1      47.362   5.949  -4.970  1.00  0.00     0.255 C 
HETATM   39  C1  UNL     1      48.543   6.139  -4.122  1.00  0.00     0.126 C 
HETATM   40  O1  UNL     1      46.818   4.811  -4.996  1.00  0.00    -0.266 OA
ENDBRANCH  37  38
ENDBRANCH   1  37
TORSDOF 11
ENDMDL
MODEL 3
REMARK VINA RESULT: -6.257164813      2.921      3.983
REMARK  11 active torsions:
REMARK  status: ('A' for Active; 'I' for Inactive)
REMARK    1  A    between atoms: C2_2  and  O2_4 
REMARK    2  A    between atoms: O2_4  and  C3_5 
REMARK    3  A    between atoms: C12_14  and  C13_15 
REMARK    4  A    between atoms: C13_15  and  O3_18 
REMARK    5  A    between atoms: C18_22  and  C19_23 
REMARK    6  A    between atoms: C19_23  and  C21_25 
REMARK    7  A    between atoms: C21_25  and  N1_26 
REMARK    8  A    between atoms: N1_26  and  C22_27 
REMARK    9  A    between atoms: N1_26  and  C24_30 
REMARK   10  A    between atoms: C22_27  and  C23_28 
REMARK   11  A    between atoms: C24_30  and  C25_31 
ROOT
HETATM    1  C3  UNL     1      42.100   8.349  -4.509  1.00  0.00     0.154 C 
HETATM    2  C4  UNL     1      41.423   9.423  -3.708  1.00  0.00     0.002 C 
HETATM    3  C5  UNL     1      42.067  10.532  -3.384  1.00  0.00    -0.018 C 
HETATM    4  C6  UNL     1      43.473  10.652  -3.850  1.00  0.00    -0.018 C 
HETATM    5  C7  UNL     1      43.543  10.767  -5.379  1.00  0.00     0.020 C 
HETATM    6  C8  UNL     1      44.124   9.365  -3.401  1.00  0.00     0.004 C 
HETATM    7  C9  UNL     1      45.591   9.334  -3.596  1.00  0.00     0.033 C 
HETATM    8  C10 UNL     1      46.447  10.251  -2.858  1.00  0.00    -0.023 C 
HETATM    9  C11 UNL     1      46.001  11.018  -1.688  1.00  0.00    -0.071 C 
HETATM   10  C12 UNL     1      46.219  10.572  -0.301  1.00  0.00     0.048 C 
HETATM   11  C16 UNL     1      44.991  10.712   0.586  1.00  0.00     0.012 C 
HETATM   12  C17 UNL     1      44.496  12.095   0.824  1.00  0.00     0.007 C 
HETATM   13  C18 UNL     1      45.066  13.166  -0.000  1.00  0.00     0.003 C 
HETATM   14  C26 UNL     1      44.693  13.146  -1.422  1.00  0.00    -0.032 C 
HETATM   15  C27 UNL     1      45.729  13.950  -2.200  1.00  0.00     0.016 C 
HETATM   16  C28 UNL     1      43.305  13.534  -1.802  1.00  0.00     0.011 C 
HETATM   17  C29 UNL     1      43.300  13.069  -3.261  1.00  0.00     0.007 C 
HETATM   18  C30 UNL     1      44.201  11.852  -3.291  1.00  0.00     0.007 C 
HETATM   19  C31 UNL     1      44.678  11.673  -1.884  1.00  0.00     0.028 C 
HETATM   20  C32 UNL     1      43.539   8.197  -4.118  1.00  0.00     0.042 C 
ENDROOT
BRANCH  13  21
HETATM   21  C19 UNL     1      45.040  14.545   0.672  1.00  0.00     0.025 C 
HETATM   22  C20 UNL     1      44.183  15.514  -0.015  1.00  0.00     0.016 C 
BRANCH  21  23
HETATM   23  C21 UNL     1      44.767  14.357   2.125  1.00  0.00     0.068 C 
BRANCH  23  24
HETATM   24  N1  UNL     1      45.626  14.863   3.087  1.00  0.00    -0.364 N 
BRANCH  24  25
HETATM   25  C22 UNL     1      46.830  14.315   3.482  1.00  0.00     0.078 C 
BRANCH  25  26
HETATM   26  C23 UNL     1      46.936  12.806   3.386  1.00  0.00     0.159 C 
HETATM   27 CL1  UNL     1      47.904  12.308   1.987  1.00  0.00    -0.125 Cl
ENDBRANCH  25  26
ENDBRANCH  24  25
BRANCH  24  28
HETATM   28  C24 UNL     1      45.109  15.936   3.898  1.00  0.00     0.226 C 
BRANCH  28  29
HETATM   29  C25 UNL     1      45.455  17.284   3.468  1.00  0.00     0.249 C 
HETATM   30  N2  UNL     1      46.606  17.912   3.997  1.00  0.00    -0.061 NA
HETATM   31  O4  UNL     1      44.774  17.931   2.638  1.00  0.00    -0.275 OA
ENDBRANCH  28  29
ENDBRANCH  24  28
ENDBRANCH  23  24
ENDBRANCH  21  23
ENDBRANCH  13  21
BRANCH  10  32
HETATM   32  C13 UNL     1      46.813   9.254   0.042  1.00  0.00     0.058 C 
HETATM   33  C14 UNL     1      46.013   8.022  -0.233  1.00  0.00     0.046 C 
HETATM   34  C15 UNL     1      47.159   9.159   1.518  1.00  0.00     0.046 C 
BRANCH  32  35
HETATM   35  O3  UNL     1      48.098   9.088  -0.538  1.00  0.00    -0.390 OA
ATOM     36  H3  UNL     1      48.046   8.960  -1.477  1.00  0.00     0.210 HD
ENDBRANCH  32  35
ENDBRANCH  10  32
BRANCH   1  37
HETATM   37  O2  UNL     1      41.431   7.102  -4.383  1.00  0.00    -0.312 OA
BRANCH  37  38
HETATM   38  C2  UNL     1      40.417   6.703  -5.238  1.00  0.00     0.255 C 
HETATM   39  C1  UNL     1      40.594   6.335  -6.646  1.00  0.00     0.126 C 
HETATM   40  O1  UNL     1      39.255   6.657  -4.746  1.00  0.00    -0.266 OA
ENDBRANCH  37  38
ENDBRANCH   1  37
TORSDOF 11
ENDMDL
MODEL 4
REMARK VINA RESULT: -6.216449587      4.348      9.535
REMARK  11 active torsions:
REMARK  status: ('A' for Active; 'I' for Inactive)
REMARK    1  A    between atoms: C2_2  and  O2_4 
REMARK    2  A    between atoms: O2_4  and  C3_5 
REMARK    3  A    between atoms: C12_14  and  C13_15 
REMARK    4  A    between atoms: C13_15  and  O3_18 
REMARK    5  A    between atoms: C18_22  and  C19_23 
REMARK    6  A    between atoms: C19_23  and  C21_25 
REMARK    7  A    between atoms: C21_25  and  N1_26 
REMARK    8  A    between atoms: N1_26  and  C22_27 
REMARK    9  A    between atoms: N1_26  and  C24_30 
REMARK   10  A    between atoms: C22_27  and  C23_28 
REMARK   11  A    between atoms: C24_30  and  C25_31 
ROOT
HETATM    1  C3  UNL     1      44.949  13.911   1.655  1.00  0.00     0.154 C 
HETATM    2  C4  UNL     1      44.446  12.506   1.823  1.00  0.00     0.002 C 
HETATM    3  C5  UNL     1      44.737  11.573   0.931  1.00  0.00    -0.018 C 
HETATM    4  C6  UNL     1      45.575  11.987  -0.223  1.00  0.00    -0.018 C 
HETATM    5  C7  UNL     1      46.998  12.348   0.224  1.00  0.00     0.020 C 
HETATM    6  C8  UNL     1      44.880  13.213  -0.766  1.00  0.00     0.004 C 
HETATM    7  C9  UNL     1      45.438  13.702  -2.047  1.00  0.00     0.033 C 
HETATM    8  C10 UNL     1      45.347  12.881  -3.247  1.00  0.00    -0.023 C 
HETATM    9  C11 UNL     1      44.466  11.713  -3.369  1.00  0.00    -0.071 C 
HETATM   10  C12 UNL     1      43.126  11.776  -3.978  1.00  0.00     0.048 C 
HETATM   11  C16 UNL     1      42.056  11.050  -3.177  1.00  0.00     0.012 C 
HETATM   12  C17 UNL     1      42.217   9.578  -3.033  1.00  0.00     0.007 C 
HETATM   13  C18 UNL     1      43.496   8.995  -3.450  1.00  0.00     0.003 C 
HETATM   14  C26 UNL     1      44.655   9.327  -2.607  1.00  0.00    -0.032 C 
HETATM   15  C27 UNL     1      45.921   9.104  -3.426  1.00  0.00     0.016 C 
HETATM   16  C28 UNL     1      44.760   8.701  -1.259  1.00  0.00     0.011 C 
HETATM   17  C29 UNL     1      45.888   9.553  -0.670  1.00  0.00     0.007 C 
HETATM   18  C30 UNL     1      45.713  10.924  -1.289  1.00  0.00     0.007 C 
HETATM   19  C31 UNL     1      44.523  10.807  -2.188  1.00  0.00     0.028 C 
HETATM   20  C32 UNL     1      44.933  14.331   0.216  1.00  0.00     0.042 C 
ENDROOT
BRANCH  13  21
HETATM   21  C19 UNL     1      43.395   7.528  -3.888  1.00  0.00     0.025 C 
HETATM   22  C20 UNL     1      42.530   6.719  -3.028  1.00  0.00     0.016 C 
BRANCH  21  23
HETATM   23  C21 UNL     1      43.078   7.491  -5.343  1.00  0.00     0.068 C 
BRANCH  23  24
HETATM   24  N1  UNL     1      44.067   7.671  -6.297  1.00  0.00    -0.364 N 
BRANCH  24  25
HETATM   25  C22 UNL     1      44.005   8.506  -7.395  1.00  0.00     0.078 C 
BRANCH  25  26
HETATM   26  C23 UNL     1      43.839   9.983  -7.098  1.00  0.00     0.159 C 
HETATM   27 CL1  UNL     1      45.381  10.737  -6.654  1.00  0.00    -0.125 Cl
ENDBRANCH  25  26
ENDBRANCH  24  25
BRANCH  24  28
HETATM   28  C24 UNL     1      45.165   6.739  -6.256  1.00  0.00     0.226 C 
BRANCH  28  29
HETATM   29  C25 UNL     1      45.254   5.810  -7.375  1.00  0.00     0.249 C 
HETATM   30  N2  UNL     1      44.252   4.829  -7.551  1.00  0.00    -0.061 NA
HETATM   31  O4  UNL     1      46.192   5.835  -8.208  1.00  0.00    -0.275 OA
ENDBRANCH  28  29
ENDBRANCH  24  28
ENDBRANCH  23  24
ENDBRANCH  21  23
ENDBRANCH  13  21
BRANCH  10  32
HETATM   32  C13 UNL     1      42.498  13.046  -4.427  1.00  0.00     0.058 C 
HETATM   33  C14 UNL     1      42.080  14.036  -3.389  1.00  0.00     0.046 C 
HETATM   34  C15 UNL     1      41.241  12.796  -5.241  1.00  0.00     0.046 C 
BRANCH  32  35
HETATM   35  O3  UNL     1      43.299  13.719  -5.386  1.00  0.00    -0.390 OA
ATOM     36  H3  UNL     1      42.864  13.778  -6.228  1.00  0.00     0.210 HD
ENDBRANCH  32  35
ENDBRANCH  10  32
BRANCH   1  37
HETATM   37  O2  UNL     1      44.200  14.831   2.435  1.00  0.00    -0.312 OA
BRANCH  37  38
HETATM   38  C2  UNL     1      44.790  15.836   3.185  1.00  0.00     0.255 C 
HETATM   39  C1  UNL     1      45.415  17.043   2.638  1.00  0.00     0.126 C 
HETATM   40  O1  UNL     1      44.775  15.681   4.438  1.00  0.00    -0.266 OA
ENDBRANCH  37  38
ENDBRANCH   1  37
TORSDOF 11
ENDMDL
MODEL 5
REMARK VINA RESULT: -6.200124580      7.194      9.110
REMARK  11 active torsions:
REMARK  status: ('A' for Active; 'I' for Inactive)
REMARK    1  A    between atoms: C2_2  and  O2_4 
REMARK    2  A    between atoms: O2_4  and  C3_5 
REMARK    3  A    between atoms: C12_14  and  C13_15 
REMARK    4  A    between atoms: C13_15  and  O3_18 
REMARK    5  A    between atoms: C18_22  and  C19_23 
REMARK    6  A    between atoms: C19_23  and  C21_25 
REMARK    7  A    between atoms: C21_25  and  N1_26 
REMARK    8  A    between atoms: N1_26  and  C22_27 
REMARK    9  A    between atoms: N1_26  and  C24_30 
REMARK   10  A    between atoms: C22_27  and  C23_28 
REMARK   11  A    between atoms: C24_30  and  C25_31 
ROOT
HETATM    1  C3  UNL     1      46.663   9.811  -0.521  1.00  0.00     0.154 C 
HETATM    2  C4  UNL     1      46.151   8.606   0.216  1.00  0.00     0.002 C 
HETATM    3  C5  UNL     1      46.832   8.094   1.227  1.00  0.00    -0.018 C 
HETATM    4  C6  UNL     1      48.107   8.766   1.587  1.00  0.00    -0.018 C 
HETATM    5  C7  UNL     1      47.855  10.171   2.150  1.00  0.00     0.020 C 
HETATM    6  C8  UNL     1      48.857   8.863   0.279  1.00  0.00     0.004 C 
HETATM    7  C9  UNL     1      50.251   9.340   0.421  1.00  0.00     0.033 C 
HETATM    8  C10 UNL     1      51.229   8.540   1.145  1.00  0.00    -0.023 C 
HETATM    9  C11 UNL     1      51.025   7.130   1.499  1.00  0.00    -0.071 C 
HETATM   10  C12 UNL     1      51.536   6.014   0.684  1.00  0.00     0.048 C 
HETATM   11  C16 UNL     1      50.517   4.904   0.463  1.00  0.00     0.012 C 
HETATM   12  C17 UNL     1      50.062   4.168   1.673  1.00  0.00     0.007 C 
HETATM   13  C18 UNL     1      50.431   4.723   2.979  1.00  0.00     0.003 C 
HETATM   14  C26 UNL     1      49.769   5.984   3.348  1.00  0.00    -0.032 C 
HETATM   15  C27 UNL     1      50.607   6.668   4.422  1.00  0.00     0.016 C 
HETATM   16  C28 UNL     1      48.327   5.950   3.721  1.00  0.00     0.011 C 
HETATM   17  C29 UNL     1      48.024   7.451   3.704  1.00  0.00     0.007 C 
HETATM   18  C30 UNL     1      48.917   8.023   2.623  1.00  0.00     0.007 C 
HETATM   19  C31 UNL     1      49.681   6.858   2.078  1.00  0.00     0.028 C 
HETATM   20  C32 UNL     1      48.154   9.772  -0.669  1.00  0.00     0.042 C 
ENDROOT
BRANCH  13  21
HETATM   21  C19 UNL     1      50.524   3.674   4.095  1.00  0.00     0.025 C 
HETATM   22  C20 UNL     1      49.443   2.688   4.061  1.00  0.00     0.016 C 
BRANCH  21  23
HETATM   23  C21 UNL     1      51.907   3.118   4.104  1.00  0.00     0.068 C 
BRANCH  23  24
HETATM   24  N1  UNL     1      52.852   3.562   5.016  1.00  0.00    -0.364 N 
BRANCH  24  25
HETATM   25  C22 UNL     1      53.891   4.435   4.761  1.00  0.00     0.078 C 
BRANCH  25  26
HETATM   26  C23 UNL     1      54.874   4.002   3.691  1.00  0.00     0.159 C 
HETATM   27 CL1  UNL     1      54.483   4.719   2.117  1.00  0.00    -0.125 Cl
ENDBRANCH  25  26
ENDBRANCH  24  25
BRANCH  24  28
HETATM   28  C24 UNL     1      52.879   2.880   6.285  1.00  0.00     0.226 C 
BRANCH  28  29
HETATM   29  C25 UNL     1      51.881   3.305   7.258  1.00  0.00     0.249 C 
HETATM   30  N2  UNL     1      52.041   4.538   7.930  1.00  0.00    -0.061 NA
HETATM   31  O4  UNL     1      50.867   2.622   7.537  1.00  0.00    -0.275 OA
ENDBRANCH  28  29
ENDBRANCH  24  28
ENDBRANCH  23  24
ENDBRANCH  21  23
ENDBRANCH  13  21
BRANCH  10  32
HETATM   32  C13 UNL     1      52.208   6.208  -0.627  1.00  0.00     0.058 C 
HETATM   33  C14 UNL     1      51.390   6.695  -1.778  1.00  0.00     0.046 C 
HETATM   34  C15 UNL     1      52.843   4.923  -1.130  1.00  0.00     0.046 C 
BRANCH  32  35
HETATM   35  O3  UNL     1      53.354   7.037  -0.512  1.00  0.00    -0.390 OA
ATOM     36  H3  UNL     1      54.137   6.532  -0.328  1.00  0.00     0.210 HD
ENDBRANCH  32  35
ENDBRANCH  10  32
BRANCH   1  37
HETATM   37  O2  UNL     1      46.054   9.940  -1.798  1.00  0.00    -0.312 OA
BRANCH  37  38
HETATM   38  C2  UNL     1      44.923  10.709  -2.017  1.00  0.00     0.255 C 
HETATM   39  C1  UNL     1      44.492  11.836  -1.185  1.00  0.00     0.126 C 
HETATM   40  O1  UNL     1      44.221  10.400  -3.020  1.00  0.00    -0.266 OA
ENDBRANCH  37  38
ENDBRANCH   1  37
TORSDOF 11
ENDMDL
