MODEL 1
REMARK VINA RESULT: -8.519938021      0.000      0.000
REMARK  12 active torsions:
REMARK  status: ('A' for Active; 'I' for Inactive)
REMARK    1  A    between atoms: C3_3  and  C4_4 
REMARK    2  A    between atoms: C4_4  and  C5_5 
REMARK    3  A    between atoms: C5_5  and  C6_6 
REMARK    4  A    between atoms: C6_6  and  C7_7 
REMARK    5  A    between atoms: C8_8  and  C9_9 
REMARK    6  A    between atoms: C9_9  and  C10_10 
REMARK    7  A    between atoms: C10_10  and  C11_11 
REMARK    8  A    between atoms: C11_11  and  N1_12 
REMARK    9  A    between atoms: C15_16  and  C16_17 
REMARK   10  A    between atoms: C16_17  and  O1_18 
REMARK   11  A    between atoms: N2_20  and  N3_22 
REMARK   12  A    between atoms: C21_32  and  O2_33 
ROOT
HETATM    1  C7  UNL     1      18.478  -9.639  11.285  1.00  0.00    -0.107 C 
HETATM    2  C8  UNL     1      17.918  -8.810  11.956  1.00  0.00    -0.107 C 
ENDROOT
BRANCH   1   3
HETATM    3  C6  UNL     1      19.149 -10.683  10.453  1.00  0.00     0.094 C 
BRANCH   3   4
HETATM    4  C5  UNL     1      18.807 -12.003  11.044  1.00  0.00     0.017 C 
BRANCH   4   5
HETATM    5  C4  UNL     1      17.600 -12.693  10.562  1.00  0.00     0.041 C 
BRANCH   5   6
HETATM    6  C3  UNL     1      17.758 -13.924   9.795  1.00  0.00    -0.033 C 
HETATM    7  C2  UNL     1      16.693 -14.307   9.111  1.00  0.00    -0.011 C 
HETATM    8  C1  UNL     1      15.521 -13.445   9.221  1.00  0.00     0.052 C 
HETATM    9  C22 UNL     1      16.556 -15.509   8.253  1.00  0.00     0.106 C 
HETATM   10  N6  UNL     1      17.362 -16.682   8.254  1.00  0.00    -0.327 N 
HETATM   11  N7  UNL     1      15.584 -15.474   7.410  1.00  0.00    -0.385 N 
HETATM   12  C20 UNL     1      18.605 -16.848   8.923  1.00  0.00     0.130 C 
ATOM     13  H6  UNL     1      17.014 -17.480   7.723  1.00  0.00     0.169 HD
HETATM   14  N5  UNL     1      19.425 -15.799   9.471  1.00  0.00    -0.345 N 
HETATM   15  C21 UNL     1      19.045 -18.084   9.051  1.00  0.00     0.179 C 
HETATM   16  C18 UNL     1      19.054 -14.614   9.816  1.00  0.00     0.100 C 
HETATM   17  C19 UNL     1      20.825 -16.142   9.637  1.00  0.00     0.157 C 
ATOM     18  H72 UNL     1      15.006 -14.633   7.410  1.00  0.00     0.157 HD
ATOM     19  H71 UNL     1      15.490 -16.300   6.820  1.00  0.00     0.157 HD
BRANCH  15  20
HETATM   20  O2  UNL     1      18.315 -19.150   8.551  1.00  0.00    -0.369 OA
ATOM     21  H2  UNL     1      18.754 -19.910   8.187  1.00  0.00     0.216 HD
ENDBRANCH  15  20
ENDBRANCH   5   6
ENDBRANCH   4   5
ENDBRANCH   3   4
ENDBRANCH   1   3
BRANCH   2  22
HETATM   22  C9  UNL     1      17.207  -7.804  12.778  1.00  0.00     0.095 C 
BRANCH  22  23
HETATM   23  C10 UNL     1      16.909  -6.568  11.978  1.00  0.00     0.032 C 
BRANCH  23  24
HETATM   24  C11 UNL     1      18.121  -5.931  11.380  1.00  0.00     0.128 C 
BRANCH  24  25
HETATM   25  N1  UNL     1      17.773  -4.917  10.435  1.00  0.00    -0.365 N 
HETATM   26  C12 UNL     1      16.748  -4.087  10.697  1.00  0.00     0.090 A 
HETATM   27  C13 UNL     1      16.424  -3.120   9.769  1.00  0.00     0.018 A 
HETATM   28  C14 UNL     1      17.114  -2.982   8.594  1.00  0.00     0.018 A 
HETATM   29  C15 UNL     1      18.152  -3.825   8.334  1.00  0.00     0.032 A 
HETATM   30  C17 UNL     1      18.452  -4.785   9.285  1.00  0.00     0.106 A 
BRANCH  29  31
HETATM   31  C16 UNL     1      18.944  -3.750   7.104  1.00  0.00     0.167 C 
HETATM   32  N2  UNL     1      20.014  -4.446   7.011  1.00  0.00    -0.265 N 
ATOM     33  H2  UNL     1      20.297  -5.040   7.790  1.00  0.00     0.190 HD
BRANCH  31  34
HETATM   34  O1  UNL     1      18.541  -2.941   6.065  1.00  0.00    -0.344 OA
ATOM     35  H1  UNL     1      19.175  -2.412   5.595  1.00  0.00     0.219 HD
ENDBRANCH  31  34
BRANCH  32  36
HETATM   36  N3  UNL     1      20.798  -4.404   5.855  1.00  0.00    -0.247 N 
HETATM   37  N4  UNL     1      21.770  -5.193   5.652  1.00  0.00    -0.331 N 
ATOM     38  H42 UNL     1      21.975  -5.883   6.374  1.00  0.00     0.178 HD
ATOM     39  H41 UNL     1      22.342  -5.162   4.809  1.00  0.00     0.178 HD
ATOM     40  H3  UNL     1      20.580  -3.708   5.143  1.00  0.00     0.207 HD
ENDBRANCH  32  36
ENDBRANCH  29  31
ENDBRANCH  24  25
ENDBRANCH  23  24
ENDBRANCH  22  23
ENDBRANCH   2  22
TORSDOF 12
ENDMDL
MODEL 2
REMARK VINA RESULT: -8.454691982      1.744      2.400
REMARK  12 active torsions:
REMARK  status: ('A' for Active; 'I' for Inactive)
REMARK    1  A    between atoms: C3_3  and  C4_4 
REMARK    2  A    between atoms: C4_4  and  C5_5 
REMARK    3  A    between atoms: C5_5  and  C6_6 
REMARK    4  A    between atoms: C6_6  and  C7_7 
REMARK    5  A    between atoms: C8_8  and  C9_9 
REMARK    6  A    between atoms: C9_9  and  C10_10 
REMARK    7  A    between atoms: C10_10  and  C11_11 
REMARK    8  A    between atoms: C11_11  and  N1_12 
REMARK    9  A    between atoms: C15_16  and  C16_17 
REMARK   10  A    between atoms: C16_17  and  O1_18 
REMARK   11  A    between atoms: N2_20  and  N3_22 
REMARK   12  A    between atoms: C21_32  and  O2_33 
ROOT
HETATM    1  C7  UNL     1      16.718  -9.523  13.668  1.00  0.00    -0.107 C 
HETATM    2  C8  UNL     1      16.915  -8.337  13.591  1.00  0.00    -0.107 C 
ENDROOT
BRANCH   1   3
HETATM    3  C6  UNL     1      16.499 -10.998  13.766  1.00  0.00     0.094 C 
BRANCH   3   4
HETATM    4  C5  UNL     1      17.463 -11.647  12.839  1.00  0.00     0.017 C 
BRANCH   4   5
HETATM    5  C4  UNL     1      17.269 -11.467  11.391  1.00  0.00     0.041 C 
BRANCH   5   6
HETATM    6  C3  UNL     1      18.134 -12.200  10.474  1.00  0.00    -0.033 C 
HETATM    7  C2  UNL     1      17.577 -13.240   9.876  1.00  0.00    -0.011 C 
HETATM    8  C1  UNL     1      16.183 -13.500  10.220  1.00  0.00     0.052 C 
HETATM    9  C22 UNL     1      18.207 -14.168   8.906  1.00  0.00     0.106 C 
HETATM   10  N6  UNL     1      19.594 -14.387   8.678  1.00  0.00    -0.327 N 
HETATM   11  N7  UNL     1      17.386 -14.854   8.190  1.00  0.00    -0.385 N 
HETATM   12  C20 UNL     1      20.664 -13.595   9.176  1.00  0.00     0.130 C 
ATOM     13  H6  UNL     1      19.845 -15.190   8.101  1.00  0.00     0.169 HD
HETATM   14  N5  UNL     1      20.556 -12.276   9.744  1.00  0.00    -0.345 N 
HETATM   15  C21 UNL     1      21.870 -14.123   9.107  1.00  0.00     0.179 C 
HETATM   16  C18 UNL     1      19.510 -11.731  10.265  1.00  0.00     0.100 C 
HETATM   17  C19 UNL     1      21.777 -11.493   9.707  1.00  0.00     0.157 C 
ATOM     18  H72 UNL     1      16.391 -14.697   8.354  1.00  0.00     0.157 HD
ATOM     19  H71 UNL     1      17.819 -15.492   7.523  1.00  0.00     0.157 HD
BRANCH  15  20
HETATM   20  O2  UNL     1      22.060 -15.386   8.575  1.00  0.00    -0.369 OA
ATOM     21  H2  UNL     1      22.635 -15.518   7.830  1.00  0.00     0.216 HD
ENDBRANCH  15  20
ENDBRANCH   5   6
ENDBRANCH   4   5
ENDBRANCH   3   4
ENDBRANCH   1   3
BRANCH   2  22
HETATM   22  C9  UNL     1      17.184  -6.884  13.502  1.00  0.00     0.095 C 
BRANCH  22  23
HETATM   23  C10 UNL     1      16.856  -6.357  12.134  1.00  0.00     0.032 C 
BRANCH  23  24
HETATM   24  C11 UNL     1      18.055  -5.926  11.353  1.00  0.00     0.128 C 
BRANCH  24  25
HETATM   25  N1  UNL     1      17.730  -4.902  10.411  1.00  0.00    -0.365 N 
HETATM   26  C12 UNL     1      16.722  -4.051  10.673  1.00  0.00     0.090 A 
HETATM   27  C13 UNL     1      16.421  -3.074   9.749  1.00  0.00     0.018 A 
HETATM   28  C14 UNL     1      17.117  -2.945   8.576  1.00  0.00     0.018 A 
HETATM   29  C15 UNL     1      18.138  -3.808   8.315  1.00  0.00     0.032 A 
HETATM   30  C17 UNL     1      18.415  -4.778   9.263  1.00  0.00     0.106 A 
BRANCH  29  31
HETATM   31  C16 UNL     1      18.936  -3.744   7.088  1.00  0.00     0.167 C 
HETATM   32  N2  UNL     1      20.006  -4.439   7.007  1.00  0.00    -0.265 N 
ATOM     33  H2  UNL     1      20.288  -5.025   7.793  1.00  0.00     0.190 HD
BRANCH  31  34
HETATM   34  O1  UNL     1      18.536  -2.946   6.040  1.00  0.00    -0.344 OA
ATOM     35  H1  UNL     1      17.821  -3.217   5.475  1.00  0.00     0.219 HD
ENDBRANCH  31  34
BRANCH  32  36
HETATM   36  N3  UNL     1      20.796  -4.408   5.854  1.00  0.00    -0.247 N 
HETATM   37  N4  UNL     1      21.778  -5.188   5.669  1.00  0.00    -0.331 N 
ATOM     38  H42 UNL     1      21.988  -5.863   6.404  1.00  0.00     0.178 HD
ATOM     39  H41 UNL     1      22.354  -5.165   4.828  1.00  0.00     0.178 HD
ATOM     40  H3  UNL     1      20.572  -3.727   5.129  1.00  0.00     0.207 HD
ENDBRANCH  32  36
ENDBRANCH  29  31
ENDBRANCH  24  25
ENDBRANCH  23  24
ENDBRANCH  22  23
ENDBRANCH   2  22
TORSDOF 12
ENDMDL
MODEL 3
REMARK VINA RESULT: -8.367958491      1.146      1.396
REMARK  12 active torsions:
REMARK  status: ('A' for Active; 'I' for Inactive)
REMARK    1  A    between atoms: C3_3  and  C4_4 
REMARK    2  A    between atoms: C4_4  and  C5_5 
REMARK    3  A    between atoms: C5_5  and  C6_6 
REMARK    4  A    between atoms: C6_6  and  C7_7 
REMARK    5  A    between atoms: C8_8  and  C9_9 
REMARK    6  A    between atoms: C9_9  and  C10_10 
REMARK    7  A    between atoms: C10_10  and  C11_11 
REMARK    8  A    between atoms: C11_11  and  N1_12 
REMARK    9  A    between atoms: C15_16  and  C16_17 
REMARK   10  A    between atoms: C16_17  and  O1_18 
REMARK   11  A    between atoms: N2_20  and  N3_22 
REMARK   12  A    between atoms: C21_32  and  O2_33 
ROOT
HETATM    1  C7  UNL     1      18.557 -10.567  11.020  1.00  0.00    -0.107 C 
HETATM    2  C8  UNL     1      17.809 -10.042  11.805  1.00  0.00    -0.107 C 
ENDROOT
BRANCH   1   3
HETATM    3  C6  UNL     1      19.503 -11.201  10.053  1.00  0.00     0.094 C 
BRANCH   3   4
HETATM    4  C5  UNL     1      19.564 -12.649  10.383  1.00  0.00     0.017 C 
BRANCH   4   5
HETATM    5  C4  UNL     1      18.298 -13.385  10.534  1.00  0.00     0.041 C 
BRANCH   5   6
HETATM    6  C3  UNL     1      18.071 -14.562   9.703  1.00  0.00    -0.033 C 
HETATM    7  C2  UNL     1      16.902 -14.605   9.087  1.00  0.00    -0.011 C 
HETATM    8  C1  UNL     1      16.014 -13.473   9.326  1.00  0.00     0.052 C 
HETATM    9  C22 UNL     1      16.394 -15.672   8.190  1.00  0.00     0.106 C 
HETATM   10  N6  UNL     1      16.853 -17.013   8.076  1.00  0.00    -0.327 N 
HETATM   11  N7  UNL     1      15.415 -15.327   7.427  1.00  0.00    -0.385 N 
HETATM   12  C20 UNL     1      18.046 -17.545   8.639  1.00  0.00     0.130 C 
ATOM     13  H6  UNL     1      16.271 -17.656   7.538  1.00  0.00     0.169 HD
HETATM   14  N5  UNL     1      19.150 -16.788   9.167  1.00  0.00    -0.345 N 
HETATM   15  C21 UNL     1      18.145 -18.859   8.677  1.00  0.00     0.179 C 
HETATM   16  C18 UNL     1      19.133 -15.571   9.593  1.00  0.00     0.100 C 
HETATM   17  C19 UNL     1      20.414 -17.499   9.209  1.00  0.00     0.157 C 
ATOM     18  H72 UNL     1      15.086 -14.365   7.509  1.00  0.00     0.157 HD
ATOM     19  H71 UNL     1      15.066 -16.060   6.810  1.00  0.00     0.157 HD
BRANCH  15  20
HETATM   20  O2  UNL     1      17.126 -19.659   8.189  1.00  0.00    -0.369 OA
ATOM     21  H2  UNL     1      17.301 -20.319   7.528  1.00  0.00     0.216 HD
ENDBRANCH  15  20
ENDBRANCH   5   6
ENDBRANCH   4   5
ENDBRANCH   3   4
ENDBRANCH   1   3
BRANCH   2  22
HETATM   22  C9  UNL     1      16.910  -9.380  12.778  1.00  0.00     0.095 C 
BRANCH  22  23
HETATM   23  C10 UNL     1      16.598  -7.974  12.353  1.00  0.00     0.032 C 
BRANCH  23  24
HETATM   24  C11 UNL     1      17.809  -7.164  12.018  1.00  0.00     0.128 C 
BRANCH  24  25
HETATM   25  N1  UNL     1      17.459  -5.854  11.566  1.00  0.00    -0.365 N 
HETATM   26  C12 UNL     1      16.601  -5.108  12.284  1.00  0.00     0.090 A 
HETATM   27  C13 UNL     1      16.271  -3.850  11.827  1.00  0.00     0.018 A 
HETATM   28  C14 UNL     1      16.791  -3.341  10.667  1.00  0.00     0.018 A 
HETATM   29  C15 UNL     1      17.660  -4.099   9.942  1.00  0.00     0.032 A 
HETATM   30  C17 UNL     1      17.970  -5.358  10.428  1.00  0.00     0.106 A 
BRANCH  29  31
HETATM   31  C16 UNL     1      18.264  -3.635   8.691  1.00  0.00     0.167 C 
HETATM   32  N2  UNL     1      19.413  -4.084   8.353  1.00  0.00    -0.265 N 
ATOM     33  H2  UNL     1      19.890  -4.754   8.956  1.00  0.00     0.190 HD
BRANCH  31  34
HETATM   34  O1  UNL     1      17.602  -2.730   7.893  1.00  0.00    -0.344 OA
ATOM     35  H1  UNL     1      18.076  -2.020   7.476  1.00  0.00     0.219 HD
ENDBRANCH  31  34
BRANCH  32  36
HETATM   36  N3  UNL     1      20.025  -3.668   7.167  1.00  0.00    -0.247 N 
HETATM   37  N4  UNL     1      19.655  -4.069   6.022  1.00  0.00    -0.331 N 
ATOM     38  H42 UNL     1      18.875  -4.725   5.983  1.00  0.00     0.178 HD
ATOM     39  H41 UNL     1      20.101  -3.765   5.157  1.00  0.00     0.178 HD
ATOM     40  H3  UNL     1      20.803  -3.011   7.225  1.00  0.00     0.207 HD
ENDBRANCH  32  36
ENDBRANCH  29  31
ENDBRANCH  24  25
ENDBRANCH  23  24
ENDBRANCH  22  23
ENDBRANCH   2  22
TORSDOF 12
ENDMDL
MODEL 4
REMARK VINA RESULT: -8.196577227      2.669     11.938
REMARK  12 active torsions:
REMARK  status: ('A' for Active; 'I' for Inactive)
REMARK    1  A    between atoms: C3_3  and  C4_4 
REMARK    2  A    between atoms: C4_4  and  C5_5 
REMARK    3  A    between atoms: C5_5  and  C6_6 
REMARK    4  A    between atoms: C6_6  and  C7_7 
REMARK    5  A    between atoms: C8_8  and  C9_9 
REMARK    6  A    between atoms: C9_9  and  C10_10 
REMARK    7  A    between atoms: C10_10  and  C11_11 
REMARK    8  A    between atoms: C11_11  and  N1_12 
REMARK    9  A    between atoms: C15_16  and  C16_17 
REMARK   10  A    between atoms: C16_17  and  O1_18 
REMARK   11  A    between atoms: N2_20  and  N3_22 
REMARK   12  A    between atoms: C21_32  and  O2_33 
ROOT
HETATM    1  C7  UNL     1      17.883 -11.689  10.754  1.00  0.00    -0.107 C 
HETATM    2  C8  UNL     1      17.063 -12.426  10.268  1.00  0.00    -0.107 C 
ENDROOT
BRANCH   1   3
HETATM    3  C6  UNL     1      18.919 -10.791  11.348  1.00  0.00     0.094 C 
BRANCH   3   4
HETATM    4  C5  UNL     1      18.444  -9.394  11.170  1.00  0.00     0.017 C 
BRANCH   4   5
HETATM    5  C4  UNL     1      17.585  -8.809  12.212  1.00  0.00     0.041 C 
BRANCH   5   6
HETATM    6  C3  UNL     1      17.384  -7.364  12.222  1.00  0.00    -0.033 C 
HETATM    7  C2  UNL     1      16.637  -6.903  13.211  1.00  0.00    -0.011 C 
HETATM    8  C1  UNL     1      16.126  -7.901  14.144  1.00  0.00     0.052 C 
HETATM    9  C22 UNL     1      16.260  -5.492  13.474  1.00  0.00     0.106 C 
HETATM   10  N6  UNL     1      16.289  -4.395  12.569  1.00  0.00    -0.327 N 
HETATM   11  N7  UNL     1      15.856  -5.246  14.672  1.00  0.00    -0.385 N 
HETATM   12  C20 UNL     1      16.902  -4.378  11.286  1.00  0.00     0.130 C 
ATOM     13  H6  UNL     1      15.825  -3.538  12.869  1.00  0.00     0.169 HD
HETATM   14  N5  UNL     1      17.850  -5.337  10.782  1.00  0.00    -0.345 N 
HETATM   15  C21 UNL     1      16.568  -3.385  10.487  1.00  0.00     0.179 C 
HETATM   16  C18 UNL     1      18.027  -6.549  11.184  1.00  0.00     0.100 C 
HETATM   17  C19 UNL     1      18.691  -4.855   9.703  1.00  0.00     0.157 C 
ATOM     18  H72 UNL     1      15.835  -6.034  15.320  1.00  0.00     0.157 HD
ATOM     19  H71 UNL     1      15.597  -4.277  14.852  1.00  0.00     0.157 HD
BRANCH  15  20
HETATM   20  O2  UNL     1      15.663  -2.420  10.896  1.00  0.00    -0.369 OA
ATOM     21  H2  UNL     1      15.753  -1.518  10.611  1.00  0.00     0.216 HD
ENDBRANCH  15  20
ENDBRANCH   5   6
ENDBRANCH   4   5
ENDBRANCH   3   4
ENDBRANCH   1   3
BRANCH   2  22
HETATM   22  C9  UNL     1      16.076 -13.347   9.661  1.00  0.00     0.095 C 
BRANCH  22  23
HETATM   23  C10 UNL     1      16.760 -14.433   8.881  1.00  0.00     0.032 C 
BRANCH  23  24
HETATM   24  C11 UNL     1      17.221 -15.579   9.722  1.00  0.00     0.128 C 
BRANCH  24  25
HETATM   25  N1  UNL     1      17.177 -16.812   9.002  1.00  0.00    -0.365 N 
HETATM   26  C12 UNL     1      18.209 -17.670   9.087  1.00  0.00     0.090 A 
HETATM   27  C13 UNL     1      18.150 -18.852   8.380  1.00  0.00     0.018 A 
HETATM   28  C14 UNL     1      17.073 -19.176   7.597  1.00  0.00     0.018 A 
HETATM   29  C15 UNL     1      16.030 -18.304   7.514  1.00  0.00     0.032 A 
HETATM   30  C17 UNL     1      16.120 -17.126   8.235  1.00  0.00     0.106 A 
BRANCH  29  31
HETATM   31  C16 UNL     1      14.839 -18.568   6.701  1.00  0.00     0.167 C 
HETATM   32  N2  UNL     1      14.659 -19.743   6.229  1.00  0.00    -0.265 N 
ATOM     33  H2  UNL     1      15.342 -20.474   6.423  1.00  0.00     0.190 HD
BRANCH  31  34
HETATM   34  O1  UNL     1      13.931 -17.564   6.452  1.00  0.00    -0.344 OA
ATOM     35  H1  UNL     1      13.000 -17.751   6.442  1.00  0.00     0.219 HD
ENDBRANCH  31  34
BRANCH  32  36
HETATM   36  N3  UNL     1      13.537 -20.037   5.449  1.00  0.00    -0.247 N 
HETATM   37  N4  UNL     1      13.392 -19.617   4.261  1.00  0.00    -0.331 N 
ATOM     38  H42 UNL     1      14.138 -19.040   3.873  1.00  0.00     0.178 HD
ATOM     39  H41 UNL     1      12.574 -19.833   3.693  1.00  0.00     0.178 HD
ATOM     40  H3  UNL     1      12.801 -20.616   5.854  1.00  0.00     0.207 HD
ENDBRANCH  32  36
ENDBRANCH  29  31
ENDBRANCH  24  25
ENDBRANCH  23  24
ENDBRANCH  22  23
ENDBRANCH   2  22
TORSDOF 12
ENDMDL
MODEL 5
REMARK VINA RESULT: -8.095814460      1.574      2.072
REMARK  12 active torsions:
REMARK  status: ('A' for Active; 'I' for Inactive)
REMARK    1  A    between atoms: C3_3  and  C4_4 
REMARK    2  A    between atoms: C4_4  and  C5_5 
REMARK    3  A    between atoms: C5_5  and  C6_6 
REMARK    4  A    between atoms: C6_6  and  C7_7 
REMARK    5  A    between atoms: C8_8  and  C9_9 
REMARK    6  A    between atoms: C9_9  and  C10_10 
REMARK    7  A    between atoms: C10_10  and  C11_11 
REMARK    8  A    between atoms: C11_11  and  N1_12 
REMARK    9  A    between atoms: C15_16  and  C16_17 
REMARK   10  A    between atoms: C16_17  and  O1_18 
REMARK   11  A    between atoms: N2_20  and  N3_22 
REMARK   12  A    between atoms: C21_32  and  O2_33 
ROOT
HETATM    1  C7  UNL     1      16.550 -11.047  13.444  1.00  0.00    -0.107 C 
HETATM    2  C8  UNL     1      16.150  -9.976  13.822  1.00  0.00    -0.107 C 
ENDROOT
BRANCH   1   3
HETATM    3  C6  UNL     1      17.073 -12.369  12.982  1.00  0.00     0.094 C 
BRANCH   3   4
HETATM    4  C5  UNL     1      18.012 -12.102  11.861  1.00  0.00     0.017 C 
BRANCH   4   5
HETATM    5  C4  UNL     1      17.521 -12.269  10.484  1.00  0.00     0.041 C 
BRANCH   5   6
HETATM    6  C3  UNL     1      17.795 -13.524   9.792  1.00  0.00    -0.033 C 
HETATM    7  C2  UNL     1      16.764 -14.059   9.158  1.00  0.00    -0.011 C 
HETATM    8  C1  UNL     1      15.510 -13.318   9.243  1.00  0.00     0.052 C 
HETATM    9  C22 UNL     1      16.740 -15.322   8.381  1.00  0.00     0.106 C 
HETATM   10  N6  UNL     1      17.665 -16.402   8.435  1.00  0.00    -0.327 N 
HETATM   11  N7  UNL     1      15.755 -15.442   7.561  1.00  0.00    -0.385 N 
HETATM   12  C20 UNL     1      18.930 -16.395   9.084  1.00  0.00     0.130 C 
ATOM     13  H6  UNL     1      17.394 -17.264   7.964  1.00  0.00     0.169 HD
HETATM   14  N5  UNL     1      19.645 -15.233   9.546  1.00  0.00    -0.345 N 
HETATM   15  C21 UNL     1      19.499 -17.567   9.278  1.00  0.00     0.179 C 
HETATM   16  C18 UNL     1      19.157 -14.073   9.825  1.00  0.00     0.100 C 
HETATM   17  C19 UNL     1      21.075 -15.417   9.699  1.00  0.00     0.157 C 
ATOM     18  H72 UNL     1      15.092 -14.668   7.522  1.00  0.00     0.157 HD
ATOM     19  H71 UNL     1      15.739 -16.311   7.026  1.00  0.00     0.157 HD
BRANCH  15  20
HETATM   20  O2  UNL     1      18.878 -18.733   8.864  1.00  0.00    -0.369 OA
ATOM     21  H2  UNL     1      18.699 -19.434   9.481  1.00  0.00     0.216 HD
ENDBRANCH  15  20
ENDBRANCH   5   6
ENDBRANCH   4   5
ENDBRANCH   3   4
ENDBRANCH   1   3
BRANCH   2  22
HETATM   22  C9  UNL     1      15.682  -8.653  14.296  1.00  0.00     0.095 C 
BRANCH  22  23
HETATM   23  C10 UNL     1      15.618  -7.667  13.165  1.00  0.00     0.032 C 
BRANCH  23  24
HETATM   24  C11 UNL     1      16.953  -7.327  12.587  1.00  0.00     0.128 C 
BRANCH  24  25
HETATM   25  N1  UNL     1      16.980  -5.995  12.069  1.00  0.00    -0.365 N 
HETATM   26  C12 UNL     1      16.536  -4.977  12.827  1.00  0.00     0.090 A 
HETATM   27  C13 UNL     1      16.565  -3.701  12.307  1.00  0.00     0.018 A 
HETATM   28  C14 UNL     1      17.031  -3.442  11.045  1.00  0.00     0.018 A 
HETATM   29  C15 UNL     1      17.480  -4.477  10.281  1.00  0.00     0.032 A 
HETATM   30  C17 UNL     1      17.437  -5.746  10.832  1.00  0.00     0.106 A 
BRANCH  29  31
HETATM   31  C16 UNL     1      17.994  -4.292   8.922  1.00  0.00     0.167 C 
HETATM   32  N2  UNL     1      17.202  -3.871   8.010  1.00  0.00    -0.265 N 
ATOM     33  H2  UNL     1      16.229  -3.671   8.241  1.00  0.00     0.190 HD
BRANCH  31  34
HETATM   34  O1  UNL     1      19.312  -4.570   8.633  1.00  0.00    -0.344 OA
ATOM     35  H1  UNL     1      19.940  -3.864   8.535  1.00  0.00     0.219 HD
ENDBRANCH  31  34
BRANCH  32  36
HETATM   36  N3  UNL     1      17.652  -3.681   6.701  1.00  0.00    -0.247 N 
HETATM   37  N4  UNL     1      18.644  -2.945   6.412  1.00  0.00    -0.331 N 
ATOM     38  H42 UNL     1      19.123  -2.477   7.182  1.00  0.00     0.178 HD
ATOM     39  H41 UNL     1      18.972  -2.806   5.457  1.00  0.00     0.178 HD
ATOM     40  H3  UNL     1      17.162  -4.156   5.943  1.00  0.00     0.207 HD
ENDBRANCH  32  36
ENDBRANCH  29  31
ENDBRANCH  24  25
ENDBRANCH  23  24
ENDBRANCH  22  23
ENDBRANCH   2  22
TORSDOF 12
ENDMDL
