MODEL 1
REMARK VINA RESULT: -8.499536552      0.000      0.000
REMARK  7 active torsions:
REMARK  status: ('A' for Active; 'I' for Inactive)
REMARK    1  A    between atoms: C4_10  and  C5_11 
REMARK    2  A    between atoms: N4_14  and  C8_15 
REMARK    3  A    between atoms: C8_15  and  C9_16 
REMARK    4  A    between atoms: N6_21  and  C13_22 
REMARK    5  A    between atoms: C13_22  and  C14_23 
REMARK    6  A    between atoms: C14_23  and  C15_24 
REMARK    7  A    between atoms: C20_33  and  C21_34 
ROOT
HETATM    1  C5  UNL     1      17.869 -13.359  10.478  1.00  0.00    -0.017 A 
HETATM    2  C6  UNL     1      17.194 -12.929  11.594  1.00  0.00     0.029 A 
HETATM    3  C7  UNL     1      17.641 -11.850  12.310  1.00  0.00     0.092 A 
HETATM    4  N4  UNL     1      18.762 -11.164  11.954  1.00  0.00    -0.351 N 
HETATM    5  C20 UNL     1      19.414 -11.589  10.865  1.00  0.00     0.050 A 
HETATM    6  C22 UNL     1      18.990 -12.674  10.119  1.00  0.00     0.043 A 
ENDROOT
BRANCH   4   7
HETATM    7  C8  UNL     1      19.121 -10.089  12.814  1.00  0.00     0.170 C 
BRANCH   7   8
HETATM    8  C9  UNL     1      18.277  -8.906  12.805  1.00  0.00    -0.008 A 
HETATM    9  C10 UNL     1      17.289  -8.767  13.757  1.00  0.00     0.101 A 
HETATM   10  N5  UNL     1      16.526  -7.659  13.702  1.00  0.00    -0.356 N 
HETATM   11  C11 UNL     1      15.475  -7.506  14.710  1.00  0.00     0.156 C 
HETATM   12  C12 UNL     1      16.687  -6.704  12.771  1.00  0.00     0.189 A 
HETATM   13  N6  UNL     1      17.623  -6.797  11.839  1.00  0.00    -0.328 N 
HETATM   14  C19 UNL     1      18.413  -7.918  11.876  1.00  0.00     0.107 A 
BRANCH  13  15
HETATM   15  C13 UNL     1      17.860  -5.852  10.836  1.00  0.00     0.097 C 
BRANCH  15  16
HETATM   16  C14 UNL     1      16.971  -4.710  10.675  1.00  0.00     0.020 C 
BRANCH  16  17
HETATM   17  C15 UNL     1      17.195  -3.568   9.811  1.00  0.00     0.032 C 
HETATM   18  C16 UNL     1      17.914  -3.627   8.556  1.00  0.00     0.048 A 
HETATM   19  C17 UNL     1      19.305  -3.607   8.472  1.00  0.00     0.118 A 
HETATM   20  N8  UNL     1      17.504  -3.615   7.280  1.00  0.00    -0.351 N 
HETATM   21  N7  UNL     1      19.640  -3.585   7.179  1.00  0.00    -0.360 N 
HETATM   22  C18 UNL     1      18.531  -3.589   6.422  1.00  0.00     0.180 A 
ATOM     23  H7  UNL     1      20.596  -3.569   6.821  1.00  0.00     0.166 HD
ATOM     24  H8  UNL     1      16.524  -3.624   6.995  1.00  0.00     0.166 HD
ENDBRANCH  16  17
ENDBRANCH  15  16
ENDBRANCH  13  15
ENDBRANCH   7   8
ENDBRANCH   4   7
BRANCH   5  25
HETATM   25  C21 UNL     1      20.578 -10.867  10.434  1.00  0.00     0.110 C 
HETATM   26  N9  UNL     1      21.250 -11.168   9.412  1.00  0.00    -0.406 N 
ATOM     27  H92 UNL     1      20.935 -11.972   8.871  1.00  0.00     0.155 HD
ATOM     28  H91 UNL     1      22.078 -10.655   9.106  1.00  0.00     0.155 HD
ENDBRANCH   5  25
BRANCH   1  29
HETATM   29  C4  UNL     1      17.414 -14.505   9.685  1.00  0.00     0.033 A 
HETATM   30  C3  UNL     1      16.224 -14.452   8.999  1.00  0.00     0.112 A 
HETATM   31  N2  UNL     1      15.856 -15.556   8.286  1.00  0.00    -0.338 N 
HETATM   32  N3  UNL     1      15.451 -13.438   8.985  1.00  0.00    -0.385 N 
HETATM   33  C2  UNL     1      16.610 -16.668   8.237  1.00  0.00     0.183 A 
ATOM     34  H2  UNL     1      14.976 -15.537   7.771  1.00  0.00     0.168 HD
HETATM   35  N1  UNL     1      17.777 -16.733   8.902  1.00  0.00    -0.356 N 
HETATM   36  C1  UNL     1      18.569 -17.957   8.827  1.00  0.00     0.156 C 
HETATM   37  C23 UNL     1      18.160 -15.662   9.612  1.00  0.00     0.107 A 
ATOM     38  H32 UNL     1      14.569 -13.399   8.475  1.00  0.00     0.157 HD
ATOM     39  H31 UNL     1      15.726 -12.613   9.518  1.00  0.00     0.157 HD
ENDBRANCH   1  29
TORSDOF 7
ENDMDL
MODEL 2
REMARK VINA RESULT: -8.482641125      0.770      1.713
REMARK  7 active torsions:
REMARK  status: ('A' for Active; 'I' for Inactive)
REMARK    1  A    between atoms: C4_10  and  C5_11 
REMARK    2  A    between atoms: N4_14  and  C8_15 
REMARK    3  A    between atoms: C8_15  and  C9_16 
REMARK    4  A    between atoms: N6_21  and  C13_22 
REMARK    5  A    between atoms: C13_22  and  C14_23 
REMARK    6  A    between atoms: C14_23  and  C15_24 
REMARK    7  A    between atoms: C20_33  and  C21_34 
ROOT
HETATM    1  C5  UNL     1      17.954 -13.234  10.620  1.00  0.00    -0.017 A 
HETATM    2  C6  UNL     1      18.673 -12.188  10.097  1.00  0.00     0.029 A 
HETATM    3  C7  UNL     1      19.060 -11.139  10.889  1.00  0.00     0.092 A 
HETATM    4  N4  UNL     1      18.752 -11.086  12.215  1.00  0.00    -0.351 N 
HETATM    5  C20 UNL     1      18.051 -12.109  12.717  1.00  0.00     0.050 A 
HETATM    6  C22 UNL     1      17.645 -13.184  11.946  1.00  0.00     0.043 A 
ENDROOT
BRANCH   4   7
HETATM    7  C8  UNL     1      19.191  -9.918  12.898  1.00  0.00     0.170 C 
BRANCH   7   8
HETATM    8  C9  UNL     1      18.325  -8.751  12.863  1.00  0.00    -0.008 A 
HETATM    9  C10 UNL     1      17.343  -8.604  13.820  1.00  0.00     0.101 A 
HETATM   10  N5  UNL     1      16.559  -7.511  13.741  1.00  0.00    -0.356 N 
HETATM   11  C11 UNL     1      15.514  -7.349  14.754  1.00  0.00     0.156 C 
HETATM   12  C12 UNL     1      16.696  -6.579  12.784  1.00  0.00     0.189 A 
HETATM   13  N6  UNL     1      17.625  -6.681  11.846  1.00  0.00    -0.328 N 
HETATM   14  C19 UNL     1      18.435  -7.786  11.907  1.00  0.00     0.107 A 
BRANCH  13  15
HETATM   15  C13 UNL     1      17.837  -5.760  10.816  1.00  0.00     0.097 C 
BRANCH  15  16
HETATM   16  C14 UNL     1      16.952  -4.614  10.659  1.00  0.00     0.020 C 
BRANCH  16  17
HETATM   17  C15 UNL     1      17.154  -3.497   9.759  1.00  0.00     0.032 C 
HETATM   18  C16 UNL     1      17.884  -3.578   8.511  1.00  0.00     0.048 A 
HETATM   19  C17 UNL     1      19.275  -3.525   8.437  1.00  0.00     0.118 A 
HETATM   20  N8  UNL     1      17.485  -3.621   7.232  1.00  0.00    -0.351 N 
HETATM   21  N7  UNL     1      19.620  -3.538   7.147  1.00  0.00    -0.360 N 
HETATM   22  C18 UNL     1      18.517  -3.597   6.382  1.00  0.00     0.180 A 
ATOM     23  H7  UNL     1      20.578  -3.508   6.795  1.00  0.00     0.166 HD
ATOM     24  H8  UNL     1      16.508  -3.665   6.942  1.00  0.00     0.166 HD
ENDBRANCH  16  17
ENDBRANCH  15  16
ENDBRANCH  13  15
ENDBRANCH   7   8
ENDBRANCH   4   7
BRANCH   5  25
HETATM   25  C21 UNL     1      17.741 -12.109  14.119  1.00  0.00     0.110 C 
HETATM   26  N9  UNL     1      16.568 -12.091  14.577  1.00  0.00    -0.406 N 
ATOM     27  H92 UNL     1      15.806 -12.076  13.899  1.00  0.00     0.155 HD
ATOM     28  H91 UNL     1      16.347 -12.091  15.573  1.00  0.00     0.155 HD
ENDBRANCH   5  25
BRANCH   1  29
HETATM   29  C4  UNL     1      17.531 -14.375   9.803  1.00  0.00     0.033 A 
HETATM   30  C3  UNL     1      16.323 -14.357   9.148  1.00  0.00     0.112 A 
HETATM   31  N2  UNL     1      15.986 -15.454   8.409  1.00  0.00    -0.338 N 
HETATM   32  N3  UNL     1      15.505 -13.378   9.183  1.00  0.00    -0.385 N 
HETATM   33  C2  UNL     1      16.788 -16.528   8.308  1.00  0.00     0.183 A 
ATOM     34  H2  UNL     1      15.094 -15.460   7.916  1.00  0.00     0.168 HD
HETATM   35  N1  UNL     1      17.973 -16.560   8.943  1.00  0.00    -0.356 N 
HETATM   36  C1  UNL     1      18.818 -17.744   8.811  1.00  0.00     0.156 C 
HETATM   37  C23 UNL     1      18.326 -15.494   9.676  1.00  0.00     0.107 A 
ATOM     38  H32 UNL     1      14.609 -13.364   8.697  1.00  0.00     0.157 HD
ATOM     39  H31 UNL     1      15.756 -12.558   9.735  1.00  0.00     0.157 HD
ENDBRANCH   1  29
TORSDOF 7
ENDMDL
MODEL 3
REMARK VINA RESULT: -8.179330138      1.997      8.918
REMARK  7 active torsions:
REMARK  status: ('A' for Active; 'I' for Inactive)
REMARK    1  A    between atoms: C4_10  and  C5_11 
REMARK    2  A    between atoms: N4_14  and  C8_15 
REMARK    3  A    between atoms: C8_15  and  C9_16 
REMARK    4  A    between atoms: N6_21  and  C13_22 
REMARK    5  A    between atoms: C13_22  and  C14_23 
REMARK    6  A    between atoms: C14_23  and  C15_24 
REMARK    7  A    between atoms: C20_33  and  C21_34 
ROOT
HETATM    1  C5  UNL     1      17.267  -5.343  11.343  1.00  0.00    -0.017 A 
HETATM    2  C6  UNL     1      17.820  -6.598  11.417  1.00  0.00     0.029 A 
HETATM    3  C7  UNL     1      17.743  -7.330  12.573  1.00  0.00     0.092 A 
HETATM    4  N4  UNL     1      17.124  -6.852  13.688  1.00  0.00    -0.351 N 
HETATM    5  C20 UNL     1      16.588  -5.629  13.607  1.00  0.00     0.050 A 
HETATM    6  C22 UNL     1      16.646  -4.863  12.457  1.00  0.00     0.043 A 
ENDROOT
BRANCH   4   7
HETATM    7  C8  UNL     1      17.157  -7.711  14.821  1.00  0.00     0.170 C 
BRANCH   7   8
HETATM    8  C9  UNL     1      16.584  -9.039  14.677  1.00  0.00    -0.008 A 
HETATM    9  C10 UNL     1      15.404  -9.344  15.323  1.00  0.00     0.101 A 
HETATM   10  N5  UNL     1      14.916 -10.590  15.168  1.00  0.00    -0.356 N 
HETATM   11  C11 UNL     1      13.663 -10.920  15.852  1.00  0.00     0.156 C 
HETATM   12  C12 UNL     1      15.525 -11.528  14.423  1.00  0.00     0.189 A 
HETATM   13  N6  UNL     1      16.659 -11.278  13.787  1.00  0.00    -0.328 N 
HETATM   14  C19 UNL     1      17.174 -10.015  13.930  1.00  0.00     0.107 A 
BRANCH  13  15
HETATM   15  C13 UNL     1      17.357 -12.192  12.993  1.00  0.00     0.097 C 
BRANCH  15  16
HETATM   16  C14 UNL     1      16.662 -12.956  11.966  1.00  0.00     0.020 C 
BRANCH  16  17
HETATM   17  C15 UNL     1      16.696 -12.699  10.540  1.00  0.00     0.032 C 
HETATM   18  C16 UNL     1      16.834 -13.727   9.531  1.00  0.00     0.048 A 
HETATM   19  C17 UNL     1      18.060 -14.285   9.173  1.00  0.00     0.118 A 
HETATM   20  N8  UNL     1      15.955 -14.290   8.690  1.00  0.00    -0.351 N 
HETATM   21  N7  UNL     1      17.849 -15.132   8.162  1.00  0.00    -0.360 N 
HETATM   22  C18 UNL     1      16.543 -15.147   7.847  1.00  0.00     0.180 A 
ATOM     23  H7  UNL     1      18.571 -15.684   7.698  1.00  0.00     0.166 HD
ATOM     24  H8  UNL     1      14.955 -14.089   8.692  1.00  0.00     0.166 HD
ENDBRANCH  16  17
ENDBRANCH  15  16
ENDBRANCH  13  15
ENDBRANCH   7   8
ENDBRANCH   4   7
BRANCH   5  25
HETATM   25  C21 UNL     1      15.892  -5.106  14.750  1.00  0.00     0.110 C 
HETATM   26  N9  UNL     1      15.609  -3.888  14.900  1.00  0.00    -0.406 N 
ATOM     27  H92 UNL     1      15.898  -3.250  14.159  1.00  0.00     0.155 HD
ATOM     28  H91 UNL     1      15.115  -3.517  15.712  1.00  0.00     0.155 HD
ENDBRANCH   5  25
BRANCH   1  29
HETATM   29  C4  UNL     1      17.324  -4.537  10.120  1.00  0.00     0.033 A 
HETATM   30  C3  UNL     1      16.242  -3.786   9.727  1.00  0.00     0.112 A 
HETATM   31  N2  UNL     1      16.359  -3.063   8.574  1.00  0.00    -0.338 N 
HETATM   32  N3  UNL     1      15.145  -3.719  10.373  1.00  0.00    -0.385 N 
HETATM   33  C2  UNL     1      17.479  -3.067   7.832  1.00  0.00     0.183 A 
ATOM     34  H2  UNL     1      15.567  -2.500   8.266  1.00  0.00     0.168 HD
HETATM   35  N1  UNL     1      18.546  -3.796   8.205  1.00  0.00    -0.356 N 
HETATM   36  C1  UNL     1      19.746  -3.776   7.373  1.00  0.00     0.156 C 
HETATM   37  C23 UNL     1      18.455  -4.516   9.333  1.00  0.00     0.107 A 
ATOM     38  H32 UNL     1      14.342  -3.161  10.081  1.00  0.00     0.157 HD
ATOM     39  H31 UNL     1      15.057  -4.259  11.234  1.00  0.00     0.157 HD
ENDBRANCH   1  29
TORSDOF 7
ENDMDL
MODEL 4
REMARK VINA RESULT: -8.173068673      1.844      8.451
REMARK  7 active torsions:
REMARK  status: ('A' for Active; 'I' for Inactive)
REMARK    1  A    between atoms: C4_10  and  C5_11 
REMARK    2  A    between atoms: N4_14  and  C8_15 
REMARK    3  A    between atoms: C8_15  and  C9_16 
REMARK    4  A    between atoms: N6_21  and  C13_22 
REMARK    5  A    between atoms: C13_22  and  C14_23 
REMARK    6  A    between atoms: C14_23  and  C15_24 
REMARK    7  A    between atoms: C20_33  and  C21_34 
ROOT
HETATM    1  C5  UNL     1      17.651  -5.772  11.335  1.00  0.00    -0.017 A 
HETATM    2  C6  UNL     1      16.909  -5.622  12.481  1.00  0.00     0.029 A 
HETATM    3  C7  UNL     1      17.013  -6.526  13.506  1.00  0.00     0.092 A 
HETATM    4  N4  UNL     1      17.846  -7.601  13.436  1.00  0.00    -0.351 N 
HETATM    5  C20 UNL     1      18.565  -7.740  12.317  1.00  0.00     0.050 A 
HETATM    6  C22 UNL     1      18.485  -6.847  11.263  1.00  0.00     0.043 A 
ENDROOT
BRANCH   4   7
HETATM    7  C8  UNL     1      17.819  -8.470  14.562  1.00  0.00     0.170 C 
BRANCH   7   8
HETATM    8  C9  UNL     1      16.823  -9.529  14.574  1.00  0.00    -0.008 A 
HETATM    9  C10 UNL     1      15.687  -9.386  15.342  1.00  0.00     0.101 A 
HETATM   10  N5  UNL     1      14.798 -10.397  15.328  1.00  0.00    -0.356 N 
HETATM   11  C11 UNL     1      13.588 -10.252  16.141  1.00  0.00     0.156 C 
HETATM   12  C12 UNL     1      14.974 -11.518  14.609  1.00  0.00     0.189 A 
HETATM   13  N6  UNL     1      16.050 -11.697  13.858  1.00  0.00    -0.328 N 
HETATM   14  C19 UNL     1      16.969 -10.679  13.857  1.00  0.00     0.107 A 
BRANCH  13  15
HETATM   15  C13 UNL     1      16.313 -12.828  13.081  1.00  0.00     0.097 C 
BRANCH  15  16
HETATM   16  C14 UNL     1      17.303 -12.774  12.014  1.00  0.00     0.020 C 
BRANCH  16  17
HETATM   17  C15 UNL     1      17.032 -12.554  10.608  1.00  0.00     0.032 C 
HETATM   18  C16 UNL     1      17.010 -13.601   9.609  1.00  0.00     0.048 A 
HETATM   19  C17 UNL     1      18.162 -14.114   9.016  1.00  0.00     0.118 A 
HETATM   20  N8  UNL     1      16.006 -14.225   8.977  1.00  0.00    -0.351 N 
HETATM   21  N7  UNL     1      17.790 -14.996   8.085  1.00  0.00    -0.360 N 
HETATM   22  C18 UNL     1      16.450 -15.077   8.046  1.00  0.00     0.180 A 
ATOM     23  H7  UNL     1      18.428 -15.528   7.492  1.00  0.00     0.166 HD
ATOM     24  H8  UNL     1      15.018 -14.068   9.181  1.00  0.00     0.166 HD
ENDBRANCH  16  17
ENDBRANCH  15  16
ENDBRANCH  13  15
ENDBRANCH   7   8
ENDBRANCH   4   7
BRANCH   5  25
HETATM   25  C21 UNL     1      19.484  -8.840  12.220  1.00  0.00     0.110 C 
HETATM   26  N9  UNL     1      19.450  -9.702  11.303  1.00  0.00    -0.406 N 
ATOM     27  H92 UNL     1      18.723  -9.599  10.596  1.00  0.00     0.155 HD
ATOM     28  H91 UNL     1      20.103 -10.484  11.235  1.00  0.00     0.155 HD
ENDBRANCH   5  25
BRANCH   1  29
HETATM   29  C4  UNL     1      17.570  -4.821  10.224  1.00  0.00     0.033 A 
HETATM   30  C3  UNL     1      16.450  -4.044  10.049  1.00  0.00     0.112 A 
HETATM   31  N2  UNL     1      16.436  -3.183   8.989  1.00  0.00    -0.338 N 
HETATM   32  N3  UNL     1      15.431  -4.074  10.816  1.00  0.00    -0.385 N 
HETATM   33  C2  UNL     1      17.466  -3.077   8.133  1.00  0.00     0.183 A 
ATOM     34  H2  UNL     1      15.614  -2.598   8.843  1.00  0.00     0.168 HD
HETATM   35  N1  UNL     1      18.569  -3.831   8.292  1.00  0.00    -0.356 N 
HETATM   36  C1  UNL     1      19.668  -3.690   7.341  1.00  0.00     0.156 C 
HETATM   37  C23 UNL     1      18.606  -4.686   9.325  1.00  0.00     0.107 A 
ATOM     38  H32 UNL     1      14.601  -3.497  10.687  1.00  0.00     0.157 HD
ATOM     39  H31 UNL     1      15.441  -4.717  11.608  1.00  0.00     0.157 HD
ENDBRANCH   1  29
TORSDOF 7
ENDMDL
MODEL 5
REMARK VINA RESULT: -8.144039722      1.660      2.472
REMARK  7 active torsions:
REMARK  status: ('A' for Active; 'I' for Inactive)
REMARK    1  A    between atoms: C4_10  and  C5_11 
REMARK    2  A    between atoms: N4_14  and  C8_15 
REMARK    3  A    between atoms: C8_15  and  C9_16 
REMARK    4  A    between atoms: N6_21  and  C13_22 
REMARK    5  A    between atoms: C13_22  and  C14_23 
REMARK    6  A    between atoms: C14_23  and  C15_24 
REMARK    7  A    between atoms: C20_33  and  C21_34 
ROOT
HETATM    1  C5  UNL     1      17.197 -14.878   9.315  1.00  0.00    -0.017 A 
HETATM    2  C6  UNL     1      16.360 -13.933   9.856  1.00  0.00     0.029 A 
HETATM    3  C7  UNL     1      16.847 -12.719  10.265  1.00  0.00     0.092 A 
HETATM    4  N4  UNL     1      18.166 -12.399  10.157  1.00  0.00    -0.351 N 
HETATM    5  C20 UNL     1      18.974 -13.324   9.629  1.00  0.00     0.050 A 
HETATM    6  C22 UNL     1      18.517 -14.559   9.205  1.00  0.00     0.043 A 
ENDROOT
BRANCH   4   7
HETATM    7  C8  UNL     1      18.527 -11.117  10.658  1.00  0.00     0.170 C 
BRANCH   7   8
HETATM    8  C9  UNL     1      17.754 -10.583  11.767  1.00  0.00    -0.008 A 
HETATM    9  C10 UNL     1      17.362 -11.423  12.789  1.00  0.00     0.101 A 
HETATM   10  N5  UNL     1      16.639 -10.886  13.790  1.00  0.00    -0.356 N 
HETATM   11  C11 UNL     1      16.220 -11.772  14.879  1.00  0.00     0.156 C 
HETATM   12  C12 UNL     1      16.292  -9.589  13.829  1.00  0.00     0.189 A 
HETATM   13  N6  UNL     1      16.647  -8.748  12.869  1.00  0.00    -0.328 N 
HETATM   14  C19 UNL     1      17.384  -9.274  11.839  1.00  0.00     0.107 A 
BRANCH  13  15
HETATM   15  C13 UNL     1      16.330  -7.387  12.830  1.00  0.00     0.097 C 
BRANCH  15  16
HETATM   16  C14 UNL     1      17.071  -6.483  11.962  1.00  0.00     0.020 C 
BRANCH  16  17
HETATM   17  C15 UNL     1      16.778  -5.081  11.740  1.00  0.00     0.032 C 
HETATM   18  C16 UNL     1      16.977  -4.399  10.479  1.00  0.00     0.048 A 
HETATM   19  C17 UNL     1      18.215  -3.916  10.060  1.00  0.00     0.118 A 
HETATM   20  N8  UNL     1      16.125  -3.998   9.525  1.00  0.00    -0.351 N 
HETATM   21  N7  UNL     1      18.037  -3.268   8.905  1.00  0.00    -0.360 N 
HETATM   22  C18 UNL     1      16.740  -3.309   8.557  1.00  0.00     0.180 A 
ATOM     23  H7  UNL     1      18.776  -2.812   8.368  1.00  0.00     0.166 HD
ATOM     24  H8  UNL     1      15.123  -4.194   9.536  1.00  0.00     0.166 HD
ENDBRANCH  16  17
ENDBRANCH  15  16
ENDBRANCH  13  15
ENDBRANCH   7   8
ENDBRANCH   4   7
BRANCH   5  25
HETATM   25  C21 UNL     1      20.366 -13.010   9.462  1.00  0.00     0.110 C 
HETATM   26  N9  UNL     1      21.059 -13.399   8.486  1.00  0.00    -0.406 N 
ATOM     27  H92 UNL     1      20.591 -13.969   7.782  1.00  0.00     0.155 HD
ATOM     28  H91 UNL     1      22.048 -13.175   8.367  1.00  0.00     0.155 HD
ENDBRANCH   5  25
BRANCH   1  29
HETATM   29  C4  UNL     1      16.709 -16.182   8.860  1.00  0.00     0.033 A 
HETATM   30  C3  UNL     1      15.854 -16.274   7.788  1.00  0.00     0.112 A 
HETATM   31  N2  UNL     1      15.431 -17.519   7.420  1.00  0.00    -0.338 N 
HETATM   32  N3  UNL     1      15.439 -15.272   7.116  1.00  0.00    -0.385 N 
HETATM   33  C2  UNL     1      15.821 -18.632   8.064  1.00  0.00     0.183 A 
ATOM     34  H2  UNL     1      14.796 -17.608   6.627  1.00  0.00     0.168 HD
HETATM   35  N1  UNL     1      16.658 -18.558   9.114  1.00  0.00    -0.356 N 
HETATM   36  C1  UNL     1      17.060 -19.788   9.790  1.00  0.00     0.156 C 
HETATM   37  C23 UNL     1      17.086 -17.346   9.496  1.00  0.00     0.107 A 
ATOM     38  H32 UNL     1      14.805 -15.341   6.320  1.00  0.00     0.157 HD
ATOM     39  H31 UNL     1      15.754 -14.342   7.390  1.00  0.00     0.157 HD
ENDBRANCH   1  29
TORSDOF 7
ENDMDL
