MODEL 1
REMARK VINA RESULT: -5.210312750      0.000      0.000
REMARK  12 active torsions:
REMARK  status: ('A' for Active; 'I' for Inactive)
REMARK    1  A    between atoms: C3_3  and  N1_4 
REMARK    2  A    between atoms: C6_9  and  C7_10 
REMARK    3  A    between atoms: C8_11  and  C9_12 
REMARK    4  A    between atoms: C9_12  and  N3_13 
REMARK    5  A    between atoms: C12_16  and  C13_17 
REMARK    6  A    between atoms: C12_16  and  N6_22 
REMARK    7  A    between atoms: N7_27  and  C19_29 
REMARK    8  A    between atoms: C19_29  and  C20_30 
REMARK    9  A    between atoms: C20_30  and  C21_31 
REMARK   10  A    between atoms: C21_31  and  C22_32 
REMARK   11  A    between atoms: C22_32  and  C23_33 
REMARK   12  A    between atoms: C23_33  and  N8_34 
ROOT
HETATM    1  C1  UNL     1      15.966  -7.393  12.477  1.00  0.00     0.113 C 
HETATM    2  C2  UNL     1      15.412  -8.248  13.551  1.00  0.00    -0.087 C 
HETATM    3  C3  UNL     1      14.945  -8.939  14.426  1.00  0.00     0.019 C 
ENDROOT
BRANCH   3   4
HETATM    4  N1  UNL     1      14.394  -9.745  15.426  1.00  0.00    -0.257 N 
HETATM    5  C4  UNL     1      13.602  -9.390  16.465  1.00  0.00     0.198 A 
HETATM    6  N2  UNL     1      13.291 -10.472  17.195  1.00  0.00    -0.358 N 
HETATM    7  C5  UNL     1      13.885 -11.538  16.628  1.00  0.00     0.129 A 
ATOM      8  H2  UNL     1      12.708 -10.485  18.031  1.00  0.00     0.166 HD
HETATM    9  C6  UNL     1      14.578 -11.073  15.515  1.00  0.00     0.117 A 
BRANCH   9  10
HETATM   10  C7  UNL     1      15.367 -11.847  14.591  1.00  0.00    -0.044 C 
HETATM   11  C8  UNL     1      16.031 -12.485  13.810  1.00  0.00    -0.069 C 
BRANCH  11  12
HETATM   12  C9  UNL     1      16.829 -13.287  12.847  1.00  0.00     0.365 C 
BRANCH  12  13
HETATM   13  N3  UNL     1      17.783 -12.450  12.146  1.00  0.00     0.097 N 
HETATM   14  C10 UNL     1      17.005 -11.298  11.675  1.00  0.00     0.311 C 
HETATM   15  C11 UNL     1      18.743 -12.048  13.150  1.00  0.00     0.322 C 
HETATM   16  C12 UNL     1      19.910 -11.270  12.661  1.00  0.00     0.240 C 
HETATM   17  C16 UNL     1      20.098 -11.328  11.188  1.00  0.00     0.081 C 
HETATM   18  C17 UNL     1      19.446 -12.433  10.457  1.00  0.00     0.275 C 
HETATM   19  N7  UNL     1      18.322 -13.084  11.054  1.00  0.00     0.085 N 
HETATM   20  C18 UNL     1      18.650 -14.465  11.410  1.00  0.00     0.309 C 
BRANCH  16  21
HETATM   21  C13 UNL     1      21.175 -11.669  13.339  1.00  0.00     0.128 C 
HETATM   22  N4  UNL     1      22.215 -10.918  13.419  1.00  0.00    -0.389 N 
ATOM     23  H42 UNL     1      22.144  -9.998  12.985  1.00  0.00     0.157 HD
ATOM     24  H41 UNL     1      23.081 -11.192  13.884  1.00  0.00     0.157 HD
HETATM   25  N5  UNL     1      21.275 -12.953  13.944  1.00  0.00    -0.085 NA
ENDBRANCH  16  21
BRANCH  16  26
HETATM   26  N6  UNL     1      19.667  -9.879  13.087  1.00  0.00     0.098 N 
HETATM   27  C14 UNL     1      18.796  -9.797  14.221  1.00  0.00     0.310 C 
HETATM   28  C15 UNL     1      19.294  -9.029  12.005  1.00  0.00     0.310 C 
ENDBRANCH  16  26
BRANCH  19  29
HETATM   29  C19 UNL     1      17.302 -13.189  10.010  1.00  0.00     0.272 C 
BRANCH  29  30
HETATM   30  C20 UNL     1      17.816 -14.143   8.954  1.00  0.00     0.030 C 
BRANCH  30  31
HETATM   31  C21 UNL     1      16.649 -14.873   8.284  1.00  0.00     0.003 C 
BRANCH  31  32
HETATM   32  C22 UNL     1      16.577 -16.298   8.735  1.00  0.00     0.027 C 
BRANCH  32  33
HETATM   33  C23 UNL     1      15.819 -17.197   7.795  1.00  0.00     0.229 C 
BRANCH  33  34
HETATM   34  N8  UNL     1      14.801 -16.520   7.047  1.00  0.00    -0.079 N 
ATOM     35  H83 UNL     1      14.967 -15.513   7.043  1.00  0.00     0.274 HD
ATOM     36  H82 UNL     1      14.899 -16.713   6.050  1.00  0.00     0.274 HD
ATOM     37  H81 UNL     1      13.854 -16.728   7.363  1.00  0.00     0.274 HD
ENDBRANCH  33  34
ENDBRANCH  32  33
ENDBRANCH  31  32
ENDBRANCH  30  31
ENDBRANCH  29  30
ENDBRANCH  19  29
ENDBRANCH  12  13
ENDBRANCH  11  12
ENDBRANCH   9  10
ENDBRANCH   3   4
TORSDOF 12
ENDMDL
MODEL 2
REMARK VINA RESULT: -5.181060973      1.078      1.228
REMARK  12 active torsions:
REMARK  status: ('A' for Active; 'I' for Inactive)
REMARK    1  A    between atoms: C3_3  and  N1_4 
REMARK    2  A    between atoms: C6_9  and  C7_10 
REMARK    3  A    between atoms: C8_11  and  C9_12 
REMARK    4  A    between atoms: C9_12  and  N3_13 
REMARK    5  A    between atoms: C12_16  and  C13_17 
REMARK    6  A    between atoms: C12_16  and  N6_22 
REMARK    7  A    between atoms: N7_27  and  C19_29 
REMARK    8  A    between atoms: C19_29  and  C20_30 
REMARK    9  A    between atoms: C20_30  and  C21_31 
REMARK   10  A    between atoms: C21_31  and  C22_32 
REMARK   11  A    between atoms: C22_32  and  C23_33 
REMARK   12  A    between atoms: C23_33  and  N8_34 
ROOT
HETATM    1  C1  UNL     1      15.115  -7.800  13.105  1.00  0.00     0.113 C 
HETATM    2  C2  UNL     1      14.828  -8.804  14.154  1.00  0.00    -0.087 C 
HETATM    3  C3  UNL     1      14.590  -9.613  15.019  1.00  0.00     0.019 C 
ENDROOT
BRANCH   3   4
HETATM    4  N1  UNL     1      14.295 -10.544  16.020  1.00  0.00    -0.257 N 
HETATM    5  C4  UNL     1      13.346 -10.487  16.983  1.00  0.00     0.198 A 
HETATM    6  N2  UNL     1      13.399 -11.591  17.744  1.00  0.00    -0.358 N 
HETATM    7  C5  UNL     1      14.389 -12.371  17.274  1.00  0.00     0.129 A 
ATOM      8  H2  UNL     1      12.795 -11.802  18.538  1.00  0.00     0.166 HD
HETATM    9  C6  UNL     1      14.950 -11.705  16.189  1.00  0.00     0.117 A 
BRANCH   9  10
HETATM   10  C7  UNL     1      16.042 -12.150  15.362  1.00  0.00    -0.044 C 
HETATM   11  C8  UNL     1      16.948 -12.529  14.659  1.00  0.00    -0.069 C 
BRANCH  11  12
HETATM   12  C9  UNL     1      18.076 -13.004  13.815  1.00  0.00     0.365 C 
BRANCH  12  13
HETATM   13  N3  UNL     1      18.306 -12.097  12.707  1.00  0.00     0.097 N 
HETATM   14  C10 UNL     1      17.041 -11.373  12.538  1.00  0.00     0.311 C 
HETATM   15  C11 UNL     1      19.354 -11.207  13.157  1.00  0.00     0.322 C 
HETATM   16  C12 UNL     1      19.867 -10.244  12.150  1.00  0.00     0.240 C 
HETATM   17  C16 UNL     1      19.485 -10.573  10.752  1.00  0.00     0.081 C 
HETATM   18  C17 UNL     1      19.063 -11.958  10.465  1.00  0.00     0.275 C 
HETATM   19  N7  UNL     1      18.579 -12.767  11.540  1.00  0.00     0.085 N 
HETATM   20  C18 UNL     1      19.505 -13.866  11.820  1.00  0.00     0.309 C 
BRANCH  16  21
HETATM   21  C13 UNL     1      21.345 -10.078  12.234  1.00  0.00     0.128 C 
HETATM   22  N4  UNL     1      22.027  -9.307  11.463  1.00  0.00    -0.389 N 
ATOM     23  H42 UNL     1      21.499  -8.789  10.759  1.00  0.00     0.157 HD
ATOM     24  H41 UNL     1      23.039  -9.193  11.521  1.00  0.00     0.157 HD
HETATM   25  N5  UNL     1      22.080 -10.799  13.215  1.00  0.00    -0.085 NA
ENDBRANCH  16  21
BRANCH  16  26
HETATM   26  N6  UNL     1      19.309  -8.934  12.534  1.00  0.00     0.098 N 
HETATM   27  C14 UNL     1      18.838  -8.912  13.885  1.00  0.00     0.310 C 
HETATM   28  C15 UNL     1      18.371  -8.436  11.583  1.00  0.00     0.310 C 
ENDBRANCH  16  26
BRANCH  19  29
HETATM   29  C19 UNL     1      17.357 -13.409  11.059  1.00  0.00     0.272 C 
BRANCH  29  30
HETATM   30  C20 UNL     1      17.493 -13.605   9.564  1.00  0.00     0.030 C 
BRANCH  30  31
HETATM   31  C21 UNL     1      16.289 -14.376   9.018  1.00  0.00     0.003 C 
BRANCH  31  32
HETATM   32  C22 UNL     1      16.691 -15.267   7.884  1.00  0.00     0.027 C 
BRANCH  32  33
HETATM   33  C23 UNL     1      16.004 -16.607   7.889  1.00  0.00     0.229 C 
BRANCH  33  34
HETATM   34  N8  UNL     1      14.804 -16.640   7.106  1.00  0.00    -0.079 N 
ATOM     35  H83 UNL     1      13.980 -16.649   7.708  1.00  0.00     0.274 HD
ATOM     36  H82 UNL     1      14.658 -15.749   6.631  1.00  0.00     0.274 HD
ATOM     37  H81 UNL     1      14.771 -17.412   6.440  1.00  0.00     0.274 HD
ENDBRANCH  33  34
ENDBRANCH  32  33
ENDBRANCH  31  32
ENDBRANCH  30  31
ENDBRANCH  29  30
ENDBRANCH  19  29
ENDBRANCH  12  13
ENDBRANCH  11  12
ENDBRANCH   9  10
ENDBRANCH   3   4
TORSDOF 12
ENDMDL
MODEL 3
REMARK VINA RESULT: -5.161702281      2.443      7.235
REMARK  12 active torsions:
REMARK  status: ('A' for Active; 'I' for Inactive)
REMARK    1  A    between atoms: C3_3  and  N1_4 
REMARK    2  A    between atoms: C6_9  and  C7_10 
REMARK    3  A    between atoms: C8_11  and  C9_12 
REMARK    4  A    between atoms: C9_12  and  N3_13 
REMARK    5  A    between atoms: C12_16  and  C13_17 
REMARK    6  A    between atoms: C12_16  and  N6_22 
REMARK    7  A    between atoms: N7_27  and  C19_29 
REMARK    8  A    between atoms: C19_29  and  C20_30 
REMARK    9  A    between atoms: C20_30  and  C21_31 
REMARK   10  A    between atoms: C21_31  and  C22_32 
REMARK   11  A    between atoms: C22_32  and  C23_33 
REMARK   12  A    between atoms: C23_33  and  N8_34 
ROOT
HETATM    1  C1  UNL     1      19.204 -17.282  12.684  1.00  0.00     0.113 C 
HETATM    2  C2  UNL     1      18.390 -17.156  11.454  1.00  0.00    -0.087 C 
HETATM    3  C3  UNL     1      17.718 -17.066  10.454  1.00  0.00     0.019 C 
ENDROOT
BRANCH   3   4
HETATM    4  N1  UNL     1      16.926 -16.959   9.307  1.00  0.00    -0.257 N 
HETATM    5  C4  UNL     1      16.456 -17.942   8.503  1.00  0.00     0.198 A 
HETATM    6  N2  UNL     1      15.731 -17.410   7.506  1.00  0.00    -0.358 N 
HETATM    7  C5  UNL     1      15.731 -16.074   7.661  1.00  0.00     0.129 A 
ATOM      8  H2  UNL     1      15.264 -17.928   6.762  1.00  0.00     0.166 HD
HETATM    9  C6  UNL     1      16.486 -15.797   8.797  1.00  0.00     0.117 A 
BRANCH   9  10
HETATM   10  C7  UNL     1      16.768 -14.502   9.363  1.00  0.00    -0.044 C 
HETATM   11  C8  UNL     1      17.019 -13.420   9.836  1.00  0.00    -0.069 C 
BRANCH  11  12
HETATM   12  C9  UNL     1      17.310 -12.093  10.437  1.00  0.00     0.365 C 
BRANCH  12  13
HETATM   13  N3  UNL     1      18.590 -12.106  11.117  1.00  0.00     0.097 N 
HETATM   14  C10 UNL     1      18.486 -13.184  12.106  1.00  0.00     0.311 C 
HETATM   15  C11 UNL     1      19.559 -12.435  10.094  1.00  0.00     0.322 C 
HETATM   16  C12 UNL     1      20.984 -12.394  10.510  1.00  0.00     0.240 C 
HETATM   17  C16 UNL     1      21.217 -11.685  11.795  1.00  0.00     0.081 C 
HETATM   18  C17 UNL     1      20.167 -10.760  12.267  1.00  0.00     0.275 C 
HETATM   19  N7  UNL     1      18.832 -10.930  11.784  1.00  0.00     0.085 N 
HETATM   20  C18 UNL     1      18.441  -9.803  10.934  1.00  0.00     0.309 C 
BRANCH  16  21
HETATM   21  C13 UNL     1      21.860 -11.811   9.456  1.00  0.00     0.128 C 
HETATM   22  N4  UNL     1      23.110 -11.557   9.620  1.00  0.00    -0.389 N 
ATOM     23  H42 UNL     1      23.500 -11.777  10.536  1.00  0.00     0.157 HD
ATOM     24  H41 UNL     1      23.710 -11.158   8.897  1.00  0.00     0.157 HD
HETATM   25  N5  UNL     1      21.316 -11.504   8.178  1.00  0.00    -0.085 NA
ENDBRANCH  16  21
BRANCH  16  26
HETATM   26  N6  UNL     1      21.404 -13.803  10.625  1.00  0.00     0.098 N 
HETATM   27  C14 UNL     1      20.604 -14.681   9.827  1.00  0.00     0.310 C 
HETATM   28  C15 UNL     1      21.555 -14.224  11.978  1.00  0.00     0.310 C 
ENDBRANCH  16  26
BRANCH  19  29
HETATM   29  C19 UNL     1      17.956 -10.853  12.951  1.00  0.00     0.272 C 
BRANCH  29  30
HETATM   30  C20 UNL     1      17.362  -9.461  12.996  1.00  0.00     0.030 C 
BRANCH  30  31
HETATM   31  C21 UNL     1      16.085  -9.454  13.839  1.00  0.00     0.003 C 
BRANCH  31  32
HETATM   32  C22 UNL     1      15.213  -8.290  13.484  1.00  0.00     0.027 C 
BRANCH  32  33
HETATM   33  C23 UNL     1      15.905  -6.957  13.587  1.00  0.00     0.229 C 
BRANCH  33  34
HETATM   34  N8  UNL     1      15.873  -6.197  12.373  1.00  0.00    -0.079 N 
ATOM     35  H83 UNL     1      16.300  -6.720  11.608  1.00  0.00     0.274 HD
ATOM     36  H82 UNL     1      14.919  -6.125  12.018  1.00  0.00     0.274 HD
ATOM     37  H81 UNL     1      16.295  -5.272  12.457  1.00  0.00     0.274 HD
ENDBRANCH  33  34
ENDBRANCH  32  33
ENDBRANCH  31  32
ENDBRANCH  30  31
ENDBRANCH  29  30
ENDBRANCH  19  29
ENDBRANCH  12  13
ENDBRANCH  11  12
ENDBRANCH   9  10
ENDBRANCH   3   4
TORSDOF 12
ENDMDL
MODEL 4
REMARK VINA RESULT: -5.118107634      2.367      7.878
REMARK  12 active torsions:
REMARK  status: ('A' for Active; 'I' for Inactive)
REMARK    1  A    between atoms: C3_3  and  N1_4 
REMARK    2  A    between atoms: C6_9  and  C7_10 
REMARK    3  A    between atoms: C8_11  and  C9_12 
REMARK    4  A    between atoms: C9_12  and  N3_13 
REMARK    5  A    between atoms: C12_16  and  C13_17 
REMARK    6  A    between atoms: C12_16  and  N6_22 
REMARK    7  A    between atoms: N7_27  and  C19_29 
REMARK    8  A    between atoms: C19_29  and  C20_30 
REMARK    9  A    between atoms: C20_30  and  C21_31 
REMARK   10  A    between atoms: C21_31  and  C22_32 
REMARK   11  A    between atoms: C22_32  and  C23_33 
REMARK   12  A    between atoms: C23_33  and  N8_34 
ROOT
HETATM    1  C1  UNL     1      16.217 -14.224   9.275  1.00  0.00     0.113 C 
HETATM    2  C2  UNL     1      17.352 -13.373   9.702  1.00  0.00    -0.087 C 
HETATM    3  C3  UNL     1      18.276 -12.671  10.036  1.00  0.00     0.019 C 
ENDROOT
BRANCH   3   4
HETATM    4  N1  UNL     1      19.334 -11.844  10.425  1.00  0.00    -0.257 N 
HETATM    5  C4  UNL     1      20.528 -11.647   9.818  1.00  0.00     0.198 A 
HETATM    6  N2  UNL     1      21.260 -10.769  10.521  1.00  0.00    -0.358 N 
HETATM    7  C5  UNL     1      20.539 -10.393  11.592  1.00  0.00     0.129 A 
ATOM      8  H2  UNL     1      22.197 -10.444  10.285  1.00  0.00     0.166 HD
HETATM    9  C6  UNL     1      19.327 -11.074  11.526  1.00  0.00     0.117 A 
BRANCH   9  10
HETATM   10  C7  UNL     1      18.229 -10.994  12.456  1.00  0.00    -0.044 C 
HETATM   11  C8  UNL     1      17.318 -10.926  13.245  1.00  0.00    -0.069 C 
BRANCH  11  12
HETATM   12  C9  UNL     1      16.186 -10.862  14.205  1.00  0.00     0.365 C 
BRANCH  12  13
HETATM   13  N3  UNL     1      16.235  -9.635  14.977  1.00  0.00     0.097 N 
HETATM   14  C10 UNL     1      17.309  -9.843  15.955  1.00  0.00     0.311 C 
HETATM   15  C11 UNL     1      16.593  -8.604  14.028  1.00  0.00     0.322 C 
HETATM   16  C12 UNL     1      16.593  -7.213  14.546  1.00  0.00     0.240 C 
HETATM   17  C16 UNL     1      15.889  -7.054  15.845  1.00  0.00     0.081 C 
HETATM   18  C17 UNL     1      14.934  -8.108  16.240  1.00  0.00     0.275 C 
HETATM   19  N7  UNL     1      15.065  -9.409  15.660  1.00  0.00     0.085 N 
HETATM   20  C18 UNL     1      13.929  -9.705  14.785  1.00  0.00     0.309 C 
BRANCH  16  21
HETATM   21  C13 UNL     1      16.038  -6.246  13.559  1.00  0.00     0.128 C 
HETATM   22  N4  UNL     1      15.781  -6.538  12.334  1.00  0.00    -0.389 N 
ATOM     23  H42 UNL     1      15.978  -7.497  12.046  1.00  0.00     0.157 HD
ATOM     24  H41 UNL     1      15.400  -5.875  11.658  1.00  0.00     0.157 HD
HETATM   25  N5  UNL     1      15.762  -4.909  13.960  1.00  0.00    -0.085 NA
ENDBRANCH  16  21
BRANCH  16  26
HETATM   26  N6  UNL     1      18.014  -6.843  14.691  1.00  0.00     0.098 N 
HETATM   27  C14 UNL     1      18.880  -7.678  13.915  1.00  0.00     0.310 C 
HETATM   28  C15 UNL     1      18.410  -6.702  16.053  1.00  0.00     0.310 C 
ENDBRANCH  16  26
BRANCH  19  29
HETATM   29  C19 UNL     1      14.961 -10.365  16.761  1.00  0.00     0.272 C 
BRANCH  29  30
HETATM   30  C20 UNL     1      13.537 -10.878  16.798  1.00  0.00     0.030 C 
BRANCH  30  31
HETATM   31  C21 UNL     1      12.946 -10.704  18.198  1.00  0.00     0.003 C 
BRANCH  31  32
HETATM   32  C22 UNL     1      12.051  -9.505  18.259  1.00  0.00     0.027 C 
BRANCH  32  33
HETATM   33  C23 UNL     1      10.644  -9.816  18.693  1.00  0.00     0.229 C 
BRANCH  33  34
HETATM   34  N8  UNL     1      10.030 -10.870  17.940  1.00  0.00    -0.079 N 
ATOM     35  H83 UNL     1       9.014 -10.826  18.022  1.00  0.00     0.274 HD
ATOM     36  H82 UNL     1      10.128 -10.702  16.939  1.00  0.00     0.274 HD
ATOM     37  H81 UNL     1      10.371 -11.799  18.184  1.00  0.00     0.274 HD
ENDBRANCH  33  34
ENDBRANCH  32  33
ENDBRANCH  31  32
ENDBRANCH  30  31
ENDBRANCH  29  30
ENDBRANCH  19  29
ENDBRANCH  12  13
ENDBRANCH  11  12
ENDBRANCH   9  10
ENDBRANCH   3   4
TORSDOF 12
ENDMDL
MODEL 5
REMARK VINA RESULT: -5.092338506      1.978      7.095
REMARK  12 active torsions:
REMARK  status: ('A' for Active; 'I' for Inactive)
REMARK    1  A    between atoms: C3_3  and  N1_4 
REMARK    2  A    between atoms: C6_9  and  C7_10 
REMARK    3  A    between atoms: C8_11  and  C9_12 
REMARK    4  A    between atoms: C9_12  and  N3_13 
REMARK    5  A    between atoms: C12_16  and  C13_17 
REMARK    6  A    between atoms: C12_16  and  N6_22 
REMARK    7  A    between atoms: N7_27  and  C19_29 
REMARK    8  A    between atoms: C19_29  and  C20_30 
REMARK    9  A    between atoms: C20_30  and  C21_31 
REMARK   10  A    between atoms: C21_31  and  C22_32 
REMARK   11  A    between atoms: C22_32  and  C23_33 
REMARK   12  A    between atoms: C23_33  and  N8_34 
ROOT
HETATM    1  C1  UNL     1      19.040 -17.609  12.475  1.00  0.00     0.113 C 
HETATM    2  C2  UNL     1      18.215 -17.505  11.250  1.00  0.00    -0.087 C 
HETATM    3  C3  UNL     1      17.529 -17.417  10.259  1.00  0.00     0.019 C 
ENDROOT
BRANCH   3   4
HETATM    4  N1  UNL     1      16.732 -17.297   9.117  1.00  0.00    -0.257 N 
HETATM    5  C4  UNL     1      16.277 -18.269   8.291  1.00  0.00     0.198 A 
HETATM    6  N2  UNL     1      15.542 -17.726   7.308  1.00  0.00    -0.358 N 
HETATM    7  C5  UNL     1      15.519 -16.394   7.494  1.00  0.00     0.129 A 
ATOM      8  H2  UNL     1      15.082 -18.234   6.553  1.00  0.00     0.166 HD
HETATM    9  C6  UNL     1      16.271 -16.131   8.635  1.00  0.00     0.117 A 
BRANCH   9  10
HETATM   10  C7  UNL     1      16.532 -14.845   9.230  1.00  0.00    -0.044 C 
HETATM   11  C8  UNL     1      16.765 -13.769   9.726  1.00  0.00    -0.069 C 
BRANCH  11  12
HETATM   12  C9  UNL     1      17.037 -12.452  10.357  1.00  0.00     0.365 C 
BRANCH  12  13
HETATM   13  N3  UNL     1      18.280 -12.486  11.103  1.00  0.00     0.097 N 
HETATM   14  C10 UNL     1      18.158 -13.646  11.993  1.00  0.00     0.311 C 
HETATM   15  C11 UNL     1      19.312 -12.701  10.112  1.00  0.00     0.322 C 
HETATM   16  C12 UNL     1      20.711 -12.656  10.607  1.00  0.00     0.240 C 
HETATM   17  C16 UNL     1      20.852 -12.051  11.957  1.00  0.00     0.081 C 
HETATM   18  C17 UNL     1      19.750 -11.198  12.445  1.00  0.00     0.275 C 
HETATM   19  N7  UNL     1      18.449 -11.364  11.876  1.00  0.00     0.085 N 
HETATM   20  C18 UNL     1      18.066 -10.181  11.102  1.00  0.00     0.309 C 
BRANCH  16  21
HETATM   21  C13 UNL     1      21.622 -11.963   9.655  1.00  0.00     0.128 C 
HETATM   22  N4  UNL     1      21.229 -11.384   8.576  1.00  0.00    -0.389 N 
ATOM     23  H42 UNL     1      20.227 -11.416   8.385  1.00  0.00     0.157 HD
ATOM     24  H41 UNL     1      21.852 -10.909   7.924  1.00  0.00     0.157 HD
HETATM   25  N5  UNL     1      23.018 -11.919   9.921  1.00  0.00    -0.085 NA
ENDBRANCH  16  21
BRANCH  16  26
HETATM   26  N6  UNL     1      21.169 -14.057  10.629  1.00  0.00     0.098 N 
HETATM   27  C14 UNL     1      20.422 -14.893   9.739  1.00  0.00     0.310 C 
HETATM   28  C15 UNL     1      21.289 -14.577  11.951  1.00  0.00     0.310 C 
ENDBRANCH  16  26
BRANCH  19  29
HETATM   29  C19 UNL     1      17.510 -11.409  12.996  1.00  0.00     0.272 C 
BRANCH  29  30
HETATM   30  C20 UNL     1      16.978 -10.008  13.214  1.00  0.00     0.030 C 
BRANCH  30  31
HETATM   31  C21 UNL     1      15.789 -10.035  14.177  1.00  0.00     0.003 C 
BRANCH  31  32
HETATM   32  C22 UNL     1      15.399 -11.441  14.510  1.00  0.00     0.027 C 
BRANCH  32  33
HETATM   33  C23 UNL     1      14.936 -11.624  15.931  1.00  0.00     0.229 C 
BRANCH  33  34
HETATM   34  N8  UNL     1      13.521 -11.812  16.056  1.00  0.00    -0.079 N 
ATOM     35  H83 UNL     1      13.015 -11.048  15.607  1.00  0.00     0.274 HD
ATOM     36  H82 UNL     1      13.208 -12.588  15.473  1.00  0.00     0.274 HD
ATOM     37  H81 UNL     1      13.208 -11.936  17.018  1.00  0.00     0.274 HD
ENDBRANCH  33  34
ENDBRANCH  32  33
ENDBRANCH  31  32
ENDBRANCH  30  31
ENDBRANCH  29  30
ENDBRANCH  19  29
ENDBRANCH  12  13
ENDBRANCH  11  12
ENDBRANCH   9  10
ENDBRANCH   3   4
TORSDOF 12
ENDMDL
