MODEL 1
REMARK VINA RESULT: -5.669401807      0.000      0.000
REMARK  13 active torsions:
REMARK  status: ('A' for Active; 'I' for Inactive)
REMARK    1  A    between atoms: O1_2  and  C2_3 
REMARK    2  A    between atoms: C3_4  and  C4_5 
REMARK    3  A    between atoms: C4_5  and  O2_6 
REMARK    4  A    between atoms: C11_14  and  C13_16 
REMARK    5  A    between atoms: C13_16  and  O3_17 
REMARK    6  A    between atoms: C14_19  and  O4_20 
REMARK    7  A    between atoms: O4_20  and  C15_21 
REMARK    8  A    between atoms: C16_23  and  C17_24 
REMARK    9  A    between atoms: C17_24  and  O6_25 
REMARK   10  A    between atoms: C18_27  and  O7_28 
REMARK   11  A    between atoms: C19_30  and  O8_31 
REMARK   12  A    between atoms: C20_33  and  O9_34 
REMARK   13  A    between atoms: C21_36  and  O10_37 
ROOT
HETATM    1  C2  UNL     1      60.710  21.025  13.137  1.00  0.00     0.159 C 
HETATM    2  C3  UNL     1      60.757  19.562  13.519  1.00  0.00     0.046 C 
HETATM    3  C5  UNL     1      59.991  19.180  14.726  1.00  0.00     0.003 C 
HETATM    4  C6  UNL     1      58.867  18.202  14.468  1.00  0.00    -0.014 C 
HETATM    5  C7  UNL     1      59.340  16.750  14.645  1.00  0.00     0.010 C 
HETATM    6  C8  UNL     1      57.886  18.438  15.587  1.00  0.00     0.005 C 
HETATM    7  C9  UNL     1      58.520  19.500  16.502  1.00  0.00     0.006 C 
HETATM    8  C10 UNL     1      59.358  20.256  15.517  1.00  0.00     0.003 C 
HETATM    9  C11 UNL     1      60.315  21.171  16.214  1.00  0.00     0.010 C 
HETATM   10  C12 UNL     1      59.598  21.724  17.423  1.00  0.00     0.020 C 
HETATM   11  C14 UNL     1      60.790  22.297  15.322  1.00  0.00     0.166 C 
HETATM   12  C21 UNL     1      61.543  21.805  14.127  1.00  0.00     0.180 C 
ENDROOT
BRANCH  11  13
HETATM   13  O4  UNL     1      61.615  23.074  16.083  1.00  0.00    -0.350 OA
BRANCH  13  14
HETATM   14  C15 UNL     1      61.749  24.385  15.728  1.00  0.00     0.292 C 
HETATM   15  O5  UNL     1      63.070  24.702  15.722  1.00  0.00    -0.348 OA
HETATM   16  C16 UNL     1      63.632  25.246  16.812  1.00  0.00     0.179 C 
HETATM   17  C18 UNL     1      62.989  26.514  17.241  1.00  0.00     0.180 C 
HETATM   18  C19 UNL     1      61.772  26.726  16.326  1.00  0.00     0.183 C 
HETATM   19  C20 UNL     1      60.947  25.422  16.395  1.00  0.00     0.204 C 
BRANCH  16  20
HETATM   20  C17 UNL     1      63.878  24.254  17.924  1.00  0.00     0.198 C 
BRANCH  20  21
HETATM   21  O6  UNL     1      63.110  24.622  19.032  1.00  0.00    -0.398 OA
ATOM     22  H6  UNL     1      62.410  25.195  18.742  1.00  0.00     0.209 HD
ENDBRANCH  20  21
ENDBRANCH  16  20
BRANCH  17  23
HETATM   23  O7  UNL     1      63.833  27.589  17.056  1.00  0.00    -0.390 OA
ATOM     24  H7  UNL     1      63.361  28.412  17.116  1.00  0.00     0.210 HD
ENDBRANCH  17  23
BRANCH  18  25
HETATM   25  O8  UNL     1      62.243  26.973  15.063  1.00  0.00    -0.390 OA
ATOM     26  H8  UNL     1      62.365  26.133  14.634  1.00  0.00     0.210 HD
ENDBRANCH  18  25
BRANCH  19  27
HETATM   27  O9  UNL     1      60.792  25.212  17.759  1.00  0.00    -0.388 OA
ATOM     28  H9  UNL     1      59.914  24.947  18.005  1.00  0.00     0.210 HD
ENDBRANCH  19  27
ENDBRANCH  13  14
ENDBRANCH  11  13
BRANCH   9  29
HETATM   29  C13 UNL     1      61.506  20.424  16.776  1.00  0.00     0.176 C 
BRANCH  29  30
HETATM   30  O3  UNL     1      62.034  21.090  17.880  1.00  0.00    -0.400 OA
ATOM     31  H3  UNL     1      61.488  20.961  18.647  1.00  0.00     0.209 HD
ENDBRANCH  29  30
ENDBRANCH   9  29
BRANCH  12  32
HETATM   32  O10 UNL     1      62.156  22.810  13.440  1.00  0.00    -0.385 OA
HETATM   33  C22 UNL     1      62.270  22.600  12.077  1.00  0.00     0.202 C 
ENDBRANCH  12  32
BRANCH   1  34
HETATM   34  O1  UNL     1      59.513  21.538  12.805  1.00  0.00    -0.388 OA
HETATM   35  C1  UNL     1      59.383  22.095  11.564  1.00  0.00     0.202 C 
ENDBRANCH   1  34
BRANCH   2  36
HETATM   36  C4  UNL     1      60.510  18.677  12.301  1.00  0.00     0.171 C 
BRANCH  36  37
HETATM   37  O2  UNL     1      61.116  19.366  11.220  1.00  0.00    -0.400 OA
ATOM     38  H2  UNL     1      61.309  18.693  10.579  1.00  0.00     0.209 HD
ENDBRANCH  36  37
ENDBRANCH   2  36
TORSDOF 13
ENDMDL
MODEL 2
REMARK VINA RESULT: -3.871203436      2.878      5.580
REMARK  13 active torsions:
REMARK  status: ('A' for Active; 'I' for Inactive)
REMARK    1  A    between atoms: O1_2  and  C2_3 
REMARK    2  A    between atoms: C3_4  and  C4_5 
REMARK    3  A    between atoms: C4_5  and  O2_6 
REMARK    4  A    between atoms: C11_14  and  C13_16 
REMARK    5  A    between atoms: C13_16  and  O3_17 
REMARK    6  A    between atoms: C14_19  and  O4_20 
REMARK    7  A    between atoms: O4_20  and  C15_21 
REMARK    8  A    between atoms: C16_23  and  C17_24 
REMARK    9  A    between atoms: C17_24  and  O6_25 
REMARK   10  A    between atoms: C18_27  and  O7_28 
REMARK   11  A    between atoms: C19_30  and  O8_31 
REMARK   12  A    between atoms: C20_33  and  O9_34 
REMARK   13  A    between atoms: C21_36  and  O10_37 
ROOT
HETATM    1  C2  UNL     1      56.430  17.582  16.509  1.00  0.00     0.159 C 
HETATM    2  C3  UNL     1      56.220  16.492  15.481  1.00  0.00     0.046 C 
HETATM    3  C5  UNL     1      57.425  15.730  15.085  1.00  0.00     0.003 C 
HETATM    4  C6  UNL     1      57.368  14.255  15.415  1.00  0.00    -0.014 C 
HETATM    5  C7  UNL     1      56.805  13.443  14.239  1.00  0.00     0.010 C 
HETATM    6  C8  UNL     1      58.808  13.830  15.537  1.00  0.00     0.005 C 
HETATM    7  C9  UNL     1      59.655  15.069  15.195  1.00  0.00     0.006 C 
HETATM    8  C10 UNL     1      58.731  16.169  15.621  1.00  0.00     0.003 C 
HETATM    9  C11 UNL     1      59.205  17.495  15.117  1.00  0.00     0.010 C 
HETATM   10  C12 UNL     1      60.713  17.485  15.192  1.00  0.00     0.020 C 
HETATM   11  C14 UNL     1      58.646  18.649  15.919  1.00  0.00     0.166 C 
HETATM   12  C21 UNL     1      57.154  18.731  15.847  1.00  0.00     0.180 C 
ENDROOT
BRANCH  11  13
HETATM   13  O4  UNL     1      59.183  19.787  15.389  1.00  0.00    -0.350 OA
BRANCH  13  14
HETATM   14  C15 UNL     1      59.284  20.875  16.207  1.00  0.00     0.292 C 
HETATM   15  O5  UNL     1      59.471  21.981  15.440  1.00  0.00    -0.348 OA
HETATM   16  C16 UNL     1      60.714  22.421  15.192  1.00  0.00     0.179 C 
HETATM   17  C18 UNL     1      61.489  22.734  16.419  1.00  0.00     0.180 C 
HETATM   18  C19 UNL     1      60.613  22.322  17.614  1.00  0.00     0.183 C 
HETATM   19  C20 UNL     1      60.197  20.857  17.360  1.00  0.00     0.204 C 
BRANCH  16  20
HETATM   20  C17 UNL     1      61.456  21.591  14.171  1.00  0.00     0.198 C 
BRANCH  20  21
HETATM   21  O6  UNL     1      60.562  21.209  13.167  1.00  0.00    -0.398 OA
ATOM     22  H6  UNL     1      61.052  20.811  12.457  1.00  0.00     0.209 HD
ENDBRANCH  20  21
ENDBRANCH  16  20
BRANCH  17  23
HETATM   23  O7  UNL     1      61.722  24.089  16.530  1.00  0.00    -0.390 OA
ATOM     24  H7  UNL     1      61.257  24.574  15.858  1.00  0.00     0.210 HD
ENDBRANCH  17  23
BRANCH  18  25
HETATM   25  O8  UNL     1      59.534  23.167  17.645  1.00  0.00    -0.390 OA
ATOM     26  H8  UNL     1      58.751  22.630  17.664  1.00  0.00     0.210 HD
ENDBRANCH  18  25
BRANCH  19  27
HETATM   27  O9  UNL     1      61.405  20.220  17.101  1.00  0.00    -0.388 OA
ATOM     28  H9  UNL     1      62.155  20.802  17.136  1.00  0.00     0.210 HD
ENDBRANCH  19  27
ENDBRANCH  13  14
ENDBRANCH  11  13
BRANCH   9  29
HETATM   29  C13 UNL     1      58.889  17.690  13.649  1.00  0.00     0.176 C 
BRANCH  29  30
HETATM   30  O3  UNL     1      60.011  18.137  12.955  1.00  0.00    -0.400 OA
ATOM     31  H3  UNL     1      60.237  17.537  12.254  1.00  0.00     0.209 HD
ENDBRANCH  29  30
ENDBRANCH   9  29
BRANCH  12  32
HETATM   32  O10 UNL     1      56.662  19.884  16.383  1.00  0.00    -0.385 OA
HETATM   33  C22 UNL     1      55.296  19.889  16.602  1.00  0.00     0.202 C 
ENDBRANCH  12  32
BRANCH   1  34
HETATM   34  O1  UNL     1      56.858  17.207  17.726  1.00  0.00    -0.388 OA
HETATM   35  C1  UNL     1      58.113  17.593  18.106  1.00  0.00     0.202 C 
ENDBRANCH   1  34
BRANCH   2  36
HETATM   36  C4  UNL     1      55.013  15.632  15.844  1.00  0.00     0.171 C 
BRANCH  36  37
HETATM   37  O2  UNL     1      54.114  15.790  14.758  1.00  0.00    -0.400 OA
ATOM     38  H2  UNL     1      54.419  16.564  14.300  1.00  0.00     0.209 HD
ENDBRANCH  36  37
ENDBRANCH   2  36
TORSDOF 13
ENDMDL
MODEL 3
REMARK VINA RESULT: -3.753259137      0.987      1.675
REMARK  13 active torsions:
REMARK  status: ('A' for Active; 'I' for Inactive)
REMARK    1  A    between atoms: O1_2  and  C2_3 
REMARK    2  A    between atoms: C3_4  and  C4_5 
REMARK    3  A    between atoms: C4_5  and  O2_6 
REMARK    4  A    between atoms: C11_14  and  C13_16 
REMARK    5  A    between atoms: C13_16  and  O3_17 
REMARK    6  A    between atoms: C14_19  and  O4_20 
REMARK    7  A    between atoms: O4_20  and  C15_21 
REMARK    8  A    between atoms: C16_23  and  C17_24 
REMARK    9  A    between atoms: C17_24  and  O6_25 
REMARK   10  A    between atoms: C18_27  and  O7_28 
REMARK   11  A    between atoms: C19_30  and  O8_31 
REMARK   12  A    between atoms: C20_33  and  O9_34 
REMARK   13  A    between atoms: C21_36  and  O10_37 
ROOT
HETATM    1  C2  UNL     1      60.696  20.677  12.971  1.00  0.00     0.159 C 
HETATM    2  C3  UNL     1      60.685  19.200  13.300  1.00  0.00     0.046 C 
HETATM    3  C5  UNL     1      59.904  18.805  14.492  1.00  0.00     0.003 C 
HETATM    4  C6  UNL     1      58.744  17.880  14.199  1.00  0.00    -0.014 C 
HETATM    5  C7  UNL     1      59.161  16.406  14.324  1.00  0.00     0.010 C 
HETATM    6  C8  UNL     1      57.770  18.113  15.325  1.00  0.00     0.005 C 
HETATM    7  C9  UNL     1      58.443  19.117  16.278  1.00  0.00     0.006 C 
HETATM    8  C10 UNL     1      59.311  19.875  15.321  1.00  0.00     0.003 C 
HETATM    9  C11 UNL     1      60.300  20.728  16.051  1.00  0.00     0.010 C 
HETATM   10  C12 UNL     1      59.603  21.264  17.278  1.00  0.00     0.020 C 
HETATM   11  C14 UNL     1      60.819  21.866  15.200  1.00  0.00     0.166 C 
HETATM   12  C21 UNL     1      61.555  21.389  13.988  1.00  0.00     0.180 C 
ENDROOT
BRANCH  11  13
HETATM   13  O4  UNL     1      61.672  22.583  15.989  1.00  0.00    -0.350 OA
BRANCH  13  14
HETATM   14  C15 UNL     1      61.135  23.579  16.753  1.00  0.00     0.292 C 
HETATM   15  O5  UNL     1      60.701  24.571  15.933  1.00  0.00    -0.348 OA
HETATM   16  C16 UNL     1      61.500  25.613  15.662  1.00  0.00     0.179 C 
HETATM   17  C18 UNL     1      61.942  26.353  16.872  1.00  0.00     0.180 C 
HETATM   18  C19 UNL     1      61.409  25.575  18.086  1.00  0.00     0.183 C 
HETATM   19  C20 UNL     1      61.877  24.115  17.904  1.00  0.00     0.204 C 
BRANCH  16  20
HETATM   20  C17 UNL     1      62.603  25.290  14.681  1.00  0.00     0.198 C 
BRANCH  20  21
HETATM   21  O6  UNL     1      63.686  26.137  14.929  1.00  0.00    -0.398 OA
ATOM     22  H6  UNL     1      64.490  25.637  14.845  1.00  0.00     0.209 HD
ENDBRANCH  20  21
ENDBRANCH  16  20
BRANCH  17  23
HETATM   23  O7  UNL     1      61.386  27.615  16.916  1.00  0.00    -0.390 OA
ATOM     24  H7  UNL     1      62.001  28.249  17.265  1.00  0.00     0.210 HD
ENDBRANCH  17  23
BRANCH  18  25
HETATM   25  O8  UNL     1      60.042  25.684  18.079  1.00  0.00    -0.390 OA
ATOM     26  H8  UNL     1      59.693  24.869  17.736  1.00  0.00     0.210 HD
ENDBRANCH  18  25
BRANCH  19  27
HETATM   27  O9  UNL     1      63.241  24.242  17.674  1.00  0.00    -0.388 OA
ATOM     28  H9  UNL     1      63.606  25.058  17.995  1.00  0.00     0.210 HD
ENDBRANCH  19  27
ENDBRANCH  13  14
ENDBRANCH  11  13
BRANCH   9  29
HETATM   29  C13 UNL     1      61.461  19.916  16.586  1.00  0.00     0.176 C 
BRANCH  29  30
HETATM   30  O3  UNL     1      62.020  20.528  17.706  1.00  0.00    -0.400 OA
ATOM     31  H3  UNL     1      61.363  21.016  18.189  1.00  0.00     0.209 HD
ENDBRANCH  29  30
ENDBRANCH   9  29
BRANCH  12  32
HETATM   32  O10 UNL     1      62.208  22.393  13.338  1.00  0.00    -0.385 OA
HETATM   33  C22 UNL     1      62.234  22.276  11.960  1.00  0.00     0.202 C 
ENDBRANCH  12  32
BRANCH   1  34
HETATM   34  O1  UNL     1      59.519  21.246  12.657  1.00  0.00    -0.388 OA
HETATM   35  C1  UNL     1      59.427  21.891  11.455  1.00  0.00     0.202 C 
ENDBRANCH   1  34
BRANCH   2  36
HETATM   36  C4  UNL     1      60.407  18.370  12.051  1.00  0.00     0.171 C 
BRANCH  36  37
HETATM   37  O2  UNL     1      61.110  19.029  11.010  1.00  0.00    -0.400 OA
ATOM     38  H2  UNL     1      61.354  18.339  10.405  1.00  0.00     0.209 HD
ENDBRANCH  36  37
ENDBRANCH   2  36
TORSDOF 13
ENDMDL
MODEL 4
REMARK VINA RESULT: -3.591047753      5.989      9.600
REMARK  13 active torsions:
REMARK  status: ('A' for Active; 'I' for Inactive)
REMARK    1  A    between atoms: O1_2  and  C2_3 
REMARK    2  A    between atoms: C3_4  and  C4_5 
REMARK    3  A    between atoms: C4_5  and  O2_6 
REMARK    4  A    between atoms: C11_14  and  C13_16 
REMARK    5  A    between atoms: C13_16  and  O3_17 
REMARK    6  A    between atoms: C14_19  and  O4_20 
REMARK    7  A    between atoms: O4_20  and  C15_21 
REMARK    8  A    between atoms: C16_23  and  C17_24 
REMARK    9  A    between atoms: C17_24  and  O6_25 
REMARK   10  A    between atoms: C18_27  and  O7_28 
REMARK   11  A    between atoms: C19_30  and  O8_31 
REMARK   12  A    between atoms: C20_33  and  O9_34 
REMARK   13  A    between atoms: C21_36  and  O10_37 
ROOT
HETATM    1  C2  UNL     1      56.230  12.070  13.675  1.00  0.00     0.159 C 
HETATM    2  C3  UNL     1      55.089  12.255  12.700  1.00  0.00     0.046 C 
HETATM    3  C5  UNL     1      55.210  13.397  11.766  1.00  0.00     0.003 C 
HETATM    4  C6  UNL     1      55.271  13.005  10.306  1.00  0.00    -0.014 C 
HETATM    5  C7  UNL     1      53.871  12.992   9.674  1.00  0.00     0.010 C 
HETATM    6  C8  UNL     1      56.000  14.139   9.633  1.00  0.00     0.005 C 
HETATM    7  C9  UNL     1      56.269  15.190  10.724  1.00  0.00     0.006 C 
HETATM    8  C10 UNL     1      56.352  14.318  11.940  1.00  0.00     0.003 C 
HETATM    9  C11 UNL     1      56.316  15.136  13.192  1.00  0.00     0.010 C 
HETATM   10  C12 UNL     1      57.092  16.403  12.917  1.00  0.00     0.020 C 
HETATM   11  C14 UNL     1      56.907  14.404  14.377  1.00  0.00     0.166 C 
HETATM   12  C21 UNL     1      56.151  13.159  14.718  1.00  0.00     0.180 C 
ENDROOT
BRANCH  11  13
HETATM   13  O4  UNL     1      56.852  15.266  15.434  1.00  0.00    -0.350 OA
BRANCH  13  14
HETATM   14  C15 UNL     1      57.923  15.293  16.279  1.00  0.00     0.292 C 
HETATM   15  O5  UNL     1      57.763  16.322  17.152  1.00  0.00    -0.348 OA
HETATM   16  C16 UNL     1      58.315  17.516  16.888  1.00  0.00     0.179 C 
HETATM   17  C18 UNL     1      59.788  17.461  16.707  1.00  0.00     0.180 C 
HETATM   18  C19 UNL     1      60.188  15.978  16.770  1.00  0.00     0.183 C 
HETATM   19  C20 UNL     1      59.293  15.245  15.746  1.00  0.00     0.204 C 
BRANCH  16  20
HETATM   20  C17 UNL     1      57.578  18.302  15.830  1.00  0.00     0.198 C 
BRANCH  20  21
HETATM   21  O6  UNL     1      58.513  18.916  14.993  1.00  0.00    -0.398 OA
ATOM     22  H6  UNL     1      58.172  18.923  14.106  1.00  0.00     0.209 HD
ENDBRANCH  20  21
ENDBRANCH  16  20
BRANCH  17  23
HETATM   23  O7  UNL     1      60.442  18.106  17.737  1.00  0.00    -0.390 OA
ATOM     24  H7  UNL     1      61.195  18.589  17.417  1.00  0.00     0.210 HD
ENDBRANCH  17  23
BRANCH  18  25
HETATM   25  O8  UNL     1      59.967  15.545  18.051  1.00  0.00    -0.390 OA
ATOM     26  H8  UNL     1      59.123  15.107  18.065  1.00  0.00     0.210 HD
ENDBRANCH  18  25
BRANCH  19  27
HETATM   27  O9  UNL     1      59.462  15.987  14.584  1.00  0.00    -0.388 OA
ATOM     28  H9  UNL     1      60.026  16.742  14.694  1.00  0.00     0.210 HD
ENDBRANCH  19  27
ENDBRANCH  13  14
ENDBRANCH  11  13
BRANCH   9  29
HETATM   29  C13 UNL     1      54.914  15.603  13.524  1.00  0.00     0.176 C 
BRANCH  29  30
HETATM   30  O3  UNL     1      54.913  16.395  14.670  1.00  0.00    -0.400 OA
ATOM     31  H3  UNL     1      54.534  17.248  14.491  1.00  0.00     0.209 HD
ENDBRANCH  29  30
ENDBRANCH   9  29
BRANCH  12  32
HETATM   32  O10 UNL     1      56.540  12.615  15.906  1.00  0.00    -0.385 OA
HETATM   33  C22 UNL     1      55.596  11.808  16.515  1.00  0.00     0.202 C 
ENDBRANCH  12  32
BRANCH   1  34
HETATM   34  O1  UNL     1      57.442  11.800  13.161  1.00  0.00    -0.388 OA
HETATM   35  C1  UNL     1      57.916  10.524  13.287  1.00  0.00     0.202 C 
ENDBRANCH   1  34
BRANCH   2  36
HETATM   36  C4  UNL     1      54.718  10.930  12.041  1.00  0.00     0.171 C 
BRANCH  36  37
HETATM   37  O2  UNL     1      55.879  10.542  11.325  1.00  0.00    -0.400 OA
ATOM     38  H2  UNL     1      55.565   9.945  10.657  1.00  0.00     0.209 HD
ENDBRANCH  36  37
ENDBRANCH   2  36
TORSDOF 13
ENDMDL
MODEL 5
REMARK VINA RESULT: -3.436080976      1.934      4.276
REMARK  13 active torsions:
REMARK  status: ('A' for Active; 'I' for Inactive)
REMARK    1  A    between atoms: O1_2  and  C2_3 
REMARK    2  A    between atoms: C3_4  and  C4_5 
REMARK    3  A    between atoms: C4_5  and  O2_6 
REMARK    4  A    between atoms: C11_14  and  C13_16 
REMARK    5  A    between atoms: C13_16  and  O3_17 
REMARK    6  A    between atoms: C14_19  and  O4_20 
REMARK    7  A    between atoms: O4_20  and  C15_21 
REMARK    8  A    between atoms: C16_23  and  C17_24 
REMARK    9  A    between atoms: C17_24  and  O6_25 
REMARK   10  A    between atoms: C18_27  and  O7_28 
REMARK   11  A    between atoms: C19_30  and  O8_31 
REMARK   12  A    between atoms: C20_33  and  O9_34 
REMARK   13  A    between atoms: C21_36  and  O10_37 
ROOT
HETATM    1  C2  UNL     1      59.608  18.774  14.406  1.00  0.00     0.159 C 
HETATM    2  C3  UNL     1      59.001  18.623  13.028  1.00  0.00     0.046 C 
HETATM    3  C5  UNL     1      59.816  19.125  11.900  1.00  0.00     0.003 C 
HETATM    4  C6  UNL     1      60.227  18.062  10.906  1.00  0.00    -0.014 C 
HETATM    5  C7  UNL     1      59.210  17.947   9.760  1.00  0.00     0.010 C 
HETATM    6  C8  UNL     1      61.484  18.595  10.268  1.00  0.00     0.005 C 
HETATM    7  C9  UNL     1      61.713  19.994  10.867  1.00  0.00     0.006 C 
HETATM    8  C10 UNL     1      61.075  19.832  12.213  1.00  0.00     0.003 C 
HETATM    9  C11 UNL     1      60.904  21.155  12.890  1.00  0.00     0.010 C 
HETATM   10  C12 UNL     1      62.112  21.991  12.543  1.00  0.00     0.020 C 
HETATM   11  C14 UNL     1      60.769  21.021  14.390  1.00  0.00     0.166 C 
HETATM   12  C21 UNL     1      59.562  20.234  14.792  1.00  0.00     0.180 C 
ENDROOT
BRANCH  11  13
HETATM   13  O4  UNL     1      60.661  22.289  14.886  1.00  0.00    -0.350 OA
BRANCH  13  14
HETATM   14  C15 UNL     1      61.479  22.631  15.923  1.00  0.00     0.292 C 
HETATM   15  O5  UNL     1      60.727  22.757  17.048  1.00  0.00    -0.348 OA
HETATM   16  C16 UNL     1      60.259  23.961  17.407  1.00  0.00     0.179 C 
HETATM   17  C18 UNL     1      61.324  24.978  17.605  1.00  0.00     0.180 C 
HETATM   18  C19 UNL     1      62.650  24.314  17.202  1.00  0.00     0.183 C 
HETATM   19  C20 UNL     1      62.434  23.741  15.784  1.00  0.00     0.204 C 
BRANCH  16  20
HETATM   20  C17 UNL     1      59.087  24.427  16.575  1.00  0.00     0.198 C 
BRANCH  20  21
HETATM   21  O6  UNL     1      58.991  25.817  16.674  1.00  0.00    -0.398 OA
ATOM     22  H6  UNL     1      59.264  26.202  15.850  1.00  0.00     0.209 HD
ENDBRANCH  20  21
ENDBRANCH  16  20
BRANCH  17  23
HETATM   23  O7  UNL     1      61.431  25.336  18.933  1.00  0.00    -0.390 OA
ATOM     24  H7  UNL     1      61.662  24.589  19.473  1.00  0.00     0.210 HD
ENDBRANCH  17  23
BRANCH  18  25
HETATM   25  O8  UNL     1      62.917  23.332  18.120  1.00  0.00    -0.390 OA
ATOM     26  H8  UNL     1      62.334  22.604  17.938  1.00  0.00     0.210 HD
ENDBRANCH  18  25
BRANCH  19  27
HETATM   27  O9  UNL     1      61.926  24.823  15.075  1.00  0.00    -0.388 OA
ATOM     28  H9  UNL     1      62.559  25.517  14.936  1.00  0.00     0.210 HD
ENDBRANCH  19  27
ENDBRANCH  13  14
ENDBRANCH  11  13
BRANCH   9  29
HETATM   29  C13 UNL     1      59.724  21.926  12.335  1.00  0.00     0.176 C 
BRANCH  29  30
HETATM   30  O3  UNL     1      60.138  22.833  11.362  1.00  0.00    -0.400 OA
ATOM     31  H3  UNL     1      59.595  22.768  10.585  1.00  0.00     0.209 HD
ENDBRANCH  29  30
ENDBRANCH   9  29
BRANCH  12  32
HETATM   32  O10 UNL     1      59.315  20.293  16.131  1.00  0.00    -0.385 OA
HETATM   33  C22 UNL     1      58.284  19.481  16.570  1.00  0.00     0.202 C 
ENDBRANCH  12  32
BRANCH   1  34
HETATM   34  O1  UNL     1      60.750  18.110  14.653  1.00  0.00    -0.388 OA
HETATM   35  C1  UNL     1      60.679  16.991  15.433  1.00  0.00     0.202 C 
ENDBRANCH   1  34
BRANCH   2  36
HETATM   36  C4  UNL     1      58.442  17.216  12.835  1.00  0.00     0.171 C 
BRANCH  36  37
HETATM   37  O2  UNL     1      57.513  17.045  13.893  1.00  0.00    -0.400 OA
ATOM     38  H2  UNL     1      57.792  16.252  14.335  1.00  0.00     0.209 HD
ENDBRANCH  36  37
ENDBRANCH   2  36
TORSDOF 13
ENDMDL
