MODEL 1
REMARK VINA RESULT: -8.172236249      0.000      0.000
REMARK  11 active torsions:
REMARK  status: ('A' for Active; 'I' for Inactive)
REMARK    1  A    between atoms: C4_5  and  C5_6 
REMARK       I    between atoms: C5_6  and  N1_8 
REMARK    2  A    between atoms: N1_8  and  C6_10 
REMARK    3  A    between atoms: C8_13  and  C9_14 
REMARK    4  A    between atoms: C9_14  and  O3_15 
REMARK    5  A    between atoms: C10_17  and  O4_18 
REMARK    6  A    between atoms: C11_20  and  O5_21 
REMARK    7  A    between atoms: C12_23  and  C13_24 
REMARK    8  A    between atoms: C13_24  and  S2_25 
REMARK    9  A    between atoms: S2_25  and  C14_26 
REMARK   10  A    between atoms: C17_33  and  C18_34 
REMARK   11  A    between atoms: C18_34  and  N3_35 
ROOT
HETATM    1  C1  UNL     1      57.653  16.843  17.069  1.00  0.00     0.027 C 
HETATM    2  C2  UNL     1      58.026  17.980  16.157  1.00  0.00     0.007 C 
HETATM    3  C3  UNL     1      56.859  18.652  15.524  1.00  0.00     0.027 C 
HETATM    4  S1  UNL     1      59.043  19.151  17.143  1.00  0.00    -0.144 SA
HETATM    5  C4  UNL     1      60.318  19.521  15.863  1.00  0.00     0.145 C 
HETATM    6  C12 UNL     1      59.660  18.874  14.676  1.00  0.00     0.025 C 
HETATM    7  C17 UNL     1      59.088  17.558  15.133  1.00  0.00     0.035 C 
ENDROOT
BRANCH   5   8
HETATM    8  C5  UNL     1      60.520  20.964  15.738  1.00  0.00     0.232 C 
HETATM    9  O1  UNL     1      60.199  21.544  14.676  1.00  0.00    -0.272 OA
HETATM   10  N1  UNL     1      61.071  21.748  16.782  1.00  0.00    -0.351 N 
ATOM     11  H1  UNL     1      61.338  21.293  17.655  1.00  0.00     0.163 HD
BRANCH  10  12
HETATM   12  C6  UNL     1      61.267  23.193  16.644  1.00  0.00     0.139 C 
HETATM   13  C7  UNL     1      60.018  23.849  17.160  1.00  0.00     0.196 C 
HETATM   14  O2  UNL     1      60.003  25.214  17.029  1.00  0.00    -0.379 OA
HETATM   15  C8  UNL     1      61.194  25.846  17.286  1.00  0.00     0.176 C 
HETATM   16  C10 UNL     1      62.205  25.022  17.999  1.00  0.00     0.180 C 
HETATM   17  C11 UNL     1      62.428  23.658  17.454  1.00  0.00     0.174 C 
BRANCH  15  18
HETATM   18  C9  UNL     1      61.773  26.490  16.017  1.00  0.00     0.198 C 
BRANCH  18  19
HETATM   19  O3  UNL     1      62.862  27.289  16.323  1.00  0.00    -0.398 OA
ATOM     20  H3  UNL     1      63.420  27.406  15.562  1.00  0.00     0.209 HD
ENDBRANCH  18  19
ENDBRANCH  15  18
BRANCH  16  21
HETATM   21  O4  UNL     1      61.909  24.971  19.381  1.00  0.00    -0.390 OA
ATOM     22  H4  UNL     1      62.711  24.951  19.889  1.00  0.00     0.210 HD
ENDBRANCH  16  21
BRANCH  17  23
HETATM   23  O5  UNL     1      62.622  22.777  18.508  1.00  0.00    -0.391 OA
ATOM     24  H5  UNL     1      63.059  23.236  19.215  1.00  0.00     0.210 HD
ENDBRANCH  17  23
ENDBRANCH  10  12
ENDBRANCH   5   8
BRANCH   6  25
HETATM   25  C13 UNL     1      60.537  18.737  13.470  1.00  0.00     0.085 C 
BRANCH  25  26
HETATM   26  S2  UNL     1      59.551  17.914  12.161  1.00  0.00    -0.109 SA
BRANCH  26  27
HETATM   27  C14 UNL     1      60.352  18.186  10.559  1.00  0.00     0.385 C 
HETATM   28  N2  UNL     1      61.356  19.201  10.612  1.00  0.00    -0.037 N 
HETATM   29  C15 UNL     1      60.716  20.442  10.268  1.00  0.00     0.262 C 
ATOM     30  H22 UNL     1      61.844  19.236  11.507  1.00  0.00     0.281 HD
ATOM     31  H21 UNL     1      62.167  18.994  10.030  1.00  0.00     0.281 HD
HETATM   32  C16 UNL     1      59.470  19.978   9.552  1.00  0.00     0.199 C 
HETATM   33  O6  UNL     1      59.473  18.599   9.586  1.00  0.00    -0.350 OA
ENDBRANCH  26  27
ENDBRANCH  25  26
ENDBRANCH   6  25
BRANCH   7  34
HETATM   34  C18 UNL     1      60.048  16.687  15.875  1.00  0.00     0.236 C 
BRANCH  34  35
HETATM   35  N3  UNL     1      60.139  15.336  15.431  1.00  0.00    -0.079 N 
ATOM     36  H33 UNL     1      59.215  14.995  15.167  1.00  0.00     0.274 HD
ATOM     37  H32 UNL     1      60.613  15.299  14.529  1.00  0.00     0.274 HD
ATOM     38  H31 UNL     1      60.577  14.680  16.079  1.00  0.00     0.274 HD
ENDBRANCH  34  35
ENDBRANCH   7  34
TORSDOF 11
ENDMDL
MODEL 2
REMARK VINA RESULT: -7.730943498      1.508      2.085
REMARK  11 active torsions:
REMARK  status: ('A' for Active; 'I' for Inactive)
REMARK    1  A    between atoms: C4_5  and  C5_6 
REMARK       I    between atoms: C5_6  and  N1_8 
REMARK    2  A    between atoms: N1_8  and  C6_10 
REMARK    3  A    between atoms: C8_13  and  C9_14 
REMARK    4  A    between atoms: C9_14  and  O3_15 
REMARK    5  A    between atoms: C10_17  and  O4_18 
REMARK    6  A    between atoms: C11_20  and  O5_21 
REMARK    7  A    between atoms: C12_23  and  C13_24 
REMARK    8  A    between atoms: C13_24  and  S2_25 
REMARK    9  A    between atoms: S2_25  and  C14_26 
REMARK   10  A    between atoms: C17_33  and  C18_34 
REMARK   11  A    between atoms: C18_34  and  N3_35 
ROOT
HETATM    1  C1  UNL     1      56.953  15.333  15.750  1.00  0.00     0.027 C 
HETATM    2  C2  UNL     1      57.429  16.690  15.305  1.00  0.00     0.007 C 
HETATM    3  C3  UNL     1      56.522  17.357  14.332  1.00  0.00     0.027 C 
HETATM    4  S1  UNL     1      57.673  17.700  16.821  1.00  0.00    -0.144 SA
HETATM    5  C4  UNL     1      59.260  18.506  16.337  1.00  0.00     0.145 C 
HETATM    6  C12 UNL     1      59.308  18.089  14.893  1.00  0.00     0.025 C 
HETATM    7  C17 UNL     1      58.884  16.646  14.820  1.00  0.00     0.035 C 
ENDROOT
BRANCH   5   8
HETATM    8  C5  UNL     1      59.192  19.950  16.553  1.00  0.00     0.232 C 
HETATM    9  O1  UNL     1      58.080  20.525  16.547  1.00  0.00    -0.272 OA
HETATM   10  N1  UNL     1      60.347  20.741  16.772  1.00  0.00    -0.351 N 
ATOM     11  H1  UNL     1      61.262  20.290  16.781  1.00  0.00     0.163 HD
BRANCH  10  12
HETATM   12  C6  UNL     1      60.266  22.188  16.988  1.00  0.00     0.139 C 
HETATM   13  C7  UNL     1      61.503  22.581  17.744  1.00  0.00     0.196 C 
HETATM   14  O2  UNL     1      61.549  23.905  18.100  1.00  0.00    -0.379 OA
HETATM   15  C8  UNL     1      61.084  24.787  17.158  1.00  0.00     0.176 C 
HETATM   16  C10 UNL     1      60.937  24.230  15.787  1.00  0.00     0.180 C 
HETATM   17  C11 UNL     1      60.235  22.924  15.693  1.00  0.00     0.174 C 
BRANCH  15  18
HETATM   18  C9  UNL     1      59.800  25.488  17.629  1.00  0.00     0.198 C 
BRANCH  18  19
HETATM   19  O3  UNL     1      59.570  26.640  16.897  1.00  0.00    -0.398 OA
ATOM     20  H3  UNL     1      58.832  27.124  17.251  1.00  0.00     0.209 HD
ENDBRANCH  18  19
ENDBRANCH  15  18
BRANCH  16  21
HETATM   21  O4  UNL     1      62.196  24.173  15.145  1.00  0.00    -0.390 OA
ATOM     22  H4  UNL     1      62.083  24.084  14.206  1.00  0.00     0.210 HD
ENDBRANCH  16  21
BRANCH  17  23
HETATM   23  O5  UNL     1      60.852  22.149  14.722  1.00  0.00    -0.391 OA
ATOM     24  H5  UNL     1      61.661  22.571  14.459  1.00  0.00     0.210 HD
ENDBRANCH  17  23
ENDBRANCH  10  12
ENDBRANCH   5   8
BRANCH   6  25
HETATM   25  C13 UNL     1      60.617  18.343  14.211  1.00  0.00     0.085 C 
BRANCH  25  26
HETATM   26  S2  UNL     1      60.281  19.396  12.747  1.00  0.00    -0.109 SA
BRANCH  26  27
HETATM   27  C14 UNL     1      60.590  18.433  11.244  1.00  0.00     0.385 C 
HETATM   28  N2  UNL     1      61.480  19.093  10.341  1.00  0.00    -0.037 N 
HETATM   29  C15 UNL     1      60.667  19.857   9.434  1.00  0.00     0.262 C 
ATOM     30  H22 UNL     1      62.189  19.653  10.815  1.00  0.00     0.281 HD
ATOM     31  H21 UNL     1      62.117  18.453   9.867  1.00  0.00     0.281 HD
HETATM   32  C16 UNL     1      59.318  19.192   9.568  1.00  0.00     0.199 C 
HETATM   33  O6  UNL     1      59.448  18.198  10.516  1.00  0.00    -0.350 OA
ENDBRANCH  26  27
ENDBRANCH  25  26
ENDBRANCH   6  25
BRANCH   7  34
HETATM   34  C18 UNL     1      59.603  15.738  15.763  1.00  0.00     0.236 C 
BRANCH  34  35
HETATM   35  N3  UNL     1      61.016  15.906  15.839  1.00  0.00    -0.079 N 
ATOM     36  H33 UNL     1      61.316  16.614  15.168  1.00  0.00     0.274 HD
ATOM     37  H32 UNL     1      61.263  16.366  16.715  1.00  0.00     0.274 HD
ATOM     38  H31 UNL     1      61.574  15.060  15.722  1.00  0.00     0.274 HD
ENDBRANCH  34  35
ENDBRANCH   7  34
TORSDOF 11
ENDMDL
MODEL 3
REMARK VINA RESULT: -7.380955390      1.382      1.978
REMARK  11 active torsions:
REMARK  status: ('A' for Active; 'I' for Inactive)
REMARK    1  A    between atoms: C4_5  and  C5_6 
REMARK       I    between atoms: C5_6  and  N1_8 
REMARK    2  A    between atoms: N1_8  and  C6_10 
REMARK    3  A    between atoms: C8_13  and  C9_14 
REMARK    4  A    between atoms: C9_14  and  O3_15 
REMARK    5  A    between atoms: C10_17  and  O4_18 
REMARK    6  A    between atoms: C11_20  and  O5_21 
REMARK    7  A    between atoms: C12_23  and  C13_24 
REMARK    8  A    between atoms: C13_24  and  S2_25 
REMARK    9  A    between atoms: S2_25  and  C14_26 
REMARK   10  A    between atoms: C17_33  and  C18_34 
REMARK   11  A    between atoms: C18_34  and  N3_35 
ROOT
HETATM    1  C1  UNL     1      57.724  15.665  16.075  1.00  0.00     0.027 C 
HETATM    2  C2  UNL     1      57.941  17.072  15.588  1.00  0.00     0.007 C 
HETATM    3  C3  UNL     1      56.757  17.663  14.906  1.00  0.00     0.027 C 
HETATM    4  S1  UNL     1      58.468  18.071  17.039  1.00  0.00    -0.144 SA
HETATM    5  C4  UNL     1      59.796  19.045  16.208  1.00  0.00     0.145 C 
HETATM    6  C12 UNL     1      59.513  18.666  14.781  1.00  0.00     0.025 C 
HETATM    7  C17 UNL     1      59.221  17.188  14.750  1.00  0.00     0.035 C 
ENDROOT
BRANCH   5   8
HETATM    8  C5  UNL     1      59.649  20.470  16.501  1.00  0.00     0.232 C 
HETATM    9  O1  UNL     1      58.510  20.987  16.509  1.00  0.00    -0.272 OA
HETATM   10  N1  UNL     1      60.760  21.306  16.780  1.00  0.00    -0.351 N 
ATOM     11  H1  UNL     1      61.696  20.903  16.778  1.00  0.00     0.163 HD
BRANCH  10  12
HETATM   12  C6  UNL     1      60.600  22.733  17.073  1.00  0.00     0.139 C 
HETATM   13  C7  UNL     1      61.817  23.153  17.847  1.00  0.00     0.196 C 
HETATM   14  O2  UNL     1      61.791  24.457  18.274  1.00  0.00    -0.379 OA
HETATM   15  C8  UNL     1      61.275  25.360  17.380  1.00  0.00     0.176 C 
HETATM   16  C10 UNL     1      61.155  24.869  15.982  1.00  0.00     0.180 C 
HETATM   17  C11 UNL     1      60.525  23.534  15.819  1.00  0.00     0.174 C 
BRANCH  15  18
HETATM   18  C9  UNL     1      59.957  25.964  17.889  1.00  0.00     0.198 C 
BRANCH  18  19
HETATM   19  O3  UNL     1      59.456  26.886  16.986  1.00  0.00    -0.398 OA
ATOM     20  H3  UNL     1      59.260  26.472  16.153  1.00  0.00     0.209 HD
ENDBRANCH  18  19
ENDBRANCH  15  18
BRANCH  16  21
HETATM   21  O4  UNL     1      62.412  24.916  15.336  1.00  0.00    -0.390 OA
ATOM     22  H4  UNL     1      62.917  24.139  15.542  1.00  0.00     0.210 HD
ENDBRANCH  16  21
BRANCH  17  23
HETATM   23  O5  UNL     1      61.179  22.846  14.807  1.00  0.00    -0.391 OA
ATOM     24  H5  UNL     1      61.277  23.422  14.058  1.00  0.00     0.210 HD
ENDBRANCH  17  23
ENDBRANCH  10  12
ENDBRANCH   5   8
BRANCH   6  25
HETATM   25  C13 UNL     1      60.574  19.067  13.804  1.00  0.00     0.085 C 
BRANCH  25  26
HETATM   26  S2  UNL     1      60.120  18.358  12.174  1.00  0.00    -0.109 SA
BRANCH  26  27
HETATM   27  C14 UNL     1      59.808  19.709  11.008  1.00  0.00     0.385 C 
HETATM   28  N2  UNL     1      60.053  19.333   9.652  1.00  0.00    -0.037 N 
HETATM   29  C15 UNL     1      61.418  19.677   9.362  1.00  0.00     0.262 C 
ATOM     30  H22 UNL     1      59.837  18.354   9.462  1.00  0.00     0.281 HD
ATOM     31  H21 UNL     1      59.388  19.742   8.996  1.00  0.00     0.281 HD
HETATM   32  C16 UNL     1      61.732  20.692  10.435  1.00  0.00     0.199 C 
HETATM   33  O6  UNL     1      60.610  20.802  11.230  1.00  0.00    -0.350 OA
ENDBRANCH  26  27
ENDBRANCH  25  26
ENDBRANCH   6  25
BRANCH   7  34
HETATM   34  C18 UNL     1      60.239  16.340  15.439  1.00  0.00     0.236 C 
BRANCH  34  35
HETATM   35  N3  UNL     1      60.112  14.933  15.251  1.00  0.00    -0.079 N 
ATOM     36  H33 UNL     1      60.542  14.439  16.034  1.00  0.00     0.274 HD
ATOM     37  H32 UNL     1      59.138  14.655  15.371  1.00  0.00     0.274 HD
ATOM     38  H31 UNL     1      60.471  14.565  14.370  1.00  0.00     0.274 HD
ENDBRANCH  34  35
ENDBRANCH   7  34
TORSDOF 11
ENDMDL
MODEL 4
REMARK VINA RESULT: -7.296614743      1.201      1.391
REMARK  11 active torsions:
REMARK  status: ('A' for Active; 'I' for Inactive)
REMARK    1  A    between atoms: C4_5  and  C5_6 
REMARK       I    between atoms: C5_6  and  N1_8 
REMARK    2  A    between atoms: N1_8  and  C6_10 
REMARK    3  A    between atoms: C8_13  and  C9_14 
REMARK    4  A    between atoms: C9_14  and  O3_15 
REMARK    5  A    between atoms: C10_17  and  O4_18 
REMARK    6  A    between atoms: C11_20  and  O5_21 
REMARK    7  A    between atoms: C12_23  and  C13_24 
REMARK    8  A    between atoms: C13_24  and  S2_25 
REMARK    9  A    between atoms: S2_25  and  C14_26 
REMARK   10  A    between atoms: C17_33  and  C18_34 
REMARK   11  A    between atoms: C18_34  and  N3_35 
ROOT
HETATM    1  C1  UNL     1      57.158  16.658  16.974  1.00  0.00     0.027 C 
HETATM    2  C2  UNL     1      57.731  17.795  16.172  1.00  0.00     0.007 C 
HETATM    3  C3  UNL     1      56.713  18.570  15.413  1.00  0.00     0.027 C 
HETATM    4  S1  UNL     1      58.675  18.857  17.338  1.00  0.00    -0.144 SA
HETATM    5  C4  UNL     1      60.140  19.176  16.264  1.00  0.00     0.145 C 
HETATM    6  C12 UNL     1      59.615  18.616  14.971  1.00  0.00     0.025 C 
HETATM    7  C17 UNL     1      58.897  17.331  15.288  1.00  0.00     0.035 C 
ENDROOT
BRANCH   5   8
HETATM    8  C5  UNL     1      60.453  20.603  16.229  1.00  0.00     0.232 C 
HETATM    9  O1  UNL     1      59.571  21.422  15.887  1.00  0.00    -0.272 OA
HETATM   10  N1  UNL     1      61.733  21.109  16.569  1.00  0.00    -0.351 N 
ATOM     11  H1  UNL     1      62.465  20.456  16.850  1.00  0.00     0.163 HD
BRANCH  10  12
HETATM   12  C6  UNL     1      62.034  22.542  16.530  1.00  0.00     0.139 C 
HETATM   13  C7  UNL     1      61.199  23.128  15.427  1.00  0.00     0.196 C 
HETATM   14  O2  UNL     1      61.420  24.463  15.201  1.00  0.00    -0.379 OA
HETATM   15  C8  UNL     1      61.602  25.230  16.323  1.00  0.00     0.176 C 
HETATM   16  C10 UNL     1      61.187  24.591  17.600  1.00  0.00     0.180 C 
HETATM   17  C11 UNL     1      61.671  23.203  17.815  1.00  0.00     0.174 C 
BRANCH  15  18
HETATM   18  C9  UNL     1      63.033  25.783  16.399  1.00  0.00     0.198 C 
BRANCH  18  19
HETATM   19  O3  UNL     1      63.483  26.164  15.147  1.00  0.00    -0.398 OA
ATOM     20  H3  UNL     1      64.125  26.861  15.215  1.00  0.00     0.209 HD
ENDBRANCH  18  19
ENDBRANCH  15  18
BRANCH  16  21
HETATM   21  O4  UNL     1      59.783  24.665  17.751  1.00  0.00    -0.390 OA
ATOM     22  H4  UNL     1      59.427  25.350  17.197  1.00  0.00     0.210 HD
ENDBRANCH  16  21
BRANCH  17  23
HETATM   23  O5  UNL     1      60.670  22.467  18.432  1.00  0.00    -0.391 OA
ATOM     24  H5  UNL     1      60.275  22.996  19.114  1.00  0.00     0.210 HD
ENDBRANCH  17  23
ENDBRANCH  10  12
ENDBRANCH   5   8
BRANCH   6  25
HETATM   25  C13 UNL     1      60.642  18.455  13.893  1.00  0.00     0.085 C 
BRANCH  25  26
HETATM   26  S2  UNL     1      60.395  19.815  12.688  1.00  0.00    -0.109 SA
BRANCH  26  27
HETATM   27  C14 UNL     1      61.014  19.289  11.068  1.00  0.00     0.385 C 
HETATM   28  N2  UNL     1      60.515  20.097  10.000  1.00  0.00    -0.037 N 
HETATM   29  C15 UNL     1      59.320  19.461   9.517  1.00  0.00     0.262 C 
ATOM     30  H22 UNL     1      60.372  21.071  10.267  1.00  0.00     0.281 HD
ATOM     31  H21 UNL     1      61.205  20.263   9.268  1.00  0.00     0.281 HD
HETATM   32  C16 UNL     1      59.477  18.047  10.023  1.00  0.00     0.199 C 
HETATM   33  O6  UNL     1      60.649  18.003  10.749  1.00  0.00    -0.350 OA
ENDBRANCH  26  27
ENDBRANCH  25  26
ENDBRANCH   6  25
BRANCH   7  34
HETATM   34  C18 UNL     1      59.682  16.369  16.118  1.00  0.00     0.236 C 
BRANCH  34  35
HETATM   35  N3  UNL     1      59.917  15.089  15.539  1.00  0.00    -0.079 N 
ATOM     36  H33 UNL     1      60.444  15.193  14.671  1.00  0.00     0.274 HD
ATOM     37  H32 UNL     1      60.593  14.573  16.102  1.00  0.00     0.274 HD
ATOM     38  H31 UNL     1      59.092  14.513  15.375  1.00  0.00     0.274 HD
ENDBRANCH  34  35
ENDBRANCH   7  34
TORSDOF 11
ENDMDL
MODEL 5
REMARK VINA RESULT: -7.161559355      1.529      1.797
REMARK  11 active torsions:
REMARK  status: ('A' for Active; 'I' for Inactive)
REMARK    1  A    between atoms: C4_5  and  C5_6 
REMARK       I    between atoms: C5_6  and  N1_8 
REMARK    2  A    between atoms: N1_8  and  C6_10 
REMARK    3  A    between atoms: C8_13  and  C9_14 
REMARK    4  A    between atoms: C9_14  and  O3_15 
REMARK    5  A    between atoms: C10_17  and  O4_18 
REMARK    6  A    between atoms: C11_20  and  O5_21 
REMARK    7  A    between atoms: C12_23  and  C13_24 
REMARK    8  A    between atoms: C13_24  and  S2_25 
REMARK    9  A    between atoms: S2_25  and  C14_26 
REMARK   10  A    between atoms: C17_33  and  C18_34 
REMARK   11  A    between atoms: C18_34  and  N3_35 
ROOT
HETATM    1  C1  UNL     1      56.027  15.418  15.873  1.00  0.00     0.027 C 
HETATM    2  C2  UNL     1      56.763  16.599  15.300  1.00  0.00     0.007 C 
HETATM    3  C3  UNL     1      55.997  17.340  14.262  1.00  0.00     0.027 C 
HETATM    4  S1  UNL     1      57.232  17.680  16.711  1.00  0.00    -0.144 SA
HETATM    5  C4  UNL     1      58.942  18.093  16.158  1.00  0.00     0.145 C 
HETATM    6  C12 UNL     1      58.883  17.537  14.762  1.00  0.00     0.025 C 
HETATM    7  C17 UNL     1      58.171  16.211  14.828  1.00  0.00     0.035 C 
ENDROOT
BRANCH   5   8
HETATM    8  C5  UNL     1      59.174  19.534  16.231  1.00  0.00     0.232 C 
HETATM    9  O1  UNL     1      58.199  20.319  16.231  1.00  0.00    -0.272 OA
HETATM   10  N1  UNL     1      60.475  20.092  16.304  1.00  0.00    -0.351 N 
ATOM     11  H1  UNL     1      61.282  19.469  16.305  1.00  0.00     0.163 HD
BRANCH  10  12
HETATM   12  C6  UNL     1      60.694  21.539  16.377  1.00  0.00     0.139 C 
HETATM   13  C7  UNL     1      59.665  22.082  17.328  1.00  0.00     0.196 C 
HETATM   14  O2  UNL     1      59.679  23.449  17.453  1.00  0.00    -0.379 OA
HETATM   15  C8  UNL     1      60.922  24.027  17.478  1.00  0.00     0.176 C 
HETATM   16  C10 UNL     1      62.051  23.091  17.724  1.00  0.00     0.180 C 
HETATM   17  C11 UNL     1      62.052  21.852  16.903  1.00  0.00     0.174 C 
BRANCH  15  18
HETATM   18  C9  UNL     1      61.163  24.898  16.235  1.00  0.00     0.198 C 
BRANCH  18  19
HETATM   19  O3  UNL     1      60.896  26.229  16.506  1.00  0.00    -0.398 OA
ATOM     20  H3  UNL     1      60.177  26.545  15.971  1.00  0.00     0.209 HD
ENDBRANCH  18  19
ENDBRANCH  15  18
BRANCH  16  21
HETATM   21  O4  UNL     1      62.142  22.784  19.101  1.00  0.00    -0.390 OA
ATOM     22  H4  UNL     1      62.593  21.957  19.225  1.00  0.00     0.210 HD
ENDBRANCH  16  21
BRANCH  17  23
HETATM   23  O5  UNL     1      62.485  20.792  17.687  1.00  0.00    -0.391 OA
ATOM     24  H5  UNL     1      62.565  21.087  18.586  1.00  0.00     0.210 HD
ENDBRANCH  17  23
ENDBRANCH  10  12
ENDBRANCH   5   8
BRANCH   6  25
HETATM   25  C13 UNL     1      60.205  17.451  14.064  1.00  0.00     0.085 C 
BRANCH  25  26
HETATM   26  S2  UNL     1      60.268  18.806  12.830  1.00  0.00    -0.109 SA
BRANCH  26  27
HETATM   27  C14 UNL     1      60.420  18.089  11.173  1.00  0.00     0.385 C 
HETATM   28  N2  UNL     1      61.483  18.674  10.417  1.00  0.00    -0.037 N 
HETATM   29  C15 UNL     1      60.914  19.761   9.667  1.00  0.00     0.262 C 
ATOM     30  H22 UNL     1      62.277  18.954  10.992  1.00  0.00     0.281 HD
ATOM     31  H21 UNL     1      61.978  17.999   9.834  1.00  0.00     0.281 HD
HETATM   32  C16 UNL     1      59.444  19.421   9.665  1.00  0.00     0.199 C 
HETATM   33  O6  UNL     1      59.293  18.268  10.408  1.00  0.00    -0.350 OA
ENDBRANCH  26  27
ENDBRANCH  25  26
ENDBRANCH   6  25
BRANCH   7  34
HETATM   34  C18 UNL     1      58.704  15.271  15.859  1.00  0.00     0.236 C 
BRANCH  34  35
HETATM   35  N3  UNL     1      60.020  14.774  15.632  1.00  0.00    -0.079 N 
ATOM     36  H33 UNL     1      59.978  13.944  15.039  1.00  0.00     0.274 HD
ATOM     37  H32 UNL     1      60.530  15.411  15.020  1.00  0.00     0.274 HD
ATOM     38  H31 UNL     1      60.574  14.576  16.465  1.00  0.00     0.274 HD
ENDBRANCH  34  35
ENDBRANCH   7  34
TORSDOF 11
ENDMDL
