MODEL 1
REMARK VINA RESULT: -10.054055296      0.000      0.000
REMARK  12 active torsions:
REMARK  status: ('A' for Active; 'I' for Inactive)
REMARK    1  A    between atoms: C2_2  and  O1_4 
REMARK    2  A    between atoms: C2_2  and  C4_6 
REMARK    3  A    between atoms: C5_7  and  C6_8 
REMARK    4  A    between atoms: C7_10  and  O3_11 
REMARK    5  A    between atoms: O3_11  and  C8_12 
REMARK    6  A    between atoms: C10_15  and  O5_16 
REMARK    7  A    between atoms: C11_18  and  O6_19 
REMARK    8  A    between atoms: C12_21  and  O7_22 
REMARK    9  A    between atoms: C14_25  and  S1_26 
REMARK   10  A    between atoms: S1_26  and  C15_27 
REMARK   11  A    between atoms: C17_29  and  C18_30 
REMARK   12  A    between atoms: C19_33  and  O9_34 
ROOT
HETATM    1  C6  UNL     1      60.747  21.402  15.101  1.00  0.00     0.161 C 
HETATM    2  O2  UNL     1      60.827  20.023  15.135  1.00  0.00    -0.351 OA
HETATM    3  C7  UNL     1      59.576  19.548  15.516  1.00  0.00     0.265 C 
HETATM    4  C13 UNL     1      59.248  20.514  16.663  1.00  0.00     0.079 C 
HETATM    5  C14 UNL     1      59.609  21.831  15.961  1.00  0.00     0.085 C 
ENDROOT
BRANCH   3   6
HETATM    6  O3  UNL     1      59.602  18.245  15.938  1.00  0.00    -0.329 OA
BRANCH   6   7
HETATM    7  C8  UNL     1      59.064  17.350  15.002  1.00  0.00     0.294 C 
HETATM    8  O4  UNL     1      59.777  16.186  14.884  1.00  0.00    -0.356 OA
HETATM    9  C9  UNL     1      59.494  15.197  15.786  1.00  0.00     0.205 C 
HETATM   10  C10 UNL     1      58.030  14.898  15.959  1.00  0.00     0.173 C 
HETATM   11  C11 UNL     1      57.364  16.211  16.354  1.00  0.00     0.182 C 
HETATM   12  C12 UNL     1      57.583  17.159  15.202  1.00  0.00     0.204 C 
BRANCH  10  13
HETATM   13  O5  UNL     1      57.460  14.352  14.815  1.00  0.00    -0.391 OA
ATOM     14  H5  UNL     1      57.634  14.870  14.039  1.00  0.00     0.210 HD
ENDBRANCH  10  13
BRANCH  11  15
HETATM   15  O6  UNL     1      56.036  16.028  16.668  1.00  0.00    -0.390 OA
ATOM     16  H6  UNL     1      55.534  16.823  16.530  1.00  0.00     0.210 HD
ENDBRANCH  11  15
BRANCH  12  17
HETATM   17  O7  UNL     1      57.079  16.572  14.042  1.00  0.00    -0.388 OA
ATOM     18  H7  UNL     1      56.131  16.621  14.089  1.00  0.00     0.210 HD
ENDBRANCH  12  17
ENDBRANCH   6   7
ENDBRANCH   3   6
BRANCH   1  19
HETATM   19  C5  UNL     1      60.602  21.854  13.685  1.00  0.00     0.005 C 
HETATM   20  C4  UNL     1      60.895  21.040  12.699  1.00  0.00     0.008 C 
BRANCH  20  21
HETATM   21  C2  UNL     1      60.747  21.500  11.282  1.00  0.00     0.068 C 
HETATM   22  C1  UNL     1      60.540  20.305  10.377  1.00  0.00     0.050 C 
HETATM   23  C3  UNL     1      61.980  22.254  10.861  1.00  0.00     0.050 C 
BRANCH  21  24
HETATM   24  O1  UNL     1      59.651  22.366  11.185  1.00  0.00    -0.387 OA
ATOM     25  H1  UNL     1      59.502  22.792  12.021  1.00  0.00     0.211 HD
ENDBRANCH  21  24
ENDBRANCH  20  21
ENDBRANCH   1  19
BRANCH   5  26
HETATM   26  S1  UNL     1      59.937  23.146  17.111  1.00  0.00    -0.154 SA
BRANCH  26  27
HETATM   27  C15 UNL     1      61.626  23.720  17.113  1.00  0.00     0.078 C 
HETATM   28  C16 UNL     1      62.061  24.536  15.902  1.00  0.00     0.034 C 
HETATM   29  C17 UNL     1      62.966  25.299  16.883  1.00  0.00     0.106 C 
HETATM   30  C19 UNL     1      61.904  24.960  17.939  1.00  0.00     0.144 C 
BRANCH  29  31
HETATM   31  C18 UNL     1      63.107  26.736  16.593  1.00  0.00     0.237 C 
HETATM   32  N1  UNL     1      64.269  27.382  17.093  1.00  0.00    -0.062 NA
HETATM   33  O8  UNL     1      62.219  27.330  15.929  1.00  0.00    -0.276 OA
ENDBRANCH  29  31
BRANCH  30  34
HETATM   34  O9  UNL     1      62.422  24.679  19.194  1.00  0.00    -0.394 OA
ATOM     35  H9  UNL     1      61.771  24.362  19.809  1.00  0.00     0.210 HD
ENDBRANCH  30  34
ENDBRANCH  26  27
ENDBRANCH   5  26
TORSDOF 12
ENDMDL
MODEL 2
REMARK VINA RESULT: -9.825005952      1.359      1.891
REMARK  12 active torsions:
REMARK  status: ('A' for Active; 'I' for Inactive)
REMARK    1  A    between atoms: C2_2  and  O1_4 
REMARK    2  A    between atoms: C2_2  and  C4_6 
REMARK    3  A    between atoms: C5_7  and  C6_8 
REMARK    4  A    between atoms: C7_10  and  O3_11 
REMARK    5  A    between atoms: O3_11  and  C8_12 
REMARK    6  A    between atoms: C10_15  and  O5_16 
REMARK    7  A    between atoms: C11_18  and  O6_19 
REMARK    8  A    between atoms: C12_21  and  O7_22 
REMARK    9  A    between atoms: C14_25  and  S1_26 
REMARK   10  A    between atoms: S1_26  and  C15_27 
REMARK   11  A    between atoms: C17_29  and  C18_30 
REMARK   12  A    between atoms: C19_33  and  O9_34 
ROOT
HETATM    1  C6  UNL     1      60.669  20.326  15.159  1.00  0.00     0.161 C 
HETATM    2  O2  UNL     1      60.304  19.028  14.853  1.00  0.00    -0.351 OA
HETATM    3  C7  UNL     1      58.959  18.891  15.185  1.00  0.00     0.265 C 
HETATM    4  C13 UNL     1      58.934  19.595  16.549  1.00  0.00     0.079 C 
HETATM    5  C14 UNL     1      59.712  20.863  16.165  1.00  0.00     0.085 C 
ENDROOT
BRANCH   3   6
HETATM    6  O3  UNL     1      58.558  17.585  15.277  1.00  0.00    -0.329 OA
BRANCH   6   7
HETATM    7  C8  UNL     1      57.200  17.446  15.600  1.00  0.00     0.294 C 
HETATM    8  O4  UNL     1      56.360  17.675  14.542  1.00  0.00    -0.356 OA
HETATM    9  C9  UNL     1      56.127  16.621  13.702  1.00  0.00     0.205 C 
HETATM   10  C10 UNL     1      55.765  15.332  14.387  1.00  0.00     0.173 C 
HETATM   11  C11 UNL     1      56.901  15.023  15.356  1.00  0.00     0.182 C 
HETATM   12  C12 UNL     1      56.934  16.162  16.344  1.00  0.00     0.204 C 
BRANCH  10  13
HETATM   13  O5  UNL     1      54.536  15.400  15.033  1.00  0.00    -0.391 OA
ATOM     14  H5  UNL     1      54.520  14.894  15.837  1.00  0.00     0.210 HD
ENDBRANCH  10  13
BRANCH  11  15
HETATM   15  O6  UNL     1      56.737  13.791  15.947  1.00  0.00    -0.390 OA
ATOM     16  H6  UNL     1      56.824  13.087  15.314  1.00  0.00     0.210 HD
ENDBRANCH  11  15
BRANCH  12  17
HETATM   17  O7  UNL     1      55.676  16.277  16.933  1.00  0.00    -0.388 OA
ATOM     18  H7  UNL     1      55.033  16.031  16.277  1.00  0.00     0.210 HD
ENDBRANCH  12  17
ENDBRANCH   6   7
ENDBRANCH   3   6
BRANCH   1  19
HETATM   19  C5  UNL     1      60.704  21.137  13.905  1.00  0.00     0.005 C 
HETATM   20  C4  UNL     1      60.837  20.548  12.741  1.00  0.00     0.008 C 
BRANCH  20  21
HETATM   21  C2  UNL     1      60.871  21.368  11.489  1.00  0.00     0.068 C 
HETATM   22  C1  UNL     1      61.350  20.514  10.334  1.00  0.00     0.050 C 
HETATM   23  C3  UNL     1      61.794  22.542  11.675  1.00  0.00     0.050 C 
BRANCH  21  24
HETATM   24  O1  UNL     1      59.589  21.858  11.218  1.00  0.00    -0.387 OA
ATOM     25  H1  UNL     1      59.002  21.137  11.022  1.00  0.00     0.211 HD
ENDBRANCH  21  24
ENDBRANCH  20  21
ENDBRANCH   1  19
BRANCH   5  26
HETATM   26  S1  UNL     1      60.420  21.679  17.576  1.00  0.00    -0.154 SA
BRANCH  26  27
HETATM   27  C15 UNL     1      61.580  22.973  17.175  1.00  0.00     0.078 C 
HETATM   28  C16 UNL     1      61.242  23.828  15.960  1.00  0.00     0.034 C 
HETATM   29  C17 UNL     1      61.918  24.979  16.722  1.00  0.00     0.106 C 
HETATM   30  C19 UNL     1      61.464  24.244  17.992  1.00  0.00     0.144 C 
BRANCH  29  31
HETATM   31  C18 UNL     1      61.292  26.296  16.518  1.00  0.00     0.237 C 
HETATM   32  N1  UNL     1      62.066  27.278  15.845  1.00  0.00    -0.062 NA
HETATM   33  O8  UNL     1      60.124  26.506  16.935  1.00  0.00    -0.276 OA
ENDBRANCH  29  31
BRANCH  30  34
HETATM   34  O9  UNL     1      62.371  24.309  19.039  1.00  0.00    -0.394 OA
ATOM     35  H9  UNL     1      62.989  25.027  18.958  1.00  0.00     0.210 HD
ENDBRANCH  30  34
ENDBRANCH  26  27
ENDBRANCH   5  26
TORSDOF 12
ENDMDL
MODEL 3
REMARK VINA RESULT: -9.796276321      1.163      1.257
REMARK  12 active torsions:
REMARK  status: ('A' for Active; 'I' for Inactive)
REMARK    1  A    between atoms: C2_2  and  O1_4 
REMARK    2  A    between atoms: C2_2  and  C4_6 
REMARK    3  A    between atoms: C5_7  and  C6_8 
REMARK    4  A    between atoms: C7_10  and  O3_11 
REMARK    5  A    between atoms: O3_11  and  C8_12 
REMARK    6  A    between atoms: C10_15  and  O5_16 
REMARK    7  A    between atoms: C11_18  and  O6_19 
REMARK    8  A    between atoms: C12_21  and  O7_22 
REMARK    9  A    between atoms: C14_25  and  S1_26 
REMARK   10  A    between atoms: S1_26  and  C15_27 
REMARK   11  A    between atoms: C17_29  and  C18_30 
REMARK   12  A    between atoms: C19_33  and  O9_34 
ROOT
HETATM    1  C6  UNL     1      60.936  20.648  15.167  1.00  0.00     0.161 C 
HETATM    2  O2  UNL     1      60.156  19.508  15.131  1.00  0.00    -0.351 OA
HETATM    3  C7  UNL     1      58.982  19.791  15.823  1.00  0.00     0.265 C 
HETATM    4  C13 UNL     1      59.550  20.522  17.048  1.00  0.00     0.079 C 
HETATM    5  C14 UNL     1      60.499  21.485  16.318  1.00  0.00     0.085 C 
ENDROOT
BRANCH   3   6
HETATM    6  O3  UNL     1      58.283  18.668  16.178  1.00  0.00    -0.329 OA
BRANCH   6   7
HETATM    7  C8  UNL     1      58.190  17.726  15.143  1.00  0.00     0.294 C 
HETATM    8  O4  UNL     1      58.996  16.632  15.324  1.00  0.00    -0.356 OA
HETATM    9  C9  UNL     1      58.498  15.623  16.102  1.00  0.00     0.205 C 
HETATM   10  C10 UNL     1      57.099  15.191  15.760  1.00  0.00     0.173 C 
HETATM   11  C11 UNL     1      56.226  16.437  15.850  1.00  0.00     0.182 C 
HETATM   12  C12 UNL     1      56.755  17.399  14.816  1.00  0.00     0.204 C 
BRANCH  10  13
HETATM   13  O5  UNL     1      57.019  14.591  14.508  1.00  0.00    -0.391 OA
ATOM     14  H5  UNL     1      57.492  15.076  13.842  1.00  0.00     0.210 HD
ENDBRANCH  10  13
BRANCH  11  15
HETATM   15  O6  UNL     1      54.894  16.133  15.683  1.00  0.00    -0.390 OA
ATOM     16  H6  UNL     1      54.780  15.280  15.280  1.00  0.00     0.210 HD
ENDBRANCH  11  15
BRANCH  12  17
HETATM   17  O7  UNL     1      56.747  16.766  13.574  1.00  0.00    -0.388 OA
ATOM     18  H7  UNL     1      55.955  16.242  13.530  1.00  0.00     0.210 HD
ENDBRANCH  12  17
ENDBRANCH   6   7
ENDBRANCH   3   6
BRANCH   1  19
HETATM   19  C5  UNL     1      60.826  21.363  13.860  1.00  0.00     0.005 C 
HETATM   20  C4  UNL     1      60.872  20.692  12.734  1.00  0.00     0.008 C 
BRANCH  20  21
HETATM   21  C2  UNL     1      60.761  21.415  11.428  1.00  0.00     0.068 C 
HETATM   22  C1  UNL     1      60.874  20.428  10.287  1.00  0.00     0.050 C 
HETATM   23  C3  UNL     1      61.853  22.446  11.324  1.00  0.00     0.050 C 
BRANCH  21  24
HETATM   24  O1  UNL     1      59.529  22.076  11.365  1.00  0.00    -0.387 OA
ATOM     25  H1  UNL     1      59.497  22.762  12.021  1.00  0.00     0.211 HD
ENDBRANCH  21  24
ENDBRANCH  20  21
ENDBRANCH   1  19
BRANCH   5  26
HETATM   26  S1  UNL     1      61.783  22.106  17.378  1.00  0.00    -0.154 SA
BRANCH  26  27
HETATM   27  C15 UNL     1      61.746  23.872  17.626  1.00  0.00     0.078 C 
HETATM   28  C16 UNL     1      63.073  24.530  17.981  1.00  0.00     0.034 C 
HETATM   29  C17 UNL     1      62.553  25.744  17.195  1.00  0.00     0.106 C 
HETATM   30  C19 UNL     1      61.762  24.718  16.370  1.00  0.00     0.144 C 
BRANCH  29  31
HETATM   31  C18 UNL     1      63.586  26.473  16.442  1.00  0.00     0.237 C 
HETATM   32  N1  UNL     1      64.407  27.369  17.177  1.00  0.00    -0.062 NA
HETATM   33  O8  UNL     1      63.708  26.285  15.204  1.00  0.00    -0.276 OA
ENDBRANCH  29  31
BRANCH  30  34
HETATM   34  O9  UNL     1      60.503  25.152  15.983  1.00  0.00    -0.394 OA
ATOM     35  H9  UNL     1      60.521  25.763  15.255  1.00  0.00     0.210 HD
ENDBRANCH  30  34
ENDBRANCH  26  27
ENDBRANCH   5  26
TORSDOF 12
ENDMDL
MODEL 4
REMARK VINA RESULT: -9.722705295      1.607      2.146
REMARK  12 active torsions:
REMARK  status: ('A' for Active; 'I' for Inactive)
REMARK    1  A    between atoms: C2_2  and  O1_4 
REMARK    2  A    between atoms: C2_2  and  C4_6 
REMARK    3  A    between atoms: C5_7  and  C6_8 
REMARK    4  A    between atoms: C7_10  and  O3_11 
REMARK    5  A    between atoms: O3_11  and  C8_12 
REMARK    6  A    between atoms: C10_15  and  O5_16 
REMARK    7  A    between atoms: C11_18  and  O6_19 
REMARK    8  A    between atoms: C12_21  and  O7_22 
REMARK    9  A    between atoms: C14_25  and  S1_26 
REMARK   10  A    between atoms: S1_26  and  C15_27 
REMARK   11  A    between atoms: C17_29  and  C18_30 
REMARK   12  A    between atoms: C19_33  and  O9_34 
ROOT
HETATM    1  C6  UNL     1      60.889  20.038  14.722  1.00  0.00     0.161 C 
HETATM    2  O2  UNL     1      60.353  18.785  14.490  1.00  0.00    -0.351 OA
HETATM    3  C7  UNL     1      59.106  18.751  15.108  1.00  0.00     0.265 C 
HETATM    4  C13 UNL     1      59.443  19.412  16.452  1.00  0.00     0.079 C 
HETATM    5  C14 UNL     1      60.225  20.622  15.920  1.00  0.00     0.085 C 
ENDROOT
BRANCH   3   6
HETATM    6  O3  UNL     1      58.622  17.480  15.272  1.00  0.00    -0.329 OA
BRANCH   6   7
HETATM    7  C8  UNL     1      57.267  17.447  15.632  1.00  0.00     0.294 C 
HETATM    8  O4  UNL     1      56.418  17.736  14.596  1.00  0.00    -0.356 OA
HETATM    9  C9  UNL     1      56.081  16.700  13.769  1.00  0.00     0.205 C 
HETATM   10  C10 UNL     1      55.640  15.446  14.473  1.00  0.00     0.173 C 
HETATM   11  C11 UNL     1      56.775  15.054  15.412  1.00  0.00     0.182 C 
HETATM   12  C12 UNL     1      56.924  16.192  16.391  1.00  0.00     0.204 C 
BRANCH  10  13
HETATM   13  O5  UNL     1      54.438  15.612  15.152  1.00  0.00    -0.391 OA
ATOM     14  H5  UNL     1      54.191  14.840  15.647  1.00  0.00     0.210 HD
ENDBRANCH  10  13
BRANCH  11  15
HETATM   15  O6  UNL     1      56.533  13.841  16.016  1.00  0.00    -0.390 OA
ATOM     16  H6  UNL     1      57.276  13.255  15.926  1.00  0.00     0.210 HD
ENDBRANCH  11  15
BRANCH  12  17
HETATM   17  O7  UNL     1      55.695  16.406  17.014  1.00  0.00    -0.388 OA
ATOM     18  H7  UNL     1      55.023  16.054  16.441  1.00  0.00     0.210 HD
ENDBRANCH  12  17
ENDBRANCH   6   7
ENDBRANCH   3   6
BRANCH   1  19
HETATM   19  C5  UNL     1      60.720  20.881  13.501  1.00  0.00     0.005 C 
HETATM   20  C4  UNL     1      60.893  20.360  12.310  1.00  0.00     0.008 C 
BRANCH  20  21
HETATM   21  C2  UNL     1      60.722  21.212  11.090  1.00  0.00     0.068 C 
HETATM   22  C1  UNL     1      60.650  20.332   9.860  1.00  0.00     0.050 C 
HETATM   23  C3  UNL     1      61.880  22.166  10.970  1.00  0.00     0.050 C 
BRANCH  21  24
HETATM   24  O1  UNL     1      59.547  21.963  11.208  1.00  0.00    -0.387 OA
ATOM     25  H1  UNL     1      58.797  21.427  10.979  1.00  0.00     0.211 HD
ENDBRANCH  21  24
ENDBRANCH  20  21
ENDBRANCH   1  19
BRANCH   5  26
HETATM   26  S1  UNL     1      61.294  21.332  17.149  1.00  0.00    -0.154 SA
BRANCH  26  27
HETATM   27  C15 UNL     1      61.049  23.079  17.421  1.00  0.00     0.078 C 
HETATM   28  C16 UNL     1      62.305  23.940  17.438  1.00  0.00     0.034 C 
HETATM   29  C17 UNL     1      61.424  25.039  16.824  1.00  0.00     0.106 C 
HETATM   30  C19 UNL     1      60.619  23.884  16.211  1.00  0.00     0.144 C 
BRANCH  29  31
HETATM   31  C18 UNL     1      62.111  25.896  15.844  1.00  0.00     0.237 C 
HETATM   32  N1  UNL     1      62.128  27.292  16.109  1.00  0.00    -0.062 NA
HETATM   33  O8  UNL     1      62.649  25.381  14.829  1.00  0.00    -0.276 OA
ENDBRANCH  29  31
BRANCH  30  34
HETATM   34  O9  UNL     1      59.252  24.110  16.159  1.00  0.00    -0.394 OA
ATOM     35  H9  UNL     1      58.946  24.376  15.299  1.00  0.00     0.210 HD
ENDBRANCH  30  34
ENDBRANCH  26  27
ENDBRANCH   5  26
TORSDOF 12
ENDMDL
MODEL 5
REMARK VINA RESULT: -9.505652285      0.934      1.396
REMARK  12 active torsions:
REMARK  status: ('A' for Active; 'I' for Inactive)
REMARK    1  A    between atoms: C2_2  and  O1_4 
REMARK    2  A    between atoms: C2_2  and  C4_6 
REMARK    3  A    between atoms: C5_7  and  C6_8 
REMARK    4  A    between atoms: C7_10  and  O3_11 
REMARK    5  A    between atoms: O3_11  and  C8_12 
REMARK    6  A    between atoms: C10_15  and  O5_16 
REMARK    7  A    between atoms: C11_18  and  O6_19 
REMARK    8  A    between atoms: C12_21  and  O7_22 
REMARK    9  A    between atoms: C14_25  and  S1_26 
REMARK   10  A    between atoms: S1_26  and  C15_27 
REMARK   11  A    between atoms: C17_29  and  C18_30 
REMARK   12  A    between atoms: C19_33  and  O9_34 
ROOT
HETATM    1  C6  UNL     1      60.846  21.684  14.914  1.00  0.00     0.161 C 
HETATM    2  O2  UNL     1      61.009  20.318  15.041  1.00  0.00    -0.351 OA
HETATM    3  C7  UNL     1      59.786  19.794  15.450  1.00  0.00     0.265 C 
HETATM    4  C13 UNL     1      59.392  20.814  16.528  1.00  0.00     0.079 C 
HETATM    5  C14 UNL     1      59.678  22.100  15.739  1.00  0.00     0.085 C 
ENDROOT
BRANCH   3   6
HETATM    6  O3  UNL     1      59.888  18.527  15.959  1.00  0.00    -0.329 OA
BRANCH   6   7
HETATM    7  C8  UNL     1      58.650  17.978  16.325  1.00  0.00     0.294 C 
HETATM    8  O4  UNL     1      57.771  17.865  15.280  1.00  0.00    -0.356 OA
HETATM    9  C9  UNL     1      57.881  16.746  14.501  1.00  0.00     0.205 C 
HETATM   10  C10 UNL     1      57.960  15.450  15.260  1.00  0.00     0.173 C 
HETATM   11  C11 UNL     1      59.143  15.577  16.213  1.00  0.00     0.182 C 
HETATM   12  C12 UNL     1      58.817  16.721  17.140  1.00  0.00     0.204 C 
BRANCH  10  13
HETATM   13  O5  UNL     1      56.780  15.158  15.935  1.00  0.00    -0.391 OA
ATOM     14  H5  UNL     1      56.455  15.897  16.436  1.00  0.00     0.210 HD
ENDBRANCH  10  13
BRANCH  11  15
HETATM   15  O6  UNL     1      59.390  14.393  16.870  1.00  0.00    -0.390 OA
ATOM     16  H6  UNL     1      59.083  14.424  17.769  1.00  0.00     0.210 HD
ENDBRANCH  11  15
BRANCH  12  17
HETATM   17  O7  UNL     1      57.594  16.460  17.756  1.00  0.00    -0.388 OA
ATOM     18  H7  UNL     1      57.586  16.933  18.580  1.00  0.00     0.210 HD
ENDBRANCH  12  17
ENDBRANCH   6   7
ENDBRANCH   3   6
BRANCH   1  19
HETATM   19  C5  UNL     1      60.684  22.030  13.470  1.00  0.00     0.005 C 
HETATM   20  C4  UNL     1      60.880  21.119  12.547  1.00  0.00     0.008 C 
BRANCH  20  21
HETATM   21  C2  UNL     1      60.716  21.473  11.101  1.00  0.00     0.068 C 
HETATM   22  C1  UNL     1      60.605  20.209  10.277  1.00  0.00     0.050 C 
HETATM   23  C3  UNL     1      61.897  22.285  10.640  1.00  0.00     0.050 C 
BRANCH  21  24
HETATM   24  O1  UNL     1      59.563  22.249  10.940  1.00  0.00    -0.387 OA
ATOM     25  H1  UNL     1      59.788  23.086  10.553  1.00  0.00     0.211 HD
ENDBRANCH  21  24
ENDBRANCH  20  21
ENDBRANCH   1  19
BRANCH   5  26
HETATM   26  S1  UNL     1      59.917  23.507  16.798  1.00  0.00    -0.154 SA
BRANCH  26  27
HETATM   27  C15 UNL     1      61.625  23.945  17.069  1.00  0.00     0.078 C 
HETATM   28  C16 UNL     1      62.319  24.683  15.932  1.00  0.00     0.034 C 
HETATM   29  C17 UNL     1      63.113  25.403  17.033  1.00  0.00     0.106 C 
HETATM   30  C19 UNL     1      61.867  25.185  17.905  1.00  0.00     0.144 C 
BRANCH  29  31
HETATM   31  C18 UNL     1      63.419  26.813  16.742  1.00  0.00     0.237 C 
HETATM   32  N1  UNL     1      64.586  27.356  17.343  1.00  0.00    -0.062 NA
HETATM   33  O8  UNL     1      62.659  27.477  15.991  1.00  0.00    -0.276 OA
ENDBRANCH  29  31
BRANCH  30  34
HETATM   34  O9  UNL     1      62.148  24.906  19.234  1.00  0.00    -0.394 OA
ATOM     35  H9  UNL     1      62.967  25.284  19.535  1.00  0.00     0.210 HD
ENDBRANCH  30  34
ENDBRANCH  26  27
ENDBRANCH   5  26
TORSDOF 12
ENDMDL
