MODEL 1
REMARK VINA RESULT: -6.389650843      0.000      0.000
REMARK  1 active torsions:
REMARK  status: ('A' for Active; 'I' for Inactive)
REMARK    1  A    between atoms: N2_4  and  N3_6 
REMARK       I    between atoms: N3_6  and  C1_8 
REMARK       I    between atoms: C1_8  and  N4_10 
ROOT
HETATM    1  N3  UNL     1      -1.402  27.513  25.474  1.00  0.00    -0.237 N 
ATOM      2  H3  UNL     1      -1.616  28.307  24.870  1.00  0.00     0.193 HD
HETATM    3  C1  UNL     1      -2.431  26.724  26.046  1.00  0.00     0.341 C 
HETATM    4  O1  UNL     1      -2.159  25.755  26.785  1.00  0.00    -0.245 OA
HETATM    5  N4  UNL     1      -3.778  27.092  25.737  1.00  0.00    -0.289 N 
ATOM      6  H4  UNL     1      -4.021  27.293  24.767  1.00  0.00     0.172 HD
HETATM    7  C2  UNL     1      -4.694  27.177  26.636  1.00  0.00     0.175 C 
HETATM    8  N5  UNL     1      -4.561  26.939  28.032  1.00  0.00    -0.356 N 
ATOM      9  H5  UNL     1      -3.848  26.380  28.501  1.00  0.00     0.162 HD
HETATM   10  C3  UNL     1      -5.669  27.668  28.652  1.00  0.00     0.248 C 
HETATM   11  N6  UNL     1      -6.722  27.512  27.651  1.00  0.00    -0.338 N 
ATOM     12  H6  UNL     1      -7.721  27.400  27.828  1.00  0.00     0.164 HD
HETATM   13  C4  UNL     1      -6.078  27.547  26.377  1.00  0.00     0.286 C 
HETATM   14  O2  UNL     1      -6.615  27.838  25.275  1.00  0.00    -0.264 OA
ENDROOT
BRANCH   1  15
HETATM   15  N2  UNL     1      -0.081  27.161  25.771  1.00  0.00    -0.245 N 
HETATM   16  N1  UNL     1       0.826  27.964  25.399  1.00  0.00    -0.331 N 
ATOM     17  H12 UNL     1       0.588  28.824  24.907  1.00  0.00     0.178 HD
ATOM     18  H11 UNL     1       1.789  27.707  25.616  1.00  0.00     0.178 HD
ATOM     19  H2  UNL     1       0.142  26.297  26.264  1.00  0.00     0.208 HD
ENDBRANCH   1  15
TORSDOF 1
ENDMDL
MODEL 2
REMARK VINA RESULT: -5.564458943      1.910      5.060
REMARK  1 active torsions:
REMARK  status: ('A' for Active; 'I' for Inactive)
REMARK    1  A    between atoms: N2_4  and  N3_6 
REMARK       I    between atoms: N3_6  and  C1_8 
REMARK       I    between atoms: C1_8  and  N4_10 
ROOT
HETATM    1  N3  UNL     1      -6.645  26.384  27.557  1.00  0.00    -0.237 N 
ATOM      2  H3  UNL     1      -6.888  25.740  26.804  1.00  0.00     0.193 HD
HETATM    3  C1  UNL     1      -5.472  27.178  27.497  1.00  0.00     0.341 C 
HETATM    4  O1  UNL     1      -5.183  27.963  28.425  1.00  0.00    -0.245 OA
HETATM    5  N4  UNL     1      -4.650  27.035  26.336  1.00  0.00    -0.289 N 
ATOM      6  H4  UNL     1      -5.094  27.037  25.417  1.00  0.00     0.172 HD
HETATM    7  C2  UNL     1      -3.373  26.903  26.406  1.00  0.00     0.175 C 
HETATM    8  N5  UNL     1      -2.569  26.876  27.580  1.00  0.00    -0.356 N 
ATOM      9  H5  UNL     1      -2.800  27.254  28.499  1.00  0.00     0.162 HD
HETATM   10  C3  UNL     1      -1.339  26.187  27.185  1.00  0.00     0.248 C 
HETATM   11  N6  UNL     1      -1.175  26.641  25.806  1.00  0.00    -0.338 N 
ATOM     12  H6  UNL     1      -0.296  26.839  25.328  1.00  0.00     0.164 HD
HETATM   13  C4  UNL     1      -2.490  26.753  25.259  1.00  0.00     0.286 C 
HETATM   14  O2  UNL     1      -2.796  26.726  24.037  1.00  0.00    -0.264 OA
ENDROOT
BRANCH   1  15
HETATM   15  N2  UNL     1      -7.456  26.517  28.690  1.00  0.00    -0.245 N 
HETATM   16  N1  UNL     1      -7.065  25.943  29.749  1.00  0.00    -0.331 N 
ATOM     17  H12 UNL     1      -6.195  25.411  29.759  1.00  0.00     0.178 HD
ATOM     18  H11 UNL     1      -7.656  26.041  30.574  1.00  0.00     0.178 HD
ATOM     19  H2  UNL     1      -8.323  27.053  28.663  1.00  0.00     0.208 HD
ENDBRANCH   1  15
TORSDOF 1
ENDMDL
MODEL 3
REMARK VINA RESULT: -5.528552111      2.701      3.120
REMARK  1 active torsions:
REMARK  status: ('A' for Active; 'I' for Inactive)
REMARK    1  A    between atoms: N2_4  and  N3_6 
REMARK       I    between atoms: N3_6  and  C1_8 
REMARK       I    between atoms: C1_8  and  N4_10 
ROOT
HETATM    1  N3  UNL     1      -1.253  27.954  24.762  1.00  0.00    -0.237 N 
ATOM      2  H3  UNL     1      -1.323  28.903  25.131  1.00  0.00     0.193 HD
HETATM    3  C1  UNL     1      -1.887  26.864  25.408  1.00  0.00     0.341 C 
HETATM    4  O1  UNL     1      -1.795  25.706  24.949  1.00  0.00    -0.245 OA
HETATM    5  N4  UNL     1      -2.628  27.156  26.596  1.00  0.00    -0.289 N 
ATOM      6  H4  UNL     1      -3.267  27.950  26.594  1.00  0.00     0.172 HD
HETATM    7  C2  UNL     1      -2.518  26.453  27.668  1.00  0.00     0.175 C 
HETATM    8  N5  UNL     1      -1.690  25.314  27.875  1.00  0.00    -0.356 N 
ATOM      9  H5  UNL     1      -1.303  24.692  27.166  1.00  0.00     0.162 HD
HETATM   10  C3  UNL     1      -1.513  25.228  29.326  1.00  0.00     0.248 C 
HETATM   11  N6  UNL     1      -2.813  25.689  29.810  1.00  0.00    -0.338 N 
ATOM     12  H6  UNL     1      -3.313  25.352  30.632  1.00  0.00     0.164 HD
HETATM   13  C4  UNL     1      -3.245  26.705  28.903  1.00  0.00     0.286 C 
HETATM   14  O2  UNL     1      -4.081  27.616  29.145  1.00  0.00    -0.264 OA
ENDROOT
BRANCH   1  15
HETATM   15  N2  UNL     1      -0.527  27.679  23.598  1.00  0.00    -0.245 N 
HETATM   16  N1  UNL     1       0.519  26.976  23.725  1.00  0.00    -0.331 N 
ATOM     17  H12 UNL     1       0.806  26.634  24.642  1.00  0.00     0.178 HD
ATOM     18  H11 UNL     1       1.048  26.775  22.876  1.00  0.00     0.178 HD
ATOM     19  H2  UNL     1      -0.827  28.028  22.688  1.00  0.00     0.208 HD
ENDBRANCH   1  15
TORSDOF 1
ENDMDL
MODEL 4
REMARK VINA RESULT: -5.524255822      2.974      3.546
REMARK  1 active torsions:
REMARK  status: ('A' for Active; 'I' for Inactive)
REMARK    1  A    between atoms: N2_4  and  N3_6 
REMARK       I    between atoms: N3_6  and  C1_8 
REMARK       I    between atoms: C1_8  and  N4_10 
ROOT
HETATM    1  N3  UNL     1      -2.275  27.097  26.320  1.00  0.00    -0.237 N 
ATOM      2  H3  UNL     1      -3.049  27.713  26.074  1.00  0.00     0.193 HD
HETATM    3  C1  UNL     1      -2.180  26.512  27.607  1.00  0.00     0.341 C 
HETATM    4  O1  UNL     1      -1.227  25.759  27.900  1.00  0.00    -0.245 OA
HETATM    5  N4  UNL     1      -3.218  26.824  28.540  1.00  0.00    -0.289 N 
ATOM      6  H4  UNL     1      -4.188  26.775  28.230  1.00  0.00     0.172 HD
HETATM    7  C2  UNL     1      -2.974  27.165  29.757  1.00  0.00     0.175 C 
HETATM    8  N5  UNL     1      -1.701  27.291  30.381  1.00  0.00    -0.356 N 
ATOM      9  H5  UNL     1      -0.825  26.853  30.097  1.00  0.00     0.162 HD
HETATM   10  C3  UNL     1      -1.920  28.187  31.518  1.00  0.00     0.248 C 
HETATM   11  N6  UNL     1      -3.267  27.808  31.938  1.00  0.00    -0.338 N 
ATOM     12  H6  UNL     1      -3.622  27.773  32.893  1.00  0.00     0.164 HD
HETATM   13  C4  UNL     1      -3.989  27.494  30.745  1.00  0.00     0.286 C 
HETATM   14  O2  UNL     1      -5.241  27.506  30.605  1.00  0.00    -0.264 OA
ENDROOT
BRANCH   1  15
HETATM   15  N2  UNL     1      -1.264  26.796  25.400  1.00  0.00    -0.245 N 
HETATM   16  N1  UNL     1      -0.130  27.323  25.599  1.00  0.00    -0.331 N 
ATOM     17  H12 UNL     1       0.025  27.937  26.399  1.00  0.00     0.178 HD
ATOM     18  H11 UNL     1       0.607  27.103  24.928  1.00  0.00     0.178 HD
ATOM     19  H2  UNL     1      -1.434  26.181  24.606  1.00  0.00     0.208 HD
ENDBRANCH   1  15
TORSDOF 1
ENDMDL
MODEL 5
REMARK VINA RESULT: -5.409001243      3.108      5.211
REMARK  1 active torsions:
REMARK  status: ('A' for Active; 'I' for Inactive)
REMARK    1  A    between atoms: N2_4  and  N3_6 
REMARK       I    between atoms: N3_6  and  C1_8 
REMARK       I    between atoms: C1_8  and  N4_10 
ROOT
HETATM    1  N3  UNL     1      -1.961  26.715  28.388  1.00  0.00    -0.237 N 
ATOM      2  H3  UNL     1      -1.663  27.639  28.701  1.00  0.00     0.193 HD
HETATM    3  C1  UNL     1      -1.540  26.187  27.142  1.00  0.00     0.341 C 
HETATM    4  O1  UNL     1      -1.911  25.055  26.768  1.00  0.00    -0.245 OA
HETATM    5  N4  UNL     1      -0.679  27.008  26.347  1.00  0.00    -0.289 N 
ATOM      6  H4  UNL     1       0.116  27.463  26.795  1.00  0.00     0.172 HD
HETATM    7  C2  UNL     1      -0.871  27.194  25.089  1.00  0.00     0.175 C 
HETATM    8  N5  UNL     1      -1.912  26.654  24.283  1.00  0.00    -0.356 N 
ATOM      9  H5  UNL     1      -2.471  25.820  24.468  1.00  0.00     0.162 HD
HETATM   10  C3  UNL     1      -2.010  27.552  23.132  1.00  0.00     0.248 C 
HETATM   11  N6  UNL     1      -0.614  27.932  22.934  1.00  0.00    -0.338 N 
ATOM     12  H6  UNL     1      -0.148  28.103  22.043  1.00  0.00     0.164 HD
HETATM   13  C4  UNL     1      -0.029  28.017  24.235  1.00  0.00     0.286 C 
HETATM   14  O2  UNL     1       0.999  28.673  24.550  1.00  0.00    -0.264 OA
ENDROOT
BRANCH   1  15
HETATM   15  N2  UNL     1      -2.803  25.919  29.173  1.00  0.00    -0.245 N 
HETATM   16  N1  UNL     1      -4.047  26.136  29.085  1.00  0.00    -0.331 N 
ATOM     17  H12 UNL     1      -4.405  26.863  28.465  1.00  0.00     0.178 HD
ATOM     18  H11 UNL     1      -4.661  25.556  29.657  1.00  0.00     0.178 HD
ATOM     19  H2  UNL     1      -2.430  25.196  29.788  1.00  0.00     0.208 HD
ENDBRANCH   1  15
TORSDOF 1
ENDMDL
