MODEL 1
REMARK VINA RESULT: -6.300556292      0.000      0.000
REMARK  2 active torsions:
REMARK  status: ('A' for Active; 'I' for Inactive)
REMARK    1  A    between atoms: C1_4  and  N2_5 
REMARK    2  A    between atoms: C1_4  and  C3_10 
REMARK       I    between atoms: C3_10  and  N5_12 
ROOT
HETATM    1  N1  UNL     1      -2.146  27.391  23.350  1.00  0.00    -0.381 N 
ATOM      2  H11 UNL     1      -2.984  26.853  23.130  1.00  0.00     0.157 HD
ATOM      3  H12 UNL     1      -1.695  27.994  22.662  1.00  0.00     0.157 HD
HETATM    4  C1  UNL     1      -1.657  27.296  24.529  1.00  0.00     0.170 C 
ENDROOT
BRANCH   4   5
HETATM    5  N2  UNL     1      -0.491  28.043  24.836  1.00  0.00    -0.315 N 
HETATM    6  C2  UNL     1       0.635  27.820  24.261  1.00  0.00     0.202 C 
HETATM    7  N3  UNL     1       0.698  26.789  23.294  1.00  0.00    -0.066 NA
HETATM    8  N4  UNL     1       1.796  28.566  24.568  1.00  0.00    -0.066 NA
ATOM      9  H2  UNL     1      -0.549  28.783  25.536  1.00  0.00     0.170 HD
ENDBRANCH   4   5
BRANCH   4  10
HETATM   10  C3  UNL     1      -2.297  26.438  25.506  1.00  0.00     0.291 C 
HETATM   11  O1  UNL     1      -2.229  25.189  25.368  1.00  0.00    -0.264 OA
HETATM   12  N5  UNL     1      -3.007  26.992  26.628  1.00  0.00    -0.297 N 
HETATM   13  C4  UNL     1      -2.580  26.743  27.804  1.00  0.00     0.203 C 
ATOM     14  H5  UNL     1      -3.834  27.571  26.486  1.00  0.00     0.171 HD
HETATM   15  N6  UNL     1      -3.255  27.272  28.950  1.00  0.00    -0.066 NA
HETATM   16  N7  UNL     1      -1.433  25.940  28.026  1.00  0.00    -0.066 NA
ENDBRANCH   4  10
TORSDOF 2
ENDMDL
MODEL 2
REMARK VINA RESULT: -6.146318293      1.304      1.360
REMARK  2 active torsions:
REMARK  status: ('A' for Active; 'I' for Inactive)
REMARK    1  A    between atoms: C1_4  and  N2_5 
REMARK    2  A    between atoms: C1_4  and  C3_10 
REMARK       I    between atoms: C3_10  and  N5_12 
ROOT
HETATM    1  N1  UNL     1      -0.662  28.372  22.931  1.00  0.00    -0.381 N 
ATOM      2  H11 UNL     1      -1.352  28.008  22.274  1.00  0.00     0.157 HD
ATOM      3  H12 UNL     1       0.104  28.975  22.630  1.00  0.00     0.157 HD
HETATM    4  C1  UNL     1      -0.773  28.054  24.165  1.00  0.00     0.170 C 
ENDROOT
BRANCH   4   5
HETATM    5  N2  UNL     1       0.186  28.560  25.079  1.00  0.00    -0.315 N 
HETATM    6  C2  UNL     1       1.427  28.233  25.018  1.00  0.00     0.202 C 
HETATM    7  N3  UNL     1       1.832  27.337  24.001  1.00  0.00    -0.066 NA
HETATM    8  N4  UNL     1       2.382  28.738  25.930  1.00  0.00    -0.066 NA
ATOM      9  H2  UNL     1      -0.119  29.204  25.809  1.00  0.00     0.170 HD
ENDBRANCH   4   5
BRANCH   4  10
HETATM   10  C3  UNL     1      -1.861  27.196  24.592  1.00  0.00     0.291 C 
HETATM   11  O1  UNL     1      -2.197  26.223  23.868  1.00  0.00    -0.264 OA
HETATM   12  N5  UNL     1      -2.559  27.440  25.825  1.00  0.00    -0.297 N 
HETATM   13  C4  UNL     1      -2.504  26.557  26.744  1.00  0.00     0.203 C 
ATOM     14  H5  UNL     1      -3.087  28.302  25.963  1.00  0.00     0.171 HD
HETATM   15  N6  UNL     1      -3.184  26.756  27.987  1.00  0.00    -0.066 NA
HETATM   16  N7  UNL     1      -1.777  25.351  26.575  1.00  0.00    -0.066 NA
ENDBRANCH   4  10
TORSDOF 2
ENDMDL
MODEL 3
REMARK VINA RESULT: -5.981349577      1.594      5.021
REMARK  2 active torsions:
REMARK  status: ('A' for Active; 'I' for Inactive)
REMARK    1  A    between atoms: C1_4  and  N2_5 
REMARK    2  A    between atoms: C1_4  and  C3_10 
REMARK       I    between atoms: C3_10  and  N5_12 
ROOT
HETATM    1  N1  UNL     1      -2.235  26.839  28.293  1.00  0.00    -0.381 N 
ATOM      2  H11 UNL     1      -1.427  26.240  28.462  1.00  0.00     0.157 HD
ATOM      3  H12 UNL     1      -2.725  27.311  29.053  1.00  0.00     0.157 HD
HETATM    4  C1  UNL     1      -2.633  26.994  27.087  1.00  0.00     0.170 C 
ENDROOT
BRANCH   4   5
HETATM    5  N2  UNL     1      -3.756  27.828  26.852  1.00  0.00    -0.315 N 
HETATM    6  C2  UNL     1      -4.905  27.590  27.374  1.00  0.00     0.202 C 
HETATM    7  N3  UNL     1      -5.037  26.454  28.208  1.00  0.00    -0.066 NA
HETATM    8  N4  UNL     1      -6.024  28.421  27.138  1.00  0.00    -0.066 NA
ATOM      9  H2  UNL     1      -3.648  28.643  26.247  1.00  0.00     0.170 HD
ENDBRANCH   4   5
BRANCH   4  10
HETATM   10  C3  UNL     1      -1.936  26.324  26.008  1.00  0.00     0.291 C 
HETATM   11  O1  UNL     1      -2.209  25.122  25.752  1.00  0.00    -0.264 OA
HETATM   12  N5  UNL     1      -0.941  27.009  25.228  1.00  0.00    -0.297 N 
HETATM   13  C4  UNL     1      -1.150  27.175  23.981  1.00  0.00     0.203 C 
ATOM     14  H5  UNL     1      -0.086  27.355  25.663  1.00  0.00     0.171 HD
HETATM   15  N6  UNL     1      -0.187  27.849  23.164  1.00  0.00    -0.066 NA
HETATM   16  N7  UNL     1      -2.330  26.702  23.354  1.00  0.00    -0.066 NA
ENDBRANCH   4  10
TORSDOF 2
ENDMDL
MODEL 4
REMARK VINA RESULT: -5.844186235      1.616      2.315
REMARK  2 active torsions:
REMARK  status: ('A' for Active; 'I' for Inactive)
REMARK    1  A    between atoms: C1_4  and  N2_5 
REMARK    2  A    between atoms: C1_4  and  C3_10 
REMARK       I    between atoms: C3_10  and  N5_12 
ROOT
HETATM    1  N1  UNL     1      -1.787  25.291  26.303  1.00  0.00    -0.381 N 
ATOM      2  H11 UNL     1      -2.480  24.734  26.804  1.00  0.00     0.157 HD
ATOM      3  H12 UNL     1      -0.899  24.896  25.994  1.00  0.00     0.157 HD
HETATM    4  C1  UNL     1      -2.054  26.519  26.063  1.00  0.00     0.170 C 
ENDROOT
BRANCH   4   5
HETATM    5  N2  UNL     1      -1.091  27.292  25.366  1.00  0.00    -0.315 N 
HETATM    6  C2  UNL     1      -1.049  27.338  24.084  1.00  0.00     0.202 C 
HETATM    7  N3  UNL     1      -2.002  26.585  23.357  1.00  0.00    -0.066 NA
HETATM    8  N4  UNL     1      -0.088  28.110  23.391  1.00  0.00    -0.066 NA
ATOM      9  H2  UNL     1      -0.408  27.830  25.902  1.00  0.00     0.170 HD
ENDBRANCH   4   5
BRANCH   4  10
HETATM   10  C3  UNL     1      -3.316  27.080  26.502  1.00  0.00     0.291 C 
HETATM   11  O1  UNL     1      -4.319  27.006  25.746  1.00  0.00    -0.264 OA
HETATM   12  N5  UNL     1      -3.438  27.718  27.785  1.00  0.00    -0.297 N 
HETATM   13  C4  UNL     1      -4.228  27.208  28.648  1.00  0.00     0.203 C 
ATOM     14  H5  UNL     1      -2.905  28.560  28.001  1.00  0.00     0.171 HD
HETATM   15  N6  UNL     1      -4.383  27.809  29.938  1.00  0.00    -0.066 NA
HETATM   16  N7  UNL     1      -4.980  26.039  28.371  1.00  0.00    -0.066 NA
ENDBRANCH   4  10
TORSDOF 2
ENDMDL
MODEL 5
REMARK VINA RESULT: -5.683258274      1.463      4.828
REMARK  2 active torsions:
REMARK  status: ('A' for Active; 'I' for Inactive)
REMARK    1  A    between atoms: C1_4  and  N2_5 
REMARK    2  A    between atoms: C1_4  and  C3_10 
REMARK       I    between atoms: C3_10  and  N5_12 
ROOT
HETATM    1  N1  UNL     1      -4.598  26.923  26.346  1.00  0.00    -0.381 N 
ATOM      2  H11 UNL     1      -4.786  26.478  25.448  1.00  0.00     0.157 HD
ATOM      3  H12 UNL     1      -5.347  27.292  26.933  1.00  0.00     0.157 HD
HETATM    4  C1  UNL     1      -3.383  27.014  26.735  1.00  0.00     0.170 C 
ENDROOT
BRANCH   4   5
HETATM    5  N2  UNL     1      -3.121  27.633  27.984  1.00  0.00    -0.315 N 
HETATM    6  C2  UNL     1      -3.374  27.052  29.101  1.00  0.00     0.202 C 
HETATM    7  N3  UNL     1      -3.933  25.752  29.066  1.00  0.00    -0.066 NA
HETATM    8  N4  UNL     1      -3.112  27.670  30.346  1.00  0.00    -0.066 NA
ATOM      9  H2  UNL     1      -2.719  28.571  27.996  1.00  0.00     0.170 HD
ENDBRANCH   4   5
BRANCH   4  10
HETATM   10  C3  UNL     1      -2.319  26.491  25.902  1.00  0.00     0.291 C 
HETATM   11  O1  UNL     1      -2.279  25.257  25.659  1.00  0.00    -0.264 OA
HETATM   12  N5  UNL     1      -1.313  27.357  25.350  1.00  0.00    -0.297 N 
HETATM   13  C4  UNL     1      -1.229  27.466  24.082  1.00  0.00     0.203 C 
ATOM     14  H5  UNL     1      -0.679  27.874  25.960  1.00  0.00     0.171 HD
HETATM   15  N6  UNL     1      -0.242  28.316  23.488  1.00  0.00    -0.066 NA
HETATM   16  N7  UNL     1      -2.097  26.758  23.214  1.00  0.00    -0.066 NA
ENDBRANCH   4  10
TORSDOF 2
ENDMDL
