MODEL 1
REMARK VINA RESULT: -7.469697334      0.000      0.000
REMARK  4 active torsions:
REMARK  status: ('A' for Active; 'I' for Inactive)
REMARK       I    between atoms: C2_2  and  N1_4 
REMARK    1  A    between atoms: N1_4  and  C3_6 
REMARK    2  A    between atoms: C8_11  and  C9_12 
REMARK       I    between atoms: C9_12  and  N2_14 
REMARK    3  A    between atoms: C10_16  and  C11_17 
REMARK       I    between atoms: C11_17  and  N3_19 
REMARK    4  A    between atoms: N3_19  and  N4_21 
REMARK       I    between atoms: N4_21  and  C12_23 
REMARK       I    between atoms: N6_25  and  C13_27 
ROOT
HETATM    1  C9  UNL     1      -4.359  25.038  31.016  1.00  0.00     0.227 C 
HETATM    2  O2  UNL     1      -4.337  23.878  30.476  1.00  0.00    -0.273 OA
HETATM    3  N2  UNL     1      -3.210  25.781  31.118  1.00  0.00    -0.331 N 
ATOM      4  H2  UNL     1      -2.744  25.654  32.016  1.00  0.00     0.168 HD
HETATM    5  C10 UNL     1      -2.595  26.577  30.372  1.00  0.00     0.166 C 
ENDROOT
BRANCH   5   6
HETATM    6  C11 UNL     1      -2.896  27.031  29.042  1.00  0.00     0.275 C 
HETATM    7  O3  UNL     1      -3.917  27.792  28.885  1.00  0.00    -0.265 OA
HETATM    8  N3  UNL     1      -2.159  26.712  27.867  1.00  0.00    -0.263 N 
ATOM      9  H3  UNL     1      -1.337  26.111  27.923  1.00  0.00     0.190 HD
BRANCH   8  10
HETATM   10  N4  UNL     1      -2.576  27.237  26.620  1.00  0.00    -0.271 N 
HETATM   11  C12 UNL     1      -1.801  27.106  25.447  1.00  0.00     0.209 C 
HETATM   12  N5  UNL     1      -1.761  25.850  24.788  1.00  0.00    -0.062 NA
HETATM   13  N6  UNL     1      -1.133  28.086  24.958  1.00  0.00    -0.304 N 
HETATM   14  C13 UNL     1      -0.350  27.977  23.786  1.00  0.00     0.188 C 
ATOM     15  H6  UNL     1      -1.168  28.986  25.438  1.00  0.00     0.171 HD
HETATM   16  N7  UNL     1      -0.911  28.003  22.636  1.00  0.00    -0.373 N 
HETATM   17  N8  UNL     1       1.065  27.839  23.882  1.00  0.00    -0.064 NA
ATOM     18  H72 UNL     1      -1.923  28.102  22.567  1.00  0.00     0.158 HD
ATOM     19  H71 UNL     1      -0.346  27.924  21.791  1.00  0.00     0.158 HD
ATOM     20  H4  UNL     1      -3.469  27.728  26.567  1.00  0.00     0.189 HD
ENDBRANCH   8  10
ENDBRANCH   5   6
BRANCH   1  21
HETATM   21  C8  UNL     1      -5.680  25.496  31.508  1.00  0.00     0.101 C 
HETATM   22  C3  UNL     1      -6.775  25.293  30.513  1.00  0.00     0.097 C 
HETATM   23  C4  UNL     1      -8.088  25.313  31.307  1.00  0.00     0.026 C 
HETATM   24  C5  UNL     1      -8.000  26.133  32.546  1.00  0.00     0.002 C 
HETATM   25  C6  UNL     1      -7.029  27.259  32.530  1.00  0.00     0.001 C 
HETATM   26  C7  UNL     1      -5.687  26.916  31.954  1.00  0.00     0.016 C 
BRANCH  22  27
HETATM   27  N1  UNL     1      -6.903  26.336  29.527  1.00  0.00    -0.356 N 
HETATM   28  C2  UNL     1      -6.717  26.061  28.153  1.00  0.00     0.213 C 
HETATM   29  C1  UNL     1      -6.830  27.063  27.081  1.00  0.00     0.117 C 
HETATM   30  O1  UNL     1      -6.435  24.884  27.817  1.00  0.00    -0.274 OA
ATOM     31  H1  UNL     1      -7.130  27.285  29.824  1.00  0.00     0.162 HD
ENDBRANCH  22  27
ENDBRANCH   1  21
TORSDOF 4
ENDMDL
MODEL 2
REMARK VINA RESULT: -7.359731082      3.350      6.701
REMARK  4 active torsions:
REMARK  status: ('A' for Active; 'I' for Inactive)
REMARK       I    between atoms: C2_2  and  N1_4 
REMARK    1  A    between atoms: N1_4  and  C3_6 
REMARK    2  A    between atoms: C8_11  and  C9_12 
REMARK       I    between atoms: C9_12  and  N2_14 
REMARK    3  A    between atoms: C10_16  and  C11_17 
REMARK       I    between atoms: C11_17  and  N3_19 
REMARK    4  A    between atoms: N3_19  and  N4_21 
REMARK       I    between atoms: N4_21  and  C12_23 
REMARK       I    between atoms: N6_25  and  C13_27 
ROOT
HETATM    1  C9  UNL     1      -5.448  25.394  29.817  1.00  0.00     0.227 C 
HETATM    2  O2  UNL     1      -5.952  24.262  29.493  1.00  0.00    -0.273 OA
HETATM    3  N2  UNL     1      -5.540  25.854  31.107  1.00  0.00    -0.331 N 
ATOM      4  H2  UNL     1      -6.346  26.464  31.244  1.00  0.00     0.168 HD
HETATM    5  C10 UNL     1      -4.873  25.704  32.156  1.00  0.00     0.166 C 
ENDROOT
BRANCH   5   6
HETATM    6  C11 UNL     1      -3.682  24.940  32.402  1.00  0.00     0.275 C 
HETATM    7  O3  UNL     1      -3.553  23.817  31.797  1.00  0.00    -0.265 OA
HETATM    8  N3  UNL     1      -2.616  25.317  33.268  1.00  0.00    -0.263 N 
ATOM      9  H3  UNL     1      -2.656  26.198  33.780  1.00  0.00     0.190 HD
BRANCH   8  10
HETATM   10  N4  UNL     1      -1.500  24.458  33.411  1.00  0.00    -0.271 N 
HETATM   11  C12 UNL     1      -0.243  24.920  33.861  1.00  0.00     0.209 C 
HETATM   12  N5  UNL     1      -0.070  25.204  35.240  1.00  0.00    -0.062 NA
HETATM   13  N6  UNL     1       0.747  25.089  33.062  1.00  0.00    -0.304 N 
HETATM   14  C13 UNL     1       2.013  25.551  33.490  1.00  0.00     0.188 C 
ATOM     15  H6  UNL     1       0.614  24.881  32.072  1.00  0.00     0.171 HD
HETATM   16  N7  UNL     1       2.828  24.748  34.063  1.00  0.00    -0.373 N 
HETATM   17  N8  UNL     1       2.384  26.911  33.284  1.00  0.00    -0.064 NA
ATOM     18  H72 UNL     1       2.563  23.775  34.210  1.00  0.00     0.158 HD
ATOM     19  H71 UNL     1       3.741  25.082  34.372  1.00  0.00     0.158 HD
ATOM     20  H4  UNL     1      -1.606  23.469  33.181  1.00  0.00     0.189 HD
ENDBRANCH   8  10
ENDBRANCH   5   6
BRANCH   1  21
HETATM   21  C8  UNL     1      -4.782  26.140  28.724  1.00  0.00     0.101 C 
HETATM   22  C3  UNL     1      -3.295  26.162  28.853  1.00  0.00     0.097 C 
HETATM   23  C4  UNL     1      -2.746  26.485  27.457  1.00  0.00     0.026 C 
HETATM   24  C5  UNL     1      -3.691  27.292  26.638  1.00  0.00     0.002 C 
HETATM   25  C6  UNL     1      -4.626  28.177  27.381  1.00  0.00     0.001 C 
HETATM   26  C7  UNL     1      -5.276  27.536  28.572  1.00  0.00     0.016 C 
BRANCH  22  27
HETATM   27  N1  UNL     1      -2.774  27.187  29.722  1.00  0.00    -0.356 N 
HETATM   28  C2  UNL     1      -1.616  26.958  30.500  1.00  0.00     0.213 C 
HETATM   29  C1  UNL     1      -1.016  27.948  31.409  1.00  0.00     0.117 C 
HETATM   30  O1  UNL     1      -1.056  25.837  30.413  1.00  0.00    -0.274 OA
ATOM     31  H1  UNL     1      -3.247  28.089  29.776  1.00  0.00     0.162 HD
ENDBRANCH  22  27
ENDBRANCH   1  21
TORSDOF 4
ENDMDL
MODEL 3
REMARK VINA RESULT: -7.355918471      3.267      4.880
REMARK  4 active torsions:
REMARK  status: ('A' for Active; 'I' for Inactive)
REMARK       I    between atoms: C2_2  and  N1_4 
REMARK    1  A    between atoms: N1_4  and  C3_6 
REMARK    2  A    between atoms: C8_11  and  C9_12 
REMARK       I    between atoms: C9_12  and  N2_14 
REMARK    3  A    between atoms: C10_16  and  C11_17 
REMARK       I    between atoms: C11_17  and  N3_19 
REMARK    4  A    between atoms: N3_19  and  N4_21 
REMARK       I    between atoms: N4_21  and  C12_23 
REMARK       I    between atoms: N6_25  and  C13_27 
ROOT
HETATM    1  C9  UNL     1      -1.147  24.007  30.822  1.00  0.00     0.227 C 
HETATM    2  O2  UNL     1      -0.349  23.458  29.985  1.00  0.00    -0.273 OA
HETATM    3  N2  UNL     1      -0.943  25.301  31.231  1.00  0.00    -0.331 N 
ATOM      4  H2  UNL     1      -0.409  25.354  32.099  1.00  0.00     0.168 HD
HETATM    5  C10 UNL     1      -1.255  26.433  30.797  1.00  0.00     0.166 C 
ENDROOT
BRANCH   5   6
HETATM    6  C11 UNL     1      -1.995  26.810  29.623  1.00  0.00     0.275 C 
HETATM    7  O3  UNL     1      -3.090  27.457  29.786  1.00  0.00    -0.265 OA
HETATM    8  N3  UNL     1      -1.620  26.529  28.278  1.00  0.00    -0.263 N 
ATOM      9  H3  UNL     1      -0.761  26.017  28.080  1.00  0.00     0.190 HD
BRANCH   8  10
HETATM   10  N4  UNL     1      -2.452  26.967  27.220  1.00  0.00    -0.271 N 
HETATM   11  C12 UNL     1      -2.149  26.708  25.865  1.00  0.00     0.209 C 
HETATM   12  N5  UNL     1      -2.360  25.402  25.352  1.00  0.00    -0.062 NA
HETATM   13  N6  UNL     1      -1.691  27.617  25.082  1.00  0.00    -0.304 N 
HETATM   14  C13 UNL     1      -1.381  27.380  23.723  1.00  0.00     0.188 C 
ATOM     15  H6  UNL     1      -1.544  28.554  25.459  1.00  0.00     0.171 HD
HETATM   16  N7  UNL     1      -2.316  27.335  22.851  1.00  0.00    -0.373 N 
HETATM   17  N8  UNL     1      -0.028  27.192  23.323  1.00  0.00    -0.064 NA
ATOM     18  H72 UNL     1      -3.285  27.470  23.138  1.00  0.00     0.158 HD
ATOM     19  H71 UNL     1      -2.092  27.164  21.871  1.00  0.00     0.158 HD
ATOM     20  H4  UNL     1      -3.300  27.488  27.443  1.00  0.00     0.189 HD
ENDBRANCH   8  10
ENDBRANCH   5   6
BRANCH   1  21
HETATM   21  C8  UNL     1      -2.267  23.161  31.296  1.00  0.00     0.101 C 
HETATM   22  C3  UNL     1      -2.749  23.539  32.658  1.00  0.00     0.097 C 
HETATM   23  C4  UNL     1      -4.166  22.968  32.787  1.00  0.00     0.026 C 
HETATM   24  C5  UNL     1      -4.378  21.755  31.952  1.00  0.00     0.002 C 
HETATM   25  C6  UNL     1      -3.179  20.924  31.670  1.00  0.00     0.001 C 
HETATM   26  C7  UNL     1      -1.959  21.705  31.276  1.00  0.00     0.016 C 
BRANCH  22  27
HETATM   27  N1  UNL     1      -1.999  22.968  33.748  1.00  0.00    -0.356 N 
HETATM   28  C2  UNL     1      -1.148  23.770  34.542  1.00  0.00     0.213 C 
HETATM   29  C1  UNL     1      -0.350  23.271  35.673  1.00  0.00     0.117 C 
HETATM   30  O1  UNL     1      -1.062  24.993  34.268  1.00  0.00    -0.274 OA
ATOM     31  H1  UNL     1      -2.084  21.971  33.950  1.00  0.00     0.162 HD
ENDBRANCH  22  27
ENDBRANCH   1  21
TORSDOF 4
ENDMDL
MODEL 4
REMARK VINA RESULT: -7.324388775      3.366      4.930
REMARK  4 active torsions:
REMARK  status: ('A' for Active; 'I' for Inactive)
REMARK       I    between atoms: C2_2  and  N1_4 
REMARK    1  A    between atoms: N1_4  and  C3_6 
REMARK    2  A    between atoms: C8_11  and  C9_12 
REMARK       I    between atoms: C9_12  and  N2_14 
REMARK    3  A    between atoms: C10_16  and  C11_17 
REMARK       I    between atoms: C11_17  and  N3_19 
REMARK    4  A    between atoms: N3_19  and  N4_21 
REMARK       I    between atoms: N4_21  and  C12_23 
REMARK       I    between atoms: N6_25  and  C13_27 
ROOT
HETATM    1  C9  UNL     1      -2.859  23.925  31.535  1.00  0.00     0.227 C 
HETATM    2  O2  UNL     1      -4.026  23.585  31.132  1.00  0.00    -0.273 OA
HETATM    3  N2  UNL     1      -1.746  23.579  30.812  1.00  0.00    -0.331 N 
ATOM      4  H2  UNL     1      -1.324  22.710  31.140  1.00  0.00     0.168 HD
HETATM    5  C10 UNL     1      -1.122  24.074  29.845  1.00  0.00     0.166 C 
ENDROOT
BRANCH   5   6
HETATM    6  C11 UNL     1      -1.369  25.272  29.091  1.00  0.00     0.275 C 
HETATM    7  O3  UNL     1      -1.435  26.381  29.730  1.00  0.00    -0.265 OA
HETATM    8  N3  UNL     1      -1.551  25.344  27.680  1.00  0.00    -0.263 N 
ATOM      9  H3  UNL     1      -1.511  24.497  27.113  1.00  0.00     0.190 HD
BRANCH   8  10
HETATM   10  N4  UNL     1      -1.786  26.601  27.073  1.00  0.00    -0.271 N 
HETATM   11  C12 UNL     1      -1.663  26.802  25.681  1.00  0.00     0.209 C 
HETATM   12  N5  UNL     1      -2.683  26.313  24.824  1.00  0.00    -0.062 NA
HETATM   13  N6  UNL     1      -0.659  27.414  25.166  1.00  0.00    -0.304 N 
HETATM   14  C13 UNL     1      -0.516  27.627  23.775  1.00  0.00     0.188 C 
ATOM     15  H6  UNL     1       0.069  27.764  25.790  1.00  0.00     0.171 HD
HETATM   16  N7  UNL     1      -1.169  28.563  23.200  1.00  0.00    -0.373 N 
HETATM   17  N8  UNL     1       0.358  26.799  23.014  1.00  0.00    -0.064 NA
ATOM     18  H72 UNL     1      -1.795  29.156  23.745  1.00  0.00     0.158 HD
ATOM     19  H71 UNL     1      -1.066  28.716  22.197  1.00  0.00     0.158 HD
ATOM     20  H4  UNL     1      -2.055  27.389  27.662  1.00  0.00     0.189 HD
ENDBRANCH   8  10
ENDBRANCH   5   6
BRANCH   1  21
HETATM   21  C8  UNL     1      -2.812  24.693  32.801  1.00  0.00     0.101 C 
HETATM   22  C3  UNL     1      -1.445  25.195  33.129  1.00  0.00     0.097 C 
HETATM   23  C4  UNL     1      -1.637  26.350  34.120  1.00  0.00     0.026 C 
HETATM   24  C5  UNL     1      -2.874  26.213  34.934  1.00  0.00     0.002 C 
HETATM   25  C6  UNL     1      -3.358  24.829  35.180  1.00  0.00     0.001 C 
HETATM   26  C7  UNL     1      -3.347  23.942  33.970  1.00  0.00     0.016 C 
BRANCH  22  27
HETATM   27  N1  UNL     1      -0.593  24.245  33.800  1.00  0.00    -0.356 N 
HETATM   28  C2  UNL     1       0.763  24.099  33.428  1.00  0.00     0.213 C 
HETATM   29  C1  UNL     1       1.702  23.158  34.060  1.00  0.00     0.117 C 
HETATM   30  O1  UNL     1       1.203  24.817  32.496  1.00  0.00    -0.274 OA
ATOM     31  H1  UNL     1      -0.973  23.672  34.553  1.00  0.00     0.162 HD
ENDBRANCH  22  27
ENDBRANCH   1  21
TORSDOF 4
ENDMDL
MODEL 5
REMARK VINA RESULT: -7.297527952      4.111      6.083
REMARK  4 active torsions:
REMARK  status: ('A' for Active; 'I' for Inactive)
REMARK       I    between atoms: C2_2  and  N1_4 
REMARK    1  A    between atoms: N1_4  and  C3_6 
REMARK    2  A    between atoms: C8_11  and  C9_12 
REMARK       I    between atoms: C9_12  and  N2_14 
REMARK    3  A    between atoms: C10_16  and  C11_17 
REMARK       I    between atoms: C11_17  and  N3_19 
REMARK    4  A    between atoms: N3_19  and  N4_21 
REMARK       I    between atoms: N4_21  and  C12_23 
REMARK       I    between atoms: N6_25  and  C13_27 
ROOT
HETATM    1  C9  UNL     1      -1.605  24.159  32.289  1.00  0.00     0.227 C 
HETATM    2  O2  UNL     1      -2.746  24.531  32.734  1.00  0.00    -0.273 OA
HETATM    3  N2  UNL     1      -1.511  23.462  31.110  1.00  0.00    -0.331 N 
ATOM      4  H2  UNL     1      -1.495  22.453  31.256  1.00  0.00     0.168 HD
HETATM    5  C10 UNL     1      -1.439  23.768  29.898  1.00  0.00     0.166 C 
ENDROOT
BRANCH   5   6
HETATM    6  C11 UNL     1      -1.430  25.056  29.260  1.00  0.00     0.275 C 
HETATM    7  O3  UNL     1      -1.199  26.085  29.989  1.00  0.00    -0.265 OA
HETATM    8  N3  UNL     1      -1.656  25.300  27.876  1.00  0.00    -0.263 N 
ATOM      9  H3  UNL     1      -1.847  24.525  27.241  1.00  0.00     0.190 HD
BRANCH   8  10
HETATM   10  N4  UNL     1      -1.615  26.628  27.388  1.00  0.00    -0.271 N 
HETATM   11  C12 UNL     1      -1.596  26.926  26.008  1.00  0.00     0.209 C 
HETATM   12  N5  UNL     1      -2.797  26.800  25.263  1.00  0.00    -0.062 NA
HETATM   13  N6  UNL     1      -0.528  27.309  25.407  1.00  0.00    -0.304 N 
HETATM   14  C13 UNL     1      -0.487  27.612  24.026  1.00  0.00     0.188 C 
ATOM     15  H6  UNL     1       0.331  27.398  25.951  1.00  0.00     0.171 HD
HETATM   16  N7  UNL     1      -0.927  28.736  23.604  1.00  0.00    -0.373 N 
HETATM   17  N8  UNL     1       0.047  26.666  23.104  1.00  0.00    -0.064 NA
ATOM     18  H72 UNL     1      -1.309  29.413  24.264  1.00  0.00     0.158 HD
ATOM     19  H71 UNL     1      -0.898  28.954  22.608  1.00  0.00     0.158 HD
ATOM     20  H4  UNL     1      -1.597  27.398  28.058  1.00  0.00     0.189 HD
ENDBRANCH   8  10
ENDBRANCH   5   6
BRANCH   1  21
HETATM   21  C8  UNL     1      -0.437  24.526  33.123  1.00  0.00     0.101 C 
HETATM   22  C3  UNL     1       0.784  23.729  32.801  1.00  0.00     0.097 C 
HETATM   23  C4  UNL     1       1.976  24.535  33.333  1.00  0.00     0.026 C 
HETATM   24  C5  UNL     1       1.620  25.395  34.494  1.00  0.00     0.002 C 
HETATM   25  C6  UNL     1       0.495  24.929  35.346  1.00  0.00     0.001 C 
HETATM   26  C7  UNL     1      -0.702  24.440  34.585  1.00  0.00     0.016 C 
BRANCH  22  27
HETATM   27  N1  UNL     1       0.862  22.446  33.452  1.00  0.00    -0.356 N 
HETATM   28  C2  UNL     1       0.780  21.248  32.705  1.00  0.00     0.213 C 
HETATM   29  C1  UNL     1       0.852  19.898  33.286  1.00  0.00     0.117 C 
HETATM   30  O1  UNL     1       0.635  21.335  31.460  1.00  0.00    -0.274 OA
ATOM     31  H1  UNL     1       0.977  22.400  34.464  1.00  0.00     0.162 HD
ENDBRANCH  22  27
ENDBRANCH   1  21
TORSDOF 4
ENDMDL
