MODEL 1
REMARK VINA RESULT: -7.592070081      0.000      0.000
REMARK  4 active torsions:
REMARK  status: ('A' for Active; 'I' for Inactive)
REMARK       I    between atoms: N3_4  and  C2_6 
REMARK    1  A    between atoms: C2_6  and  C3_8 
REMARK    2  A    between atoms: C3_8  and  C4_9 
REMARK    3  A    between atoms: C4_9  and  C5_10 
REMARK    4  A    between atoms: C5_10  and  N4_11 
ROOT
HETATM    1  N4  UNL     1      -4.155  26.201  28.135  1.00  0.00    -0.392 N 
HETATM    2  C6  UNL     1      -3.063  26.850  28.682  1.00  0.00     0.123 C 
HETATM    3  C7  UNL     1      -1.931  25.859  29.003  1.00  0.00     0.039 C 
HETATM    4  C8  UNL     1      -1.995  25.367  30.411  1.00  0.00     0.115 C 
HETATM    5  N5  UNL     1      -1.022  25.940  31.291  1.00  0.00    -0.420 N 
ATOM      6  H5  UNL     1      -0.021  25.883  31.101  1.00  0.00     0.153 HD
HETATM    7  C9  UNL     1      -1.534  26.597  32.450  1.00  0.00     0.141 C 
HETATM    8  C10 UNL     1      -2.471  25.772  33.265  1.00  0.00     0.251 C 
HETATM    9  N6  UNL     1      -3.512  26.536  33.897  1.00  0.00    -0.074 N 
ATOM     10  H61 UNL     1      -3.161  26.989  34.740  1.00  0.00     0.277 HD
ATOM     11  H62 UNL     1      -4.208  25.915  34.310  1.00  0.00     0.277 HD
HETATM   12  C11 UNL     1      -4.147  27.502  33.031  1.00  0.00     0.234 C 
HETATM   13  C12 UNL     1      -5.643  27.583  33.211  1.00  0.00     0.055 C 
HETATM   14  C13 UNL     1      -6.233  28.021  31.863  1.00  0.00     0.234 C 
HETATM   15  N7  UNL     1      -6.312  26.917  30.951  1.00  0.00    -0.074 N 
ATOM     16  H71 UNL     1      -7.255  26.529  30.928  1.00  0.00     0.277 HD
ATOM     17  H72 UNL     1      -5.808  26.109  31.313  1.00  0.00     0.277 HD
HETATM   18  C14 UNL     1      -5.853  27.262  29.596  1.00  0.00     0.252 C 
HETATM   19  C15 UNL     1      -5.329  26.032  28.929  1.00  0.00     0.149 C 
ENDROOT
BRANCH   1  20
HETATM   20  C5  UNL     1      -4.477  26.316  26.774  1.00  0.00     0.058 C 
BRANCH  20  21
HETATM   21  C4  UNL     1      -3.486  25.856  25.771  1.00  0.00     0.053 C 
BRANCH  21  22
HETATM   22  C3  UNL     1      -2.972  27.059  25.011  1.00  0.00     0.108 C 
BRANCH  22  23
HETATM   23  C2  UNL     1      -1.592  26.858  24.525  1.00  0.00     0.224 C 
HETATM   24  N3  UNL     1      -0.447  27.400  25.105  1.00  0.00    -0.304 N 
HETATM   25  C1  UNL     1       0.312  28.188  24.429  1.00  0.00     0.203 C 
ATOM     26  H3  UNL     1      -0.210  27.170  26.071  1.00  0.00     0.171 HD
HETATM   27  N1  UNL     1      -0.031  28.496  23.094  1.00  0.00    -0.066 NA
HETATM   28  N2  UNL     1       1.486  28.771  24.951  1.00  0.00    -0.066 NA
HETATM   29  O1  UNL     1      -1.446  26.135  23.499  1.00  0.00    -0.273 OA
ENDBRANCH  22  23
ENDBRANCH  21  22
ENDBRANCH  20  21
ENDBRANCH   1  20
TORSDOF 4
ENDMDL
MODEL 2
REMARK VINA RESULT: -7.472070469      0.938      2.933
REMARK  4 active torsions:
REMARK  status: ('A' for Active; 'I' for Inactive)
REMARK       I    between atoms: N3_4  and  C2_6 
REMARK    1  A    between atoms: C2_6  and  C3_8 
REMARK    2  A    between atoms: C3_8  and  C4_9 
REMARK    3  A    between atoms: C4_9  and  C5_10 
REMARK    4  A    between atoms: C5_10  and  N4_11 
ROOT
HETATM    1  N4  UNL     1      -4.704  26.644  28.086  1.00  0.00    -0.392 N 
HETATM    2  C6  UNL     1      -5.190  25.635  28.898  1.00  0.00     0.123 C 
HETATM    3  C7  UNL     1      -6.524  26.039  29.548  1.00  0.00     0.039 C 
HETATM    4  C8  UNL     1      -6.332  26.652  30.895  1.00  0.00     0.115 C 
HETATM    5  N5  UNL     1      -6.665  25.799  31.996  1.00  0.00    -0.420 N 
ATOM      6  H5  UNL     1      -7.590  25.380  32.094  1.00  0.00     0.153 HD
HETATM    7  C9  UNL     1      -5.627  25.569  32.948  1.00  0.00     0.141 C 
HETATM    8  C10 UNL     1      -5.001  26.808  33.492  1.00  0.00     0.251 C 
HETATM    9  N6  UNL     1      -3.601  26.666  33.787  1.00  0.00    -0.074 N 
ATOM     10  H61 UNL     1      -3.472  26.195  34.683  1.00  0.00     0.277 HD
ATOM     11  H62 UNL     1      -3.190  27.573  34.007  1.00  0.00     0.277 HD
HETATM   12  C11 UNL     1      -2.842  26.003  32.753  1.00  0.00     0.234 C 
HETATM   13  C12 UNL     1      -1.489  26.623  32.507  1.00  0.00     0.055 C 
HETATM   14  C13 UNL     1      -1.135  26.358  31.037  1.00  0.00     0.234 C 
HETATM   15  N7  UNL     1      -1.813  27.276  30.169  1.00  0.00    -0.074 N 
ATOM     16  H71 UNL     1      -1.198  28.042  29.895  1.00  0.00     0.277 HD
ATOM     17  H72 UNL     1      -2.521  27.805  30.679  1.00  0.00     0.277 HD
HETATM   18  C14 UNL     1      -2.396  26.621  28.987  1.00  0.00     0.252 C 
HETATM   19  C15 UNL     1      -3.580  27.406  28.525  1.00  0.00     0.149 C 
ENDROOT
BRANCH   1  20
HETATM   20  C5  UNL     1      -4.731  26.544  26.687  1.00  0.00     0.058 C 
BRANCH  20  21
HETATM   21  C4  UNL     1      -3.526  26.033  25.990  1.00  0.00     0.053 C 
BRANCH  21  22
HETATM   22  C3  UNL     1      -3.087  27.056  24.966  1.00  0.00     0.108 C 
BRANCH  22  23
HETATM   23  C2  UNL     1      -1.695  26.836  24.524  1.00  0.00     0.224 C 
HETATM   24  N3  UNL     1      -0.564  27.395  25.115  1.00  0.00    -0.304 N 
HETATM   25  C1  UNL     1       0.215  28.157  24.431  1.00  0.00     0.203 C 
ATOM     26  H3  UNL     1      -0.353  27.199  26.093  1.00  0.00     0.171 HD
HETATM   27  N1  UNL     1      -0.092  28.418  23.077  1.00  0.00    -0.066 NA
HETATM   28  N2  UNL     1       1.377  28.755  24.962  1.00  0.00    -0.066 NA
HETATM   29  O1  UNL     1      -1.525  26.077  23.528  1.00  0.00    -0.273 OA
ENDBRANCH  22  23
ENDBRANCH  21  22
ENDBRANCH  20  21
ENDBRANCH   1  20
TORSDOF 4
ENDMDL
MODEL 3
REMARK VINA RESULT: -7.319987842      3.230      5.030
REMARK  4 active torsions:
REMARK  status: ('A' for Active; 'I' for Inactive)
REMARK       I    between atoms: N3_4  and  C2_6 
REMARK    1  A    between atoms: C2_6  and  C3_8 
REMARK    2  A    between atoms: C3_8  and  C4_9 
REMARK    3  A    between atoms: C4_9  and  C5_10 
REMARK    4  A    between atoms: C5_10  and  N4_11 
ROOT
HETATM    1  N4  UNL     1      -1.938  24.855  30.967  1.00  0.00    -0.392 N 
HETATM    2  C6  UNL     1      -1.130  23.800  30.584  1.00  0.00     0.123 C 
HETATM    3  C7  UNL     1      -1.768  22.450  30.951  1.00  0.00     0.039 C 
HETATM    4  C8  UNL     1      -1.314  21.954  32.283  1.00  0.00     0.115 C 
HETATM    5  N5  UNL     1      -0.361  20.886  32.233  1.00  0.00    -0.420 N 
ATOM      6  H5  UNL     1      -0.556  20.010  31.746  1.00  0.00     0.153 HD
HETATM    7  C9  UNL     1       0.878  21.117  32.903  1.00  0.00     0.141 C 
HETATM    8  C10 UNL     1       0.742  21.553  34.322  1.00  0.00     0.251 C 
HETATM    9  N6  UNL     1       1.767  22.466  34.746  1.00  0.00    -0.074 N 
ATOM     10  H61 UNL     1       2.623  21.960  34.972  1.00  0.00     0.277 HD
ATOM     11  H62 UNL     1       1.545  22.851  35.665  1.00  0.00     0.277 HD
HETATM   12  C11 UNL     1       2.041  23.528  33.807  1.00  0.00     0.234 C 
HETATM   13  C12 UNL     1       2.266  24.869  34.460  1.00  0.00     0.055 C 
HETATM   14  C13 UNL     1       1.828  25.939  33.451  1.00  0.00     0.234 C 
HETATM   15  N7  UNL     1       0.401  26.084  33.439  1.00  0.00    -0.074 N 
ATOM     16  H71 UNL     1       0.110  26.884  34.001  1.00  0.00     0.277 HD
ATOM     17  H72 UNL     1      -0.045  25.337  33.970  1.00  0.00     0.277 HD
HETATM   18  C14 UNL     1      -0.154  26.167  32.079  1.00  0.00     0.252 C 
HETATM   19  C15 UNL     1      -1.556  25.650  32.089  1.00  0.00     0.149 C 
ENDROOT
BRANCH   1  20
HETATM   20  C5  UNL     1      -2.653  25.616  30.029  1.00  0.00     0.058 C 
BRANCH  20  21
HETATM   21  C4  UNL     1      -1.913  26.215  28.892  1.00  0.00     0.053 C 
BRANCH  21  22
HETATM   22  C3  UNL     1      -2.830  26.263  27.689  1.00  0.00     0.108 C 
BRANCH  22  23
HETATM   23  C2  UNL     1      -2.093  26.076  26.423  1.00  0.00     0.224 C 
HETATM   24  N3  UNL     1      -1.271  27.026  25.822  1.00  0.00    -0.304 N 
HETATM   25  C1  UNL     1      -1.537  27.459  24.639  1.00  0.00     0.203 C 
ATOM     26  H3  UNL     1      -0.454  27.380  26.321  1.00  0.00     0.171 HD
HETATM   27  N1  UNL     1      -2.671  26.958  23.963  1.00  0.00    -0.066 NA
HETATM   28  N2  UNL     1      -0.749  28.418  23.969  1.00  0.00    -0.066 NA
HETATM   29  O1  UNL     1      -2.223  24.960  25.845  1.00  0.00    -0.273 OA
ENDBRANCH  22  23
ENDBRANCH  21  22
ENDBRANCH  20  21
ENDBRANCH   1  20
TORSDOF 4
ENDMDL
MODEL 4
REMARK VINA RESULT: -7.317516214      2.099      2.703
REMARK  4 active torsions:
REMARK  status: ('A' for Active; 'I' for Inactive)
REMARK       I    between atoms: N3_4  and  C2_6 
REMARK    1  A    between atoms: C2_6  and  C3_8 
REMARK    2  A    between atoms: C3_8  and  C4_9 
REMARK    3  A    between atoms: C4_9  and  C5_10 
REMARK    4  A    between atoms: C5_10  and  N4_11 
ROOT
HETATM    1  N4  UNL     1      -4.226  26.779  29.417  1.00  0.00    -0.392 N 
HETATM    2  C6  UNL     1      -3.724  27.416  30.536  1.00  0.00     0.123 C 
HETATM    3  C7  UNL     1      -2.238  27.769  30.355  1.00  0.00     0.039 C 
HETATM    4  C8  UNL     1      -1.336  26.709  30.894  1.00  0.00     0.115 C 
HETATM    5  N5  UNL     1      -0.711  27.030  32.142  1.00  0.00    -0.420 N 
ATOM      6  H5  UNL     1      -0.136  27.865  32.259  1.00  0.00     0.153 HD
HETATM    7  C9  UNL     1      -0.940  26.115  33.213  1.00  0.00     0.141 C 
HETATM    8  C10 UNL     1      -0.629  24.693  32.888  1.00  0.00     0.251 C 
HETATM    9  N6  UNL     1      -1.491  23.749  33.547  1.00  0.00    -0.074 N 
ATOM     10  H61 UNL     1      -1.191  23.606  34.511  1.00  0.00     0.277 HD
ATOM     11  H62 UNL     1      -1.340  22.811  33.177  1.00  0.00     0.277 HD
HETATM   12  C11 UNL     1      -2.893  24.092  33.499  1.00  0.00     0.234 C 
HETATM   13  C12 UNL     1      -3.795  22.909  33.253  1.00  0.00     0.055 C 
HETATM   14  C13 UNL     1      -5.043  23.438  32.532  1.00  0.00     0.234 C 
HETATM   15  N7  UNL     1      -4.783  23.644  31.136  1.00  0.00    -0.074 N 
ATOM     16  H71 UNL     1      -5.128  22.861  30.581  1.00  0.00     0.277 HD
ATOM     17  H72 UNL     1      -3.787  23.564  30.935  1.00  0.00     0.277 HD
HETATM   18  C14 UNL     1      -5.320  24.920  30.638  1.00  0.00     0.252 C 
HETATM   19  C15 UNL     1      -4.496  25.378  29.478  1.00  0.00     0.149 C 
ENDROOT
BRANCH   1  20
HETATM   20  C5  UNL     1      -5.104  27.423  28.531  1.00  0.00     0.058 C 
BRANCH  20  21
HETATM   21  C4  UNL     1      -4.550  28.006  27.285  1.00  0.00     0.053 C 
BRANCH  21  22
HETATM   22  C3  UNL     1      -4.672  26.984  26.176  1.00  0.00     0.108 C 
BRANCH  22  23
HETATM   23  C2  UNL     1      -3.353  26.533  25.690  1.00  0.00     0.224 C 
HETATM   24  N3  UNL     1      -2.248  27.356  25.481  1.00  0.00    -0.304 N 
HETATM   25  C1  UNL     1      -1.723  27.451  24.310  1.00  0.00     0.203 C 
ATOM     26  H3  UNL     1      -1.853  27.885  26.259  1.00  0.00     0.171 HD
HETATM   27  N1  UNL     1      -2.281  26.713  23.243  1.00  0.00    -0.066 NA
HETATM   28  N2  UNL     1      -0.604  28.262  24.025  1.00  0.00    -0.066 NA
HETATM   29  O1  UNL     1      -3.222  25.300  25.447  1.00  0.00    -0.273 OA
ENDBRANCH  22  23
ENDBRANCH  21  22
ENDBRANCH  20  21
ENDBRANCH   1  20
TORSDOF 4
ENDMDL
MODEL 5
REMARK VINA RESULT: -7.283998802      2.399      2.972
REMARK  4 active torsions:
REMARK  status: ('A' for Active; 'I' for Inactive)
REMARK       I    between atoms: N3_4  and  C2_6 
REMARK    1  A    between atoms: C2_6  and  C3_8 
REMARK    2  A    between atoms: C3_8  and  C4_9 
REMARK    3  A    between atoms: C4_9  and  C5_10 
REMARK    4  A    between atoms: C5_10  and  N4_11 
ROOT
HETATM    1  N4  UNL     1      -4.338  26.252  29.148  1.00  0.00    -0.392 N 
HETATM    2  C6  UNL     1      -3.324  26.455  30.067  1.00  0.00     0.123 C 
HETATM    3  C7  UNL     1      -1.949  26.133  29.459  1.00  0.00     0.039 C 
HETATM    4  C8  UNL     1      -1.531  24.725  29.723  1.00  0.00     0.115 C 
HETATM    5  N5  UNL     1      -0.526  24.577  30.732  1.00  0.00    -0.420 N 
ATOM      6  H5  UNL     1       0.377  25.048  30.668  1.00  0.00     0.153 HD
HETATM    7  C9  UNL     1      -0.861  23.731  31.832  1.00  0.00     0.141 C 
HETATM    8  C10 UNL     1      -1.337  22.372  31.445  1.00  0.00     0.251 C 
HETATM    9  N6  UNL     1      -2.329  21.833  32.334  1.00  0.00    -0.074 N 
ATOM     10  H61 UNL     1      -1.888  21.452  33.171  1.00  0.00     0.277 HD
ATOM     11  H62 UNL     1      -2.730  20.979  31.945  1.00  0.00     0.277 HD
HETATM   12  C11 UNL     1      -3.373  22.764  32.692  1.00  0.00     0.234 C 
HETATM   13  C12 UNL     1      -4.747  22.144  32.731  1.00  0.00     0.055 C 
HETATM   14  C13 UNL     1      -5.751  23.258  32.398  1.00  0.00     0.234 C 
HETATM   15  N7  UNL     1      -5.802  23.500  30.985  1.00  0.00    -0.074 N 
ATOM     16  H71 UNL     1      -6.601  23.028  30.562  1.00  0.00     0.277 HD
ATOM     17  H72 UNL     1      -5.047  23.013  30.504  1.00  0.00     0.277 HD
HETATM   18  C14 UNL     1      -5.801  24.933  30.651  1.00  0.00     0.252 C 
HETATM   19  C15 UNL     1      -5.194  25.121  29.298  1.00  0.00     0.149 C 
ENDROOT
BRANCH   1  20
HETATM   20  C5  UNL     1      -5.017  27.325  28.549  1.00  0.00     0.058 C 
BRANCH  20  21
HETATM   21  C4  UNL     1      -4.427  27.950  27.341  1.00  0.00     0.053 C 
BRANCH  21  22
HETATM   22  C3  UNL     1      -4.575  26.993  26.178  1.00  0.00     0.108 C 
BRANCH  22  23
HETATM   23  C2  UNL     1      -3.267  26.530  25.672  1.00  0.00     0.224 C 
HETATM   24  N3  UNL     1      -2.158  27.343  25.446  1.00  0.00    -0.304 N 
HETATM   25  C1  UNL     1      -1.650  27.433  24.267  1.00  0.00     0.203 C 
ATOM     26  H3  UNL     1      -1.747  27.868  26.218  1.00  0.00     0.171 HD
HETATM   27  N1  UNL     1      -2.231  26.700  23.209  1.00  0.00    -0.066 NA
HETATM   28  N2  UNL     1      -0.528  28.234  23.965  1.00  0.00    -0.066 NA
HETATM   29  O1  UNL     1      -3.152  25.296  25.427  1.00  0.00    -0.273 OA
ENDBRANCH  22  23
ENDBRANCH  21  22
ENDBRANCH  20  21
ENDBRANCH   1  20
TORSDOF 4
ENDMDL
