MODEL 1
REMARK VINA RESULT: -8.106477797      0.000      0.000
REMARK  4 active torsions:
REMARK  status: ('A' for Active; 'I' for Inactive)
REMARK       I    between atoms: C2_5  and  N4_7 
REMARK    1  A    between atoms: N4_7  and  C3_9 
REMARK    2  A    between atoms: C3_9  and  C4_10 
REMARK    3  A    between atoms: C3_9  and  N8_16 
REMARK    4  A    between atoms: C4_10  and  N5_11 
REMARK       I    between atoms: N8_16  and  C6_18 
REMARK       I    between atoms: C6_18  and  N9_20 
ROOT
HETATM    1  N1  UNL     1       0.089  28.445  23.784  1.00  0.00    -0.172 NA
HETATM    2  C1  UNL     1      -0.455  27.912  24.657  1.00  0.00     0.184 C 
HETATM    3  N2  UNL     1      -1.124  27.245  25.714  1.00  0.00    -0.267 N 
ATOM      4  H2  UNL     1      -0.772  27.327  26.668  1.00  0.00     0.180 HD
HETATM    5  C2  UNL     1      -2.158  26.545  25.480  1.00  0.00     0.199 C 
HETATM    6  N3  UNL     1      -2.668  26.415  24.160  1.00  0.00    -0.063 NA
HETATM    7  N4  UNL     1      -2.812  25.883  26.550  1.00  0.00    -0.341 N 
ATOM      8  H4  UNL     1      -2.799  24.864  26.571  1.00  0.00     0.164 HD
ENDROOT
BRANCH   7   9
HETATM    9  C3  UNL     1      -3.502  26.593  27.624  1.00  0.00     0.206 C 
BRANCH   9  10
HETATM   10  C4  UNL     1      -4.166  27.822  27.044  1.00  0.00     0.168 C 
BRANCH  10  11
HETATM   11  N5  UNL     1      -5.182  27.536  26.086  1.00  0.00    -0.363 N 
HETATM   12  C5  UNL     1      -6.409  27.706  26.375  1.00  0.00     0.197 C 
HETATM   13  N6  UNL     1      -7.389  27.405  25.376  1.00  0.00    -0.067 NA
HETATM   14  N7  UNL     1      -6.893  28.177  27.626  1.00  0.00    -0.067 NA
ATOM     15  H5  UNL     1      -4.923  27.193  25.161  1.00  0.00     0.161 HD
ENDBRANCH  10  11
ENDBRANCH   9  10
BRANCH   9  16
HETATM   16  N8  UNL     1      -2.616  26.908  28.711  1.00  0.00    -0.320 N 
HETATM   17  C6  UNL     1      -2.203  25.908  29.612  1.00  0.00     0.320 C 
HETATM   18  O1  UNL     1      -2.654  24.722  29.411  1.00  0.00    -0.247 OA
HETATM   19  N9  UNL     1      -1.339  26.098  30.713  1.00  0.00    -0.329 N 
HETATM   20  C7  UNL     1      -0.809  27.408  30.995  1.00  0.00     0.128 C 
HETATM   21  C14 UNL     1      -0.979  25.009  31.551  1.00  0.00     0.093 C 
HETATM   22  C8  UNL     1      -0.718  27.713  32.484  1.00  0.00     0.020 C 
HETATM   23  C9  UNL     1      -0.273  26.526  33.304  1.00  0.00     0.008 C 
HETATM   24  C10 UNL     1       0.230  25.482  32.374  1.00  0.00     0.009 C 
HETATM   25  C11 UNL     1       0.595  24.183  33.042  1.00  0.00     0.007 C 
HETATM   26  C12 UNL     1       0.512  23.206  31.889  1.00  0.00     0.002 C 
HETATM   27  C13 UNL     1      -0.398  23.828  30.859  1.00  0.00     0.026 C 
ATOM     28  H8  UNL     1      -2.282  27.865  28.830  1.00  0.00     0.166 HD
ENDBRANCH   9  16
ENDBRANCH   7   9
TORSDOF 4
ENDMDL
MODEL 2
REMARK VINA RESULT: -7.987787345      2.979      7.776
REMARK  4 active torsions:
REMARK  status: ('A' for Active; 'I' for Inactive)
REMARK       I    between atoms: C2_5  and  N4_7 
REMARK    1  A    between atoms: N4_7  and  C3_9 
REMARK    2  A    between atoms: C3_9  and  C4_10 
REMARK    3  A    between atoms: C3_9  and  N8_16 
REMARK    4  A    between atoms: C4_10  and  N5_11 
REMARK       I    between atoms: N8_16  and  C6_18 
REMARK       I    between atoms: C6_18  and  N9_20 
ROOT
HETATM    1  N1  UNL     1      -2.417  19.756  32.177  1.00  0.00    -0.172 NA
HETATM    2  C1  UNL     1      -2.163  20.789  31.717  1.00  0.00     0.184 C 
HETATM    3  N2  UNL     1      -1.834  22.044  31.146  1.00  0.00    -0.267 N 
ATOM      4  H2  UNL     1      -2.570  22.627  30.747  1.00  0.00     0.180 HD
HETATM    5  C2  UNL     1      -0.630  22.447  31.129  1.00  0.00     0.199 C 
HETATM    6  N3  UNL     1       0.413  21.654  31.679  1.00  0.00    -0.063 NA
HETATM    7  N4  UNL     1      -0.321  23.705  30.552  1.00  0.00    -0.341 N 
ATOM      8  H4  UNL     1       0.237  23.724  29.699  1.00  0.00     0.164 HD
ENDROOT
BRANCH   7   9
HETATM    9  C3  UNL     1      -0.766  24.975  31.121  1.00  0.00     0.206 C 
BRANCH   9  10
HETATM   10  C4  UNL     1      -0.531  24.944  32.615  1.00  0.00     0.168 C 
BRANCH  10  11
HETATM   11  N5  UNL     1       0.834  24.764  32.985  1.00  0.00    -0.363 N 
HETATM   12  C5  UNL     1       1.567  25.768  33.257  1.00  0.00     0.197 C 
HETATM   13  N6  UNL     1       2.930  25.532  33.624  1.00  0.00    -0.067 NA
HETATM   14  N7  UNL     1       1.138  27.123  33.225  1.00  0.00    -0.067 NA
ATOM     15  H5  UNL     1       1.225  23.824  33.032  1.00  0.00     0.161 HD
ENDBRANCH  10  11
ENDBRANCH   9  10
BRANCH   9  16
HETATM   16  N8  UNL     1      -2.134  25.260  30.786  1.00  0.00    -0.320 N 
HETATM   17  C6  UNL     1      -2.451  25.975  29.614  1.00  0.00     0.320 C 
HETATM   18  O1  UNL     1      -1.467  26.349  28.879  1.00  0.00    -0.247 OA
HETATM   19  N9  UNL     1      -3.752  26.313  29.184  1.00  0.00    -0.329 N 
HETATM   20  C7  UNL     1      -4.895  25.928  29.973  1.00  0.00     0.128 C 
HETATM   21  C14 UNL     1      -3.954  27.029  27.973  1.00  0.00     0.093 C 
HETATM   22  C8  UNL     1      -5.993  26.983  29.996  1.00  0.00     0.020 C 
HETATM   23  C9  UNL     1      -6.190  27.660  28.662  1.00  0.00     0.008 C 
HETATM   24  C10 UNL     1      -5.447  26.886  27.634  1.00  0.00     0.009 C 
HETATM   25  C11 UNL     1      -5.448  27.515  26.266  1.00  0.00     0.007 C 
HETATM   26  C12 UNL     1      -4.230  26.879  25.631  1.00  0.00     0.002 C 
HETATM   27  C13 UNL     1      -3.336  26.432  26.760  1.00  0.00     0.026 C 
ATOM     28  H8  UNL     1      -2.882  24.940  31.400  1.00  0.00     0.166 HD
ENDBRANCH   9  16
ENDBRANCH   7   9
TORSDOF 4
ENDMDL
MODEL 3
REMARK VINA RESULT: -7.902202135      1.128      3.519
REMARK  4 active torsions:
REMARK  status: ('A' for Active; 'I' for Inactive)
REMARK       I    between atoms: C2_5  and  N4_7 
REMARK    1  A    between atoms: N4_7  and  C3_9 
REMARK    2  A    between atoms: C3_9  and  C4_10 
REMARK    3  A    between atoms: C3_9  and  N8_16 
REMARK    4  A    between atoms: C4_10  and  N5_11 
REMARK       I    between atoms: N8_16  and  C6_18 
REMARK       I    between atoms: C6_18  and  N9_20 
ROOT
HETATM    1  N1  UNL     1      -7.119  27.777  25.340  1.00  0.00    -0.172 NA
HETATM    2  C1  UNL     1      -6.192  27.329  25.871  1.00  0.00     0.184 C 
HETATM    3  N2  UNL     1      -5.070  26.773  26.535  1.00  0.00    -0.267 N 
ATOM      4  H2  UNL     1      -4.329  26.328  25.993  1.00  0.00     0.180 HD
HETATM    5  C2  UNL     1      -4.982  26.825  27.801  1.00  0.00     0.199 C 
HETATM    6  N3  UNL     1      -6.000  27.440  28.579  1.00  0.00    -0.063 NA
HETATM    7  N4  UNL     1      -3.853  26.262  28.448  1.00  0.00    -0.341 N 
ATOM      8  H4  UNL     1      -3.990  25.443  29.041  1.00  0.00     0.164 HD
ENDROOT
BRANCH   7   9
HETATM    9  C3  UNL     1      -2.501  26.798  28.305  1.00  0.00     0.206 C 
BRANCH   9  10
HETATM   10  C4  UNL     1      -1.814  26.081  27.165  1.00  0.00     0.168 C 
BRANCH  10  11
HETATM   11  N5  UNL     1      -1.255  26.951  26.183  1.00  0.00    -0.363 N 
HETATM   12  C5  UNL     1      -1.769  27.031  25.022  1.00  0.00     0.197 C 
HETATM   13  N6  UNL     1      -1.170  27.920  24.075  1.00  0.00    -0.067 NA
HETATM   14  N7  UNL     1      -2.905  26.298  24.583  1.00  0.00    -0.067 NA
ATOM     15  H5  UNL     1      -0.437  27.514  26.414  1.00  0.00     0.161 HD
ENDBRANCH  10  11
ENDBRANCH   9  10
BRANCH   9  16
HETATM   16  N8  UNL     1      -1.761  26.712  29.534  1.00  0.00    -0.320 N 
HETATM   17  C6  UNL     1      -1.554  25.468  30.161  1.00  0.00     0.320 C 
HETATM   18  O1  UNL     1      -2.053  24.436  29.582  1.00  0.00    -0.247 OA
HETATM   19  N9  UNL     1      -0.847  25.261  31.365  1.00  0.00    -0.329 N 
HETATM   20  C7  UNL     1      -0.272  26.382  32.065  1.00  0.00     0.128 C 
HETATM   21  C14 UNL     1      -0.688  23.954  31.900  1.00  0.00     0.093 C 
HETATM   22  C8  UNL     1      -0.375  26.263  33.579  1.00  0.00     0.020 C 
HETATM   23  C9  UNL     1      -0.138  24.859  34.079  1.00  0.00     0.008 C 
HETATM   24  C10 UNL     1       0.420  24.056  32.961  1.00  0.00     0.009 C 
HETATM   25  C11 UNL     1       0.591  22.593  33.275  1.00  0.00     0.007 C 
HETATM   26  C12 UNL     1       0.608  21.978  31.893  1.00  0.00     0.002 C 
HETATM   27  C13 UNL     1      -0.098  22.948  30.979  1.00  0.00     0.026 C 
ATOM     28  H8  UNL     1      -1.381  27.559  29.956  1.00  0.00     0.166 HD
ENDBRANCH   9  16
ENDBRANCH   7   9
TORSDOF 4
ENDMDL
MODEL 4
REMARK VINA RESULT: -7.838298183      2.597      7.693
REMARK  4 active torsions:
REMARK  status: ('A' for Active; 'I' for Inactive)
REMARK       I    between atoms: C2_5  and  N4_7 
REMARK    1  A    between atoms: N4_7  and  C3_9 
REMARK    2  A    between atoms: C3_9  and  C4_10 
REMARK    3  A    between atoms: C3_9  and  N8_16 
REMARK    4  A    between atoms: C4_10  and  N5_11 
REMARK       I    between atoms: N8_16  and  C6_18 
REMARK       I    between atoms: C6_18  and  N9_20 
ROOT
HETATM    1  N1  UNL     1       1.080  28.878  33.050  1.00  0.00    -0.172 NA
HETATM    2  C1  UNL     1       0.355  28.073  32.639  1.00  0.00     0.184 C 
HETATM    3  N2  UNL     1      -0.540  27.086  32.155  1.00  0.00    -0.267 N 
ATOM      4  H2  UNL     1      -1.003  27.218  31.256  1.00  0.00     0.180 HD
HETATM    5  C2  UNL     1      -0.769  26.037  32.835  1.00  0.00     0.199 C 
HETATM    6  N3  UNL     1      -0.136  25.828  34.090  1.00  0.00    -0.063 NA
HETATM    7  N4  UNL     1      -1.668  25.062  32.335  1.00  0.00    -0.341 N 
ATOM      8  H4  UNL     1      -2.547  24.911  32.831  1.00  0.00     0.164 HD
ENDROOT
BRANCH   7   9
HETATM    9  C3  UNL     1      -1.397  24.262  31.143  1.00  0.00     0.206 C 
BRANCH   9  10
HETATM   10  C4  UNL     1       0.013  23.723  31.233  1.00  0.00     0.168 C 
BRANCH  10  11
HETATM   11  N5  UNL     1       0.085  22.312  31.428  1.00  0.00    -0.363 N 
HETATM   12  C5  UNL     1       0.707  21.828  32.427  1.00  0.00     0.197 C 
HETATM   13  N6  UNL     1       0.748  20.406  32.576  1.00  0.00    -0.067 NA
HETATM   14  N7  UNL     1       1.375  22.596  33.419  1.00  0.00    -0.067 NA
ATOM     15  H5  UNL     1      -0.367  21.686  30.761  1.00  0.00     0.161 HD
ENDBRANCH  10  11
ENDBRANCH   9  10
BRANCH   9  16
HETATM   16  N8  UNL     1      -1.624  25.010  29.937  1.00  0.00    -0.320 N 
HETATM   17  C6  UNL     1      -2.931  25.357  29.544  1.00  0.00     0.320 C 
HETATM   18  O1  UNL     1      -3.888  24.977  30.310  1.00  0.00    -0.247 OA
HETATM   19  N9  UNL     1      -3.275  26.086  28.384  1.00  0.00    -0.329 N 
HETATM   20  C7  UNL     1      -2.244  26.531  27.481  1.00  0.00     0.128 C 
HETATM   21  C14 UNL     1      -4.631  26.392  28.094  1.00  0.00     0.093 C 
HETATM   22  C8  UNL     1      -2.649  26.445  26.016  1.00  0.00     0.020 C 
HETATM   23  C9  UNL     1      -4.086  26.840  25.776  1.00  0.00     0.008 C 
HETATM   24  C10 UNL     1      -4.603  27.483  27.011  1.00  0.00     0.009 C 
HETATM   25  C11 UNL     1      -6.070  27.820  26.965  1.00  0.00     0.007 C 
HETATM   26  C12 UNL     1      -6.416  27.903  28.436  1.00  0.00     0.002 C 
HETATM   27  C13 UNL     1      -5.380  27.090  29.172  1.00  0.00     0.026 C 
ATOM     28  H8  UNL     1      -0.831  25.292  29.360  1.00  0.00     0.166 HD
ENDBRANCH   9  16
ENDBRANCH   7   9
TORSDOF 4
ENDMDL
MODEL 5
REMARK VINA RESULT: -7.790212372      1.798      4.487
REMARK  4 active torsions:
REMARK  status: ('A' for Active; 'I' for Inactive)
REMARK       I    between atoms: C2_5  and  N4_7 
REMARK    1  A    between atoms: N4_7  and  C3_9 
REMARK    2  A    between atoms: C3_9  and  C4_10 
REMARK    3  A    between atoms: C3_9  and  N8_16 
REMARK    4  A    between atoms: C4_10  and  N5_11 
REMARK       I    between atoms: N8_16  and  C6_18 
REMARK       I    between atoms: C6_18  and  N9_20 
ROOT
HETATM    1  N1  UNL     1      -6.196  27.832  31.455  1.00  0.00    -0.172 NA
HETATM    2  C1  UNL     1      -5.564  27.729  30.489  1.00  0.00     0.184 C 
HETATM    3  N2  UNL     1      -4.805  27.592  29.299  1.00  0.00    -0.267 N 
ATOM      4  H2  UNL     1      -4.216  28.363  28.983  1.00  0.00     0.180 HD
HETATM    5  C2  UNL     1      -4.855  26.517  28.626  1.00  0.00     0.199 C 
HETATM    6  N3  UNL     1      -5.667  25.429  29.045  1.00  0.00    -0.063 NA
HETATM    7  N4  UNL     1      -4.091  26.400  27.437  1.00  0.00    -0.341 N 
ATOM      8  H4  UNL     1      -4.583  26.334  26.546  1.00  0.00     0.164 HD
ENDROOT
BRANCH   7   9
HETATM    9  C3  UNL     1      -2.630  26.371  27.427  1.00  0.00     0.206 C 
BRANCH   9  10
HETATM   10  C4  UNL     1      -2.161  26.089  26.017  1.00  0.00     0.168 C 
BRANCH  10  11
HETATM   11  N5  UNL     1      -1.338  27.112  25.463  1.00  0.00    -0.363 N 
HETATM   12  C5  UNL     1      -1.370  27.362  24.215  1.00  0.00     0.197 C 
HETATM   13  N6  UNL     1      -0.525  28.401  23.711  1.00  0.00    -0.067 NA
HETATM   14  N7  UNL     1      -2.187  26.685  23.270  1.00  0.00    -0.067 NA
ATOM     15  H5  UNL     1      -0.719  27.648  26.070  1.00  0.00     0.161 HD
ENDBRANCH  10  11
ENDBRANCH   9  10
BRANCH   9  16
HETATM   16  N8  UNL     1      -2.110  25.427  28.379  1.00  0.00    -0.320 N 
HETATM   17  C6  UNL     1      -1.672  25.856  29.647  1.00  0.00     0.320 C 
HETATM   18  O1  UNL     1      -1.764  27.112  29.899  1.00  0.00    -0.247 OA
HETATM   19  N9  UNL     1      -1.144  25.025  30.659  1.00  0.00    -0.329 N 
HETATM   20  C7  UNL     1      -1.008  23.608  30.430  1.00  0.00     0.128 C 
HETATM   21  C14 UNL     1      -0.745  25.567  31.910  1.00  0.00     0.093 C 
HETATM   22  C8  UNL     1       0.256  23.018  31.041  1.00  0.00     0.020 C 
HETATM   23  C9  UNL     1       0.585  23.600  32.394  1.00  0.00     0.008 C 
HETATM   24  C10 UNL     1      -0.594  24.372  32.866  1.00  0.00     0.009 C 
HETATM   25  C11 UNL     1      -0.368  25.118  34.155  1.00  0.00     0.007 C 
HETATM   26  C12 UNL     1      -1.433  26.191  34.083  1.00  0.00     0.002 C 
HETATM   27  C13 UNL     1      -1.776  26.365  32.625  1.00  0.00     0.026 C 
ATOM     28  H8  UNL     1      -2.057  24.439  28.134  1.00  0.00     0.166 HD
ENDBRANCH   9  16
ENDBRANCH   7   9
TORSDOF 4
ENDMDL
