MODEL 1
REMARK VINA RESULT: -7.670287159      0.000      0.000
REMARK  8 active torsions:
REMARK  status: ('A' for Active; 'I' for Inactive)
REMARK    1  A    between atoms: N1_3  and  C3_5 
REMARK    2  A    between atoms: C3_5  and  O1_6 
REMARK    3  A    between atoms: C3_5  and  N2_8 
REMARK    4  A    between atoms: N2_8  and  N3_9 
REMARK       I    between atoms: N3_9  and  C4_11 
REMARK    5  A    between atoms: C4_11  and  C5_13 
REMARK    6  A    between atoms: N4_18  and  C10_19 
REMARK    7  A    between atoms: C10_19  and  C11_20 
REMARK    8  A    between atoms: C11_20  and  C12_21 
REMARK       I    between atoms: N5_24  and  C13_26 
ROOT
HETATM    1  C1  UNL     1       1.504  28.444  24.742  1.00  0.00     0.037 C 
HETATM    2  C2  UNL     1       0.534  28.412  24.080  1.00  0.00     0.003 C 
HETATM    3  N1  UNL     1      -0.671  28.416  23.295  1.00  0.00    -0.268 N 
ATOM      4  H1  UNL     1      -0.772  28.998  22.463  1.00  0.00     0.181 HD
ENDROOT
BRANCH   3   5
HETATM    5  C3  UNL     1      -1.700  27.575  23.741  1.00  0.00     0.326 C 
BRANCH   5   6
HETATM    6  O1  UNL     1      -2.224  26.898  22.694  1.00  0.00    -0.320 OA
ATOM      7  H1  UNL     1      -3.031  26.471  22.958  1.00  0.00     0.222 HD
ENDBRANCH   5   6
BRANCH   5   8
HETATM    8  N2  UNL     1      -2.257  27.317  24.910  1.00  0.00    -0.276 NA
BRANCH   8   9
HETATM    9  N3  UNL     1      -2.833  27.055  26.097  1.00  0.00    -0.197 N 
HETATM   10  C4  UNL     1      -2.735  26.291  27.254  1.00  0.00     0.269 C 
HETATM   11  O2  UNL     1      -1.818  25.493  27.497  1.00  0.00    -0.269 OA
ATOM     12  H3  UNL     1      -3.661  27.644  26.179  1.00  0.00     0.205 HD
BRANCH  10  13
HETATM   13  C5  UNL     1      -3.802  26.435  28.340  1.00  0.00     0.180 C 
HETATM   14  C6  UNL     1      -4.537  27.745  28.130  1.00  0.00     0.035 C 
HETATM   15  C7  UNL     1      -5.776  27.841  29.001  1.00  0.00     0.004 C 
HETATM   16  C8  UNL     1      -5.637  27.172  30.327  1.00  0.00     0.020 C 
HETATM   17  C9  UNL     1      -4.296  26.817  30.760  1.00  0.00     0.125 C 
HETATM   18  N4  UNL     1      -3.379  26.303  29.647  1.00  0.00    -0.357 N 
BRANCH  18  19
HETATM   19  C10 UNL     1      -2.194  25.853  30.352  1.00  0.00     0.092 C 
HETATM   20  N5  UNL     1      -2.099  24.633  30.511  1.00  0.00    -0.320 N 
HETATM   21  C13 UNL     1      -1.093  23.876  31.131  1.00  0.00     0.187 C 
ATOM     22  H5  UNL     1      -2.873  24.089  30.131  1.00  0.00     0.169 HD
HETATM   23  N6  UNL     1      -0.016  23.672  30.396  1.00  0.00    -0.373 N 
HETATM   24  N7  UNL     1      -1.217  23.317  32.394  1.00  0.00    -0.064 NA
ATOM     25  H62 UNL     1       0.076  24.082  29.468  1.00  0.00     0.158 HD
ATOM     26  H61 UNL     1       0.715  23.121  30.847  1.00  0.00     0.158 HD
BRANCH  19  27
HETATM   27  C11 UNL     1      -1.180  26.856  30.705  1.00  0.00     0.189 C 
BRANCH  27  28
HETATM   28  C12 UNL     1      -0.905  27.185  32.079  1.00  0.00     0.179 C 
HETATM   29  O3  UNL     1      -1.379  26.717  33.113  1.00  0.00    -0.648 OA
HETATM   30  O4  UNL     1       0.094  28.214  32.266  1.00  0.00    -0.648 OA
ENDBRANCH  27  28
ENDBRANCH  19  27
ENDBRANCH  18  19
ENDBRANCH  10  13
ENDBRANCH   8   9
ENDBRANCH   5   8
ENDBRANCH   3   5
TORSDOF 8
ENDMDL
MODEL 2
REMARK VINA RESULT: -7.549543043      2.200      2.951
REMARK  8 active torsions:
REMARK  status: ('A' for Active; 'I' for Inactive)
REMARK    1  A    between atoms: N1_3  and  C3_5 
REMARK    2  A    between atoms: C3_5  and  O1_6 
REMARK    3  A    between atoms: C3_5  and  N2_8 
REMARK    4  A    between atoms: N2_8  and  N3_9 
REMARK       I    between atoms: N3_9  and  C4_11 
REMARK    5  A    between atoms: C4_11  and  C5_13 
REMARK    6  A    between atoms: N4_18  and  C10_19 
REMARK    7  A    between atoms: C10_19  and  C11_20 
REMARK    8  A    between atoms: C11_20  and  C12_21 
REMARK       I    between atoms: N5_24  and  C13_26 
ROOT
HETATM    1  C1  UNL     1       2.230  28.813  25.442  1.00  0.00     0.037 C 
HETATM    2  C2  UNL     1       1.654  28.085  24.722  1.00  0.00     0.003 C 
HETATM    3  N1  UNL     1       0.961  27.225  23.800  1.00  0.00    -0.268 N 
ATOM      4  H1  UNL     1       1.451  26.522  23.245  1.00  0.00     0.181 HD
ENDROOT
BRANCH   3   5
HETATM    5  C3  UNL     1      -0.425  27.410  23.707  1.00  0.00     0.326 C 
BRANCH   5   6
HETATM    6  O1  UNL     1      -0.734  27.973  22.517  1.00  0.00    -0.320 OA
ATOM      7  H1  UNL     1      -0.896  28.902  22.633  1.00  0.00     0.222 HD
ENDBRANCH   5   6
BRANCH   5   8
HETATM    8  N2  UNL     1      -1.455  27.175  24.500  1.00  0.00    -0.276 NA
BRANCH   8   9
HETATM    9  N3  UNL     1      -2.506  26.929  25.302  1.00  0.00    -0.197 N 
HETATM   10  C4  UNL     1      -2.900  26.333  26.495  1.00  0.00     0.269 C 
HETATM   11  O2  UNL     1      -2.131  25.776  27.292  1.00  0.00    -0.269 OA
ATOM     12  H3  UNL     1      -3.333  27.337  24.867  1.00  0.00     0.205 HD
BRANCH  10  13
HETATM   13  C5  UNL     1      -4.374  26.367  26.899  1.00  0.00     0.180 C 
HETATM   14  C6  UNL     1      -5.094  27.382  26.030  1.00  0.00     0.035 C 
HETATM   15  C7  UNL     1      -6.601  27.290  26.188  1.00  0.00     0.004 C 
HETATM   16  C8  UNL     1      -7.043  26.913  27.561  1.00  0.00     0.020 C 
HETATM   17  C9  UNL     1      -6.062  27.003  28.629  1.00  0.00     0.125 C 
HETATM   18  N4  UNL     1      -4.647  26.572  28.236  1.00  0.00    -0.357 N 
BRANCH  18  19
HETATM   19  C10 UNL     1      -3.920  26.577  29.492  1.00  0.00     0.092 C 
HETATM   20  N5  UNL     1      -2.919  27.296  29.527  1.00  0.00    -0.320 N 
HETATM   21  C13 UNL     1      -2.010  27.535  30.570  1.00  0.00     0.187 C 
ATOM     22  H5  UNL     1      -2.720  27.797  28.661  1.00  0.00     0.169 HD
HETATM   23  N6  UNL     1      -2.423  28.393  31.483  1.00  0.00    -0.373 N 
HETATM   24  N7  UNL     1      -0.742  26.977  30.630  1.00  0.00    -0.064 NA
ATOM     25  H62 UNL     1      -3.356  28.803  31.439  1.00  0.00     0.158 HD
ATOM     26  H61 UNL     1      -1.762  28.567  32.241  1.00  0.00     0.158 HD
BRANCH  19  27
HETATM   27  C11 UNL     1      -4.492  25.830  30.620  1.00  0.00     0.189 C 
BRANCH  27  28
HETATM   28  C12 UNL     1      -4.120  24.462  30.874  1.00  0.00     0.179 C 
HETATM   29  O3  UNL     1      -4.822  23.494  31.160  1.00  0.00    -0.648 OA
HETATM   30  O4  UNL     1      -2.704  24.189  30.759  1.00  0.00    -0.648 OA
ENDBRANCH  27  28
ENDBRANCH  19  27
ENDBRANCH  18  19
ENDBRANCH  10  13
ENDBRANCH   8   9
ENDBRANCH   5   8
ENDBRANCH   3   5
TORSDOF 8
ENDMDL
MODEL 3
REMARK VINA RESULT: -7.538182937      2.437      4.530
REMARK  8 active torsions:
REMARK  status: ('A' for Active; 'I' for Inactive)
REMARK    1  A    between atoms: N1_3  and  C3_5 
REMARK    2  A    between atoms: C3_5  and  O1_6 
REMARK    3  A    between atoms: C3_5  and  N2_8 
REMARK    4  A    between atoms: N2_8  and  N3_9 
REMARK       I    between atoms: N3_9  and  C4_11 
REMARK    5  A    between atoms: C4_11  and  C5_13 
REMARK    6  A    between atoms: N4_18  and  C10_19 
REMARK    7  A    between atoms: C10_19  and  C11_20 
REMARK    8  A    between atoms: C11_20  and  C12_21 
REMARK       I    between atoms: N5_24  and  C13_26 
ROOT
HETATM    1  C1  UNL     1       1.564  28.496  24.564  1.00  0.00     0.037 C 
HETATM    2  C2  UNL     1       0.716  27.826  24.101  1.00  0.00     0.003 C 
HETATM    3  N1  UNL     1      -0.342  27.050  23.512  1.00  0.00    -0.268 N 
ATOM      4  H1  UNL     1      -0.285  26.697  22.557  1.00  0.00     0.181 HD
ENDROOT
BRANCH   3   5
HETATM    5  C3  UNL     1      -1.456  26.809  24.326  1.00  0.00     0.326 C 
BRANCH   5   6
HETATM    6  O1  UNL     1      -2.497  26.394  23.568  1.00  0.00    -0.320 OA
ATOM      7  H1  UNL     1      -2.334  26.603  22.656  1.00  0.00     0.222 HD
ENDBRANCH   5   6
BRANCH   5   8
HETATM    8  N2  UNL     1      -1.709  26.905  25.619  1.00  0.00    -0.276 NA
BRANCH   8   9
HETATM    9  N3  UNL     1      -1.962  27.011  26.935  1.00  0.00    -0.197 N 
HETATM   10  C4  UNL     1      -1.857  26.364  28.161  1.00  0.00     0.269 C 
HETATM   11  O2  UNL     1      -1.333  25.253  28.329  1.00  0.00    -0.269 OA
ATOM     12  H3  UNL     1      -2.402  27.917  27.097  1.00  0.00     0.205 HD
BRANCH  10  13
HETATM   13  C5  UNL     1      -2.392  27.048  29.420  1.00  0.00     0.180 C 
HETATM   14  C6  UNL     1      -1.729  26.423  30.632  1.00  0.00     0.035 C 
HETATM   15  C7  UNL     1      -2.007  27.215  31.897  1.00  0.00     0.004 C 
HETATM   16  C8  UNL     1      -3.354  27.854  31.926  1.00  0.00     0.020 C 
HETATM   17  C9  UNL     1      -4.333  27.397  30.955  1.00  0.00     0.125 C 
HETATM   18  N4  UNL     1      -3.764  27.091  29.567  1.00  0.00    -0.357 N 
BRANCH  18  19
HETATM   19  C10 UNL     1      -4.940  26.841  28.755  1.00  0.00     0.092 C 
HETATM   20  N5  UNL     1      -5.545  25.795  29.000  1.00  0.00    -0.320 N 
HETATM   21  C13 UNL     1      -6.707  25.262  28.418  1.00  0.00     0.187 C 
ATOM     22  H5  UNL     1      -5.138  25.227  29.743  1.00  0.00     0.169 HD
HETATM   23  N6  UNL     1      -7.837  25.792  28.846  1.00  0.00    -0.373 N 
HETATM   24  N7  UNL     1      -6.702  24.216  27.509  1.00  0.00    -0.064 NA
ATOM     25  H62 UNL     1      -7.841  26.562  29.514  1.00  0.00     0.158 HD
ATOM     26  H61 UNL     1      -8.681  25.404  28.423  1.00  0.00     0.158 HD
BRANCH  19  27
HETATM   27  C11 UNL     1      -5.360  27.887  27.814  1.00  0.00     0.189 C 
BRANCH  27  28
HETATM   28  C12 UNL     1      -5.635  27.581  26.434  1.00  0.00     0.179 C 
HETATM   29  O3  UNL     1      -4.865  27.269  25.527  1.00  0.00    -0.648 OA
HETATM   30  O4  UNL     1      -7.033  27.638  26.068  1.00  0.00    -0.648 OA
ENDBRANCH  27  28
ENDBRANCH  19  27
ENDBRANCH  18  19
ENDBRANCH  10  13
ENDBRANCH   8   9
ENDBRANCH   5   8
ENDBRANCH   3   5
TORSDOF 8
ENDMDL
MODEL 4
REMARK VINA RESULT: -7.538005921      0.927      1.014
REMARK  8 active torsions:
REMARK  status: ('A' for Active; 'I' for Inactive)
REMARK    1  A    between atoms: N1_3  and  C3_5 
REMARK    2  A    between atoms: C3_5  and  O1_6 
REMARK    3  A    between atoms: C3_5  and  N2_8 
REMARK    4  A    between atoms: N2_8  and  N3_9 
REMARK       I    between atoms: N3_9  and  C4_11 
REMARK    5  A    between atoms: C4_11  and  C5_13 
REMARK    6  A    between atoms: N4_18  and  C10_19 
REMARK    7  A    between atoms: C10_19  and  C11_20 
REMARK    8  A    between atoms: C11_20  and  C12_21 
REMARK       I    between atoms: N5_24  and  C13_26 
ROOT
HETATM    1  C1  UNL     1       1.841  28.443  25.021  1.00  0.00     0.037 C 
HETATM    2  C2  UNL     1       0.802  28.386  24.476  1.00  0.00     0.003 C 
HETATM    3  N1  UNL     1      -0.489  28.353  23.841  1.00  0.00    -0.268 N 
ATOM      4  H1  UNL     1      -0.750  29.020  23.115  1.00  0.00     0.181 HD
ENDROOT
BRANCH   3   5
HETATM    5  C3  UNL     1      -1.366  27.352  24.280  1.00  0.00     0.326 C 
BRANCH   5   6
HETATM    6  O1  UNL     1      -1.580  26.462  23.284  1.00  0.00    -0.320 OA
ATOM      7  H1  UNL     1      -1.573  25.579  23.634  1.00  0.00     0.222 HD
ENDBRANCH   5   6
BRANCH   5   8
HETATM    8  N2  UNL     1      -2.015  27.103  25.403  1.00  0.00    -0.276 NA
BRANCH   8   9
HETATM    9  N3  UNL     1      -2.666  26.846  26.550  1.00  0.00    -0.197 N 
HETATM   10  C4  UNL     1      -2.514  26.408  27.861  1.00  0.00     0.269 C 
HETATM   11  O2  UNL     1      -1.430  26.108  28.382  1.00  0.00    -0.269 OA
ATOM     12  H3  UNL     1      -3.654  27.053  26.402  1.00  0.00     0.205 HD
BRANCH  10  13
HETATM   13  C5  UNL     1      -3.744  26.297  28.763  1.00  0.00     0.180 C 
HETATM   14  C6  UNL     1      -4.450  27.640  28.790  1.00  0.00     0.035 C 
HETATM   15  C7  UNL     1      -5.815  27.545  29.448  1.00  0.00     0.004 C 
HETATM   16  C8  UNL     1      -5.883  26.551  30.557  1.00  0.00     0.020 C 
HETATM   17  C9  UNL     1      -4.626  26.053  31.089  1.00  0.00     0.125 C 
HETATM   18  N4  UNL     1      -3.536  25.817  30.040  1.00  0.00    -0.357 N 
BRANCH  18  19
HETATM   19  C10 UNL     1      -2.475  25.161  30.781  1.00  0.00     0.092 C 
HETATM   20  N5  UNL     1      -2.105  24.074  30.333  1.00  0.00    -0.320 N 
HETATM   21  C13 UNL     1      -1.111  23.194  30.792  1.00  0.00     0.187 C 
ATOM     22  H5  UNL     1      -2.598  23.764  29.496  1.00  0.00     0.169 HD
HETATM   23  N6  UNL     1       0.123  23.532  30.471  1.00  0.00    -0.373 N 
HETATM   24  N7  UNL     1      -1.380  22.021  31.480  1.00  0.00    -0.064 NA
ATOM     25  H62 UNL     1       0.321  24.395  29.965  1.00  0.00     0.158 HD
ATOM     26  H61 UNL     1       0.845  22.893  30.804  1.00  0.00     0.158 HD
BRANCH  19  27
HETATM   27  C11 UNL     1      -1.872  25.887  31.906  1.00  0.00     0.189 C 
BRANCH  27  28
HETATM   28  C12 UNL     1      -0.703  26.709  31.722  1.00  0.00     0.179 C 
HETATM   29  O3  UNL     1      -0.601  27.839  31.248  1.00  0.00    -0.648 OA
HETATM   30  O4  UNL     1       0.534  26.113  32.177  1.00  0.00    -0.648 OA
ENDBRANCH  27  28
ENDBRANCH  19  27
ENDBRANCH  18  19
ENDBRANCH  10  13
ENDBRANCH   8   9
ENDBRANCH   5   8
ENDBRANCH   3   5
TORSDOF 8
ENDMDL
MODEL 5
REMARK VINA RESULT: -7.458339447      2.004      2.607
REMARK  8 active torsions:
REMARK  status: ('A' for Active; 'I' for Inactive)
REMARK    1  A    between atoms: N1_3  and  C3_5 
REMARK    2  A    between atoms: C3_5  and  O1_6 
REMARK    3  A    between atoms: C3_5  and  N2_8 
REMARK    4  A    between atoms: N2_8  and  N3_9 
REMARK       I    between atoms: N3_9  and  C4_11 
REMARK    5  A    between atoms: C4_11  and  C5_13 
REMARK    6  A    between atoms: N4_18  and  C10_19 
REMARK    7  A    between atoms: C10_19  and  C11_20 
REMARK    8  A    between atoms: C11_20  and  C12_21 
REMARK       I    between atoms: N5_24  and  C13_26 
ROOT
HETATM    1  C1  UNL     1       1.760  28.456  24.681  1.00  0.00     0.037 C 
HETATM    2  C2  UNL     1       0.621  28.402  24.396  1.00  0.00     0.003 C 
HETATM    3  N1  UNL     1      -0.784  28.364  24.091  1.00  0.00    -0.268 N 
ATOM      4  H1  UNL     1      -1.258  29.141  23.630  1.00  0.00     0.181 HD
ENDROOT
BRANCH   3   5
HETATM    5  C3  UNL     1      -1.464  27.197  24.465  1.00  0.00     0.326 C 
BRANCH   5   6
HETATM    6  O1  UNL     1      -1.232  26.221  23.559  1.00  0.00    -0.320 OA
ATOM      7  H1  UNL     1      -0.544  25.646  23.874  1.00  0.00     0.222 HD
ENDBRANCH   5   6
BRANCH   5   8
HETATM    8  N2  UNL     1      -2.261  26.858  25.463  1.00  0.00    -0.276 NA
BRANCH   8   9
HETATM    9  N3  UNL     1      -3.065  26.507  26.482  1.00  0.00    -0.197 N 
HETATM   10  C4  UNL     1      -3.920  26.994  27.464  1.00  0.00     0.269 C 
HETATM   11  O2  UNL     1      -4.211  28.189  27.616  1.00  0.00    -0.269 OA
ATOM     12  H3  UNL     1      -3.036  25.491  26.567  1.00  0.00     0.205 HD
BRANCH  10  13
HETATM   13  C5  UNL     1      -4.588  26.015  28.430  1.00  0.00     0.180 C 
HETATM   14  C6  UNL     1      -5.976  26.529  28.761  1.00  0.00     0.035 C 
HETATM   15  C7  UNL     1      -6.799  25.492  29.503  1.00  0.00     0.004 C 
HETATM   16  C8  UNL     1      -5.998  24.623  30.412  1.00  0.00     0.020 C 
HETATM   17  C9  UNL     1      -4.650  25.055  30.737  1.00  0.00     0.125 C 
HETATM   18  N4  UNL     1      -3.887  25.697  29.575  1.00  0.00    -0.357 N 
BRANCH  18  19
HETATM   19  C10 UNL     1      -2.541  25.864  30.092  1.00  0.00     0.092 C 
HETATM   20  N5  UNL     1      -2.415  26.703  30.987  1.00  0.00    -0.320 N 
HETATM   21  C13 UNL     1      -1.273  27.101  31.701  1.00  0.00     0.187 C 
ATOM     22  H5  UNL     1      -3.275  27.184  31.250  1.00  0.00     0.169 HD
HETATM   23  N6  UNL     1      -0.914  26.287  32.676  1.00  0.00    -0.373 N 
HETATM   24  N7  UNL     1      -0.591  28.285  31.466  1.00  0.00    -0.064 NA
ATOM     25  H62 UNL     1      -1.416  25.416  32.849  1.00  0.00     0.158 HD
ATOM     26  H61 UNL     1      -0.085  26.577  33.195  1.00  0.00     0.158 HD
BRANCH  19  27
HETATM   27  C11 UNL     1      -1.496  24.960  29.595  1.00  0.00     0.189 C 
BRANCH  27  28
HETATM   28  C12 UNL     1      -1.017  23.864  30.398  1.00  0.00     0.179 C 
HETATM   29  O3  UNL     1      -0.051  23.123  30.225  1.00  0.00    -0.648 OA
HETATM   30  O4  UNL     1      -1.787  23.610  31.597  1.00  0.00    -0.648 OA
ENDBRANCH  27  28
ENDBRANCH  19  27
ENDBRANCH  18  19
ENDBRANCH  10  13
ENDBRANCH   8   9
ENDBRANCH   5   8
ENDBRANCH   3   5
TORSDOF 8
ENDMDL
