MODEL 1
REMARK VINA RESULT: -7.183756530      0.000      0.000
REMARK  3 active torsions:
REMARK  status: ('A' for Active; 'I' for Inactive)
REMARK       I    between atoms: C1_4  and  N3_6 
REMARK    1  A    between atoms: N3_6  and  C2_8 
REMARK    2  A    between atoms: C2_8  and  C3_9 
REMARK    3  A    between atoms: C3_9  and  C4_10 
REMARK       I    between atoms: N4_13  and  C7_14 
REMARK       I    between atoms: N7_24  and  C12_25 
ROOT
HETATM    1  C2  UNL     1      -3.058  26.579  29.228  1.00  0.00     0.049 C 
HETATM    2  C9  UNL     1      -3.452  27.860  29.905  1.00  0.00     0.034 C 
HETATM    3  C10 UNL     1      -4.369  27.663  31.084  1.00  0.00     0.022 C 
HETATM    4  C11 UNL     1      -5.606  26.931  30.554  1.00  0.00     0.127 C 
HETATM    5  N7  UNL     1      -5.115  25.607  30.249  1.00  0.00    -0.334 N 
HETATM    6  C12 UNL     1      -5.731  24.479  30.888  1.00  0.00     0.330 C 
HETATM    7  N8  UNL     1      -6.786  24.645  31.792  1.00  0.00    -0.040 NA
HETATM    8  O2  UNL     1      -5.337  23.300  30.654  1.00  0.00    -0.251 OA
HETATM    9  C13 UNL     1      -4.033  25.474  29.312  1.00  0.00     0.158 C 
ENDROOT
BRANCH   1  10
HETATM   10  N3  UNL     1      -2.952  26.929  27.789  1.00  0.00    -0.354 N 
HETATM   11  C1  UNL     1      -2.166  26.242  26.870  1.00  0.00     0.182 C 
HETATM   12  N1  UNL     1      -0.908  26.475  26.778  1.00  0.00    -0.374 N 
HETATM   13  N2  UNL     1      -2.760  25.274  26.021  1.00  0.00    -0.064 NA
ATOM     14  H12 UNL     1      -0.332  25.971  26.104  1.00  0.00     0.158 HD
ATOM     15  H11 UNL     1      -0.481  27.171  27.388  1.00  0.00     0.158 HD
ATOM     16  H3  UNL     1      -3.491  27.727  27.452  1.00  0.00     0.163 HD
ENDBRANCH   1  10
BRANCH   1  17
HETATM   17  C3  UNL     1      -1.675  26.143  29.550  1.00  0.00     0.047 C 
BRANCH  17  18
HETATM   18  C4  UNL     1      -1.352  25.379  30.731  1.00  0.00     0.082 C 
HETATM   19  C5  UNL     1      -0.433  24.217  30.670  1.00  0.00     0.034 C 
HETATM   20  C6  UNL     1      -0.061  24.013  32.159  1.00  0.00     0.135 C 
HETATM   21  N4  UNL     1       0.130  25.408  32.555  1.00  0.00    -0.292 N 
HETATM   22  C7  UNL     1       0.919  25.848  33.670  1.00  0.00     0.190 C 
HETATM   23  C8  UNL     1      -0.578  26.272  31.679  1.00  0.00     0.230 C 
HETATM   24  N5  UNL     1       1.919  26.631  33.454  1.00  0.00    -0.373 N 
HETATM   25  N6  UNL     1       0.601  25.425  34.976  1.00  0.00    -0.063 NA
ATOM     26  H52 UNL     1       2.149  26.937  32.509  1.00  0.00     0.158 HD
ATOM     27  H51 UNL     1       2.479  26.944  34.247  1.00  0.00     0.158 HD
HETATM   28  O1  UNL     1      -0.528  27.518  31.736  1.00  0.00    -0.273 OA
ENDBRANCH  17  18
ENDBRANCH   1  17
TORSDOF 3
ENDMDL
MODEL 2
REMARK VINA RESULT: -7.182401176      2.211      6.171
REMARK  3 active torsions:
REMARK  status: ('A' for Active; 'I' for Inactive)
REMARK       I    between atoms: C1_4  and  N3_6 
REMARK    1  A    between atoms: N3_6  and  C2_8 
REMARK    2  A    between atoms: C2_8  and  C3_9 
REMARK    3  A    between atoms: C3_9  and  C4_10 
REMARK       I    between atoms: N4_13  and  C7_14 
REMARK       I    between atoms: N7_24  and  C12_25 
ROOT
HETATM    1  C2  UNL     1      -1.823  25.606  32.483  1.00  0.00     0.049 C 
HETATM    2  C9  UNL     1      -2.597  25.752  33.762  1.00  0.00     0.034 C 
HETATM    3  C10 UNL     1      -1.762  26.228  34.922  1.00  0.00     0.022 C 
HETATM    4  C11 UNL     1      -0.631  25.208  35.089  1.00  0.00     0.127 C 
HETATM    5  N7  UNL     1       0.201  25.426  33.929  1.00  0.00    -0.334 N 
HETATM    6  C12 UNL     1       1.582  25.765  34.123  1.00  0.00     0.330 C 
HETATM    7  N8  UNL     1       2.124  25.885  35.408  1.00  0.00    -0.040 NA
HETATM    8  O2  UNL     1       2.351  25.965  33.139  1.00  0.00    -0.251 OA
HETATM    9  C13 UNL     1      -0.388  25.288  32.625  1.00  0.00     0.158 C 
ENDROOT
BRANCH   1  10
HETATM   10  N3  UNL     1      -2.441  24.442  31.799  1.00  0.00    -0.354 N 
HETATM   11  C1  UNL     1      -1.826  23.204  31.648  1.00  0.00     0.182 C 
HETATM   12  N1  UNL     1      -0.973  23.004  30.711  1.00  0.00    -0.374 N 
HETATM   13  N2  UNL     1      -2.145  22.146  32.538  1.00  0.00    -0.064 NA
ATOM     14  H12 UNL     1      -0.522  22.096  30.601  1.00  0.00     0.158 HD
ATOM     15  H11 UNL     1      -0.743  23.764  30.071  1.00  0.00     0.158 HD
ATOM     16  H3  UNL     1      -3.378  24.558  31.414  1.00  0.00     0.163 HD
ENDBRANCH   1  10
BRANCH   1  17
HETATM   17  C3  UNL     1      -2.069  26.708  31.517  1.00  0.00     0.047 C 
BRANCH  17  18
HETATM   18  C4  UNL     1      -2.903  26.552  30.350  1.00  0.00     0.082 C 
HETATM   19  C5  UNL     1      -3.614  27.707  29.750  1.00  0.00     0.034 C 
HETATM   20  C6  UNL     1      -3.989  27.171  28.348  1.00  0.00     0.135 C 
HETATM   21  N4  UNL     1      -2.741  26.489  28.006  1.00  0.00    -0.292 N 
HETATM   22  C7  UNL     1      -2.301  26.194  26.672  1.00  0.00     0.190 C 
HETATM   23  C8  UNL     1      -2.021  26.157  29.183  1.00  0.00     0.230 C 
HETATM   24  N5  UNL     1      -1.184  26.687  26.263  1.00  0.00    -0.373 N 
HETATM   25  N6  UNL     1      -3.084  25.379  25.830  1.00  0.00    -0.063 NA
ATOM     26  H52 UNL     1      -0.618  27.277  26.872  1.00  0.00     0.158 HD
ATOM     27  H51 UNL     1      -0.871  26.478  25.315  1.00  0.00     0.158 HD
HETATM   28  O1  UNL     1      -0.885  25.640  29.185  1.00  0.00    -0.273 OA
ENDBRANCH  17  18
ENDBRANCH   1  17
TORSDOF 3
ENDMDL
MODEL 3
REMARK VINA RESULT: -7.039172255      2.153      2.550
REMARK  3 active torsions:
REMARK  status: ('A' for Active; 'I' for Inactive)
REMARK       I    between atoms: C1_4  and  N3_6 
REMARK    1  A    between atoms: N3_6  and  C2_8 
REMARK    2  A    between atoms: C2_8  and  C3_9 
REMARK    3  A    between atoms: C3_9  and  C4_10 
REMARK       I    between atoms: N4_13  and  C7_14 
REMARK       I    between atoms: N7_24  and  C12_25 
ROOT
HETATM    1  C2  UNL     1      -2.079  26.093  30.886  1.00  0.00     0.049 C 
HETATM    2  C9  UNL     1      -1.992  27.582  30.708  1.00  0.00     0.034 C 
HETATM    3  C10 UNL     1      -2.357  28.361  31.944  1.00  0.00     0.022 C 
HETATM    4  C11 UNL     1      -3.785  27.945  32.313  1.00  0.00     0.127 C 
HETATM    5  N7  UNL     1      -3.637  26.583  32.772  1.00  0.00    -0.334 N 
HETATM    6  C12 UNL     1      -4.072  26.250  34.098  1.00  0.00     0.330 C 
HETATM    7  N8  UNL     1      -4.630  27.217  34.941  1.00  0.00    -0.040 NA
HETATM    8  O2  UNL     1      -3.963  25.072  34.545  1.00  0.00    -0.251 OA
HETATM    9  C13 UNL     1      -3.065  25.615  31.876  1.00  0.00     0.158 C 
ENDROOT
BRANCH   1  10
HETATM   10  N3  UNL     1      -2.532  25.581  29.568  1.00  0.00    -0.354 N 
HETATM   11  C1  UNL     1      -2.436  26.290  28.376  1.00  0.00     0.182 C 
HETATM   12  N1  UNL     1      -3.310  27.178  28.067  1.00  0.00    -0.374 N 
HETATM   13  N2  UNL     1      -1.363  26.030  27.486  1.00  0.00    -0.064 NA
ATOM     14  H12 UNL     1      -3.239  27.697  27.193  1.00  0.00     0.158 HD
ATOM     15  H11 UNL     1      -4.082  27.365  28.707  1.00  0.00     0.158 HD
ATOM     16  H3  UNL     1      -2.941  24.647  29.535  1.00  0.00     0.163 HD
ENDBRANCH   1  10
BRANCH   1  17
HETATM   17  C3  UNL     1      -0.754  25.440  31.041  1.00  0.00     0.047 C 
BRANCH  17  18
HETATM   18  C4  UNL     1      -0.332  24.811  32.269  1.00  0.00     0.082 C 
HETATM   19  C5  UNL     1       0.505  23.587  32.261  1.00  0.00     0.034 C 
HETATM   20  C6  UNL     1       1.046  23.547  33.711  1.00  0.00     0.135 C 
HETATM   21  N4  UNL     1       1.364  24.964  33.890  1.00  0.00    -0.292 N 
HETATM   22  C7  UNL     1       2.309  25.483  34.837  1.00  0.00     0.190 C 
HETATM   23  C8  UNL     1       0.604  25.759  32.992  1.00  0.00     0.230 C 
HETATM   24  N5  UNL     1       3.318  26.158  34.403  1.00  0.00    -0.373 N 
HETATM   25  N6  UNL     1       2.131  25.255  36.216  1.00  0.00    -0.063 NA
ATOM     26  H52 UNL     1       3.446  26.323  33.405  1.00  0.00     0.158 HD
ATOM     27  H51 UNL     1       3.989  26.527  35.076  1.00  0.00     0.158 HD
HETATM   28  O1  UNL     1       0.732  26.994  32.873  1.00  0.00    -0.273 OA
ENDBRANCH  17  18
ENDBRANCH   1  17
TORSDOF 3
ENDMDL
MODEL 4
REMARK VINA RESULT: -7.021499301      1.464      1.650
REMARK  3 active torsions:
REMARK  status: ('A' for Active; 'I' for Inactive)
REMARK       I    between atoms: C1_4  and  N3_6 
REMARK    1  A    between atoms: N3_6  and  C2_8 
REMARK    2  A    between atoms: C2_8  and  C3_9 
REMARK    3  A    between atoms: C3_9  and  C4_10 
REMARK       I    between atoms: N4_13  and  C7_14 
REMARK       I    between atoms: N7_24  and  C12_25 
ROOT
HETATM    1  C2  UNL     1      -2.256  26.690  30.650  1.00  0.00     0.049 C 
HETATM    2  C9  UNL     1      -2.672  27.969  31.319  1.00  0.00     0.034 C 
HETATM    3  C10 UNL     1      -3.579  27.764  32.504  1.00  0.00     0.022 C 
HETATM    4  C11 UNL     1      -4.803  27.003  31.986  1.00  0.00     0.127 C 
HETATM    5  N7  UNL     1      -4.289  25.686  31.689  1.00  0.00    -0.334 N 
HETATM    6  C12 UNL     1      -4.879  24.552  32.340  1.00  0.00     0.330 C 
HETATM    7  N8  UNL     1      -5.933  24.704  33.247  1.00  0.00    -0.040 NA
HETATM    8  O2  UNL     1      -4.463  23.378  32.113  1.00  0.00    -0.251 OA
HETATM    9  C13 UNL     1      -3.208  25.567  30.748  1.00  0.00     0.158 C 
ENDROOT
BRANCH   1  10
HETATM   10  N3  UNL     1      -2.163  27.031  29.208  1.00  0.00    -0.354 N 
HETATM   11  C1  UNL     1      -2.431  26.142  28.173  1.00  0.00     0.182 C 
HETATM   12  N1  UNL     1      -1.547  25.295  27.789  1.00  0.00    -0.374 N 
HETATM   13  N2  UNL     1      -3.695  26.170  27.530  1.00  0.00    -0.064 NA
ATOM     14  H12 UNL     1      -1.744  24.643  27.030  1.00  0.00     0.158 HD
ATOM     15  H11 UNL     1      -0.639  25.274  28.251  1.00  0.00     0.158 HD
ATOM     16  H3  UNL     1      -1.884  27.980  28.960  1.00  0.00     0.163 HD
ENDBRANCH   1  10
BRANCH   1  17
HETATM   17  C3  UNL     1      -0.862  26.284  30.970  1.00  0.00     0.047 C 
BRANCH  17  18
HETATM   18  C4  UNL     1      -0.527  25.484  32.123  1.00  0.00     0.082 C 
HETATM   19  C5  UNL     1       0.149  24.172  31.981  1.00  0.00     0.034 C 
HETATM   20  C6  UNL     1       0.676  23.916  33.414  1.00  0.00     0.135 C 
HETATM   21  N4  UNL     1       1.169  25.254  33.735  1.00  0.00    -0.292 N 
HETATM   22  C7  UNL     1       2.168  25.551  34.721  1.00  0.00     0.190 C 
HETATM   23  C8  UNL     1       0.518  26.227  32.930  1.00  0.00     0.230 C 
HETATM   24  N5  UNL     1       3.255  26.135  34.349  1.00  0.00    -0.373 N 
HETATM   25  N6  UNL     1       1.958  25.206  36.071  1.00  0.00    -0.063 NA
ATOM     26  H52 UNL     1       3.407  26.385  33.372  1.00  0.00     0.158 HD
ATOM     27  H51 UNL     1       3.965  26.346  35.050  1.00  0.00     0.158 HD
HETATM   28  O1  UNL     1       0.800  27.442  32.938  1.00  0.00    -0.273 OA
ENDBRANCH  17  18
ENDBRANCH   1  17
TORSDOF 3
ENDMDL
MODEL 5
REMARK VINA RESULT: -7.007492555      2.497      5.551
REMARK  3 active torsions:
REMARK  status: ('A' for Active; 'I' for Inactive)
REMARK       I    between atoms: C1_4  and  N3_6 
REMARK    1  A    between atoms: N3_6  and  C2_8 
REMARK    2  A    between atoms: C2_8  and  C3_9 
REMARK    3  A    between atoms: C3_9  and  C4_10 
REMARK       I    between atoms: N4_13  and  C7_14 
REMARK       I    between atoms: N7_24  and  C12_25 
ROOT
HETATM    1  C2  UNL     1      -3.589  25.531  30.521  1.00  0.00     0.049 C 
HETATM    2  C9  UNL     1      -4.688  24.617  30.062  1.00  0.00     0.034 C 
HETATM    3  C10 UNL     1      -6.070  25.173  30.288  1.00  0.00     0.022 C 
HETATM    4  C11 UNL     1      -6.187  25.445  31.792  1.00  0.00     0.127 C 
HETATM    5  N7  UNL     1      -5.303  26.567  32.007  1.00  0.00    -0.334 N 
HETATM    6  C12 UNL     1      -5.840  27.769  32.578  1.00  0.00     0.330 C 
HETATM    7  N8  UNL     1      -7.193  27.864  32.925  1.00  0.00    -0.040 NA
HETATM    8  O2  UNL     1      -5.107  28.778  32.786  1.00  0.00    -0.251 OA
HETATM    9  C13 UNL     1      -3.919  26.431  31.644  1.00  0.00     0.158 C 
ENDROOT
BRANCH   1  10
HETATM   10  N3  UNL     1      -2.525  24.622  31.017  1.00  0.00    -0.354 N 
HETATM   11  C1  UNL     1      -1.221  24.602  30.533  1.00  0.00     0.182 C 
HETATM   12  N1  UNL     1      -0.931  23.971  29.454  1.00  0.00    -0.374 N 
HETATM   13  N2  UNL     1      -0.197  25.285  31.238  1.00  0.00    -0.064 NA
ATOM     14  H12 UNL     1       0.025  23.957  29.099  1.00  0.00     0.158 HD
ATOM     15  H11 UNL     1      -1.667  23.480  28.947  1.00  0.00     0.158 HD
ATOM     16  H3  UNL     1      -2.765  23.969  31.763  1.00  0.00     0.163 HD
ENDBRANCH   1  10
BRANCH   1  17
HETATM   17  C3  UNL     1      -2.907  26.238  29.406  1.00  0.00     0.047 C 
BRANCH  17  18
HETATM   18  C4  UNL     1      -3.388  26.200  28.047  1.00  0.00     0.082 C 
HETATM   19  C5  UNL     1      -4.309  27.240  27.526  1.00  0.00     0.034 C 
HETATM   20  C6  UNL     1      -4.193  27.045  25.995  1.00  0.00     0.135 C 
HETATM   21  N4  UNL     1      -2.748  26.855  25.882  1.00  0.00    -0.292 N 
HETATM   22  C7  UNL     1      -1.976  27.083  24.694  1.00  0.00     0.190 C 
HETATM   23  C8  UNL     1      -2.210  26.410  27.118  1.00  0.00     0.230 C 
HETATM   24  N5  UNL     1      -1.030  27.957  24.725  1.00  0.00    -0.373 N 
HETATM   25  N6  UNL     1      -2.255  26.361  23.516  1.00  0.00    -0.063 NA
ATOM     26  H52 UNL     1      -0.828  28.480  25.577  1.00  0.00     0.158 HD
ATOM     27  H51 UNL     1      -0.482  28.120  23.881  1.00  0.00     0.158 HD
HETATM   28  O1  UNL     1      -0.991  26.243  27.330  1.00  0.00    -0.273 OA
ENDBRANCH  17  18
ENDBRANCH   1  17
TORSDOF 3
ENDMDL
