MODEL 1
REMARK VINA RESULT: -7.422233345      0.000      0.000
REMARK  3 active torsions:
REMARK  status: ('A' for Active; 'I' for Inactive)
REMARK    1  A    between atoms: N3_4  and  C2_6 
REMARK    2  A    between atoms: C2_6  and  C3_7 
REMARK    3  A    between atoms: C3_7  and  C4_8 
ROOT
HETATM    1  C4  UNL     1      -2.440  26.288  28.317  1.00  0.00     0.171 C 
HETATM    2  N4  UNL     1      -3.574  25.450  28.489  1.00  0.00    -0.409 N 
ATOM      3  H4  UNL     1      -3.535  24.576  29.014  1.00  0.00     0.154 HD
HETATM    4  C5  UNL     1      -4.782  25.923  27.868  1.00  0.00     0.114 C 
HETATM    5  C6  UNL     1      -5.853  24.861  28.140  1.00  0.00     0.021 C 
HETATM    6  C7  UNL     1      -7.227  25.448  28.179  1.00  0.00     0.029 C 
HETATM    7  C8  UNL     1      -7.591  26.062  29.489  1.00  0.00     0.232 C 
HETATM    8  N5  UNL     1      -7.111  25.316  30.628  1.00  0.00    -0.075 N 
ATOM      9  H51 UNL     1      -6.093  25.260  30.644  1.00  0.00     0.277 HD
ATOM     10  H52 UNL     1      -7.316  24.321  30.545  1.00  0.00     0.277 HD
HETATM   11  C9  UNL     1      -7.635  25.871  31.842  1.00  0.00     0.233 C 
HETATM   12  C10 UNL     1      -6.976  27.158  32.246  1.00  0.00     0.055 C 
HETATM   13  C11 UNL     1      -5.685  26.938  32.985  1.00  0.00     0.233 C 
HETATM   14  N6  UNL     1      -4.517  27.192  32.142  1.00  0.00    -0.075 N 
ATOM     15  H61 UNL     1      -4.769  27.543  31.218  1.00  0.00     0.277 HD
ATOM     16  H62 UNL     1      -4.055  26.333  31.843  1.00  0.00     0.277 HD
HETATM   17  C12 UNL     1      -3.634  28.075  32.844  1.00  0.00     0.234 C 
HETATM   18  C13 UNL     1      -2.186  27.850  32.428  1.00  0.00     0.047 C 
HETATM   19  C14 UNL     1      -2.031  27.843  30.923  1.00  0.00     0.124 C 
HETATM   20  N7  UNL     1      -1.203  26.726  30.516  1.00  0.00    -0.359 N 
ATOM     21  H7  UNL     1      -0.376  26.522  31.076  1.00  0.00     0.162 HD
HETATM   22  C15 UNL     1      -1.459  25.900  29.397  1.00  0.00     0.240 C 
HETATM   23  O1  UNL     1      -0.895  24.788  29.213  1.00  0.00    -0.271 OA
ENDROOT
BRANCH   1  24
HETATM   24  C3  UNL     1      -1.716  26.066  27.010  1.00  0.00     0.054 C 
BRANCH  24  25
HETATM   25  C2  UNL     1      -2.252  26.950  25.909  1.00  0.00     0.124 C 
BRANCH  25  26
HETATM   26  N3  UNL     1      -1.135  27.317  25.059  1.00  0.00    -0.367 N 
HETATM   27  C1  UNL     1      -1.196  27.180  23.780  1.00  0.00     0.196 C 
HETATM   28  N1  UNL     1      -0.062  27.560  23.017  1.00  0.00    -0.067 NA
HETATM   29  N2  UNL     1      -2.367  26.666  23.204  1.00  0.00    -0.067 NA
ATOM     30  H3  UNL     1      -0.285  27.690  25.482  1.00  0.00     0.161 HD
ENDBRANCH  25  26
ENDBRANCH  24  25
ENDBRANCH   1  24
TORSDOF 3
ENDMDL
MODEL 2
REMARK VINA RESULT: -7.324538377      2.059      4.162
REMARK  3 active torsions:
REMARK  status: ('A' for Active; 'I' for Inactive)
REMARK    1  A    between atoms: N3_4  and  C2_6 
REMARK    2  A    between atoms: C2_6  and  C3_7 
REMARK    3  A    between atoms: C3_7  and  C4_8 
ROOT
HETATM    1  C4  UNL     1      -3.882  26.874  27.747  1.00  0.00     0.171 C 
HETATM    2  N4  UNL     1      -3.133  27.249  28.896  1.00  0.00    -0.409 N 
ATOM      3  H4  UNL     1      -3.321  28.106  29.416  1.00  0.00     0.154 HD
HETATM    4  C5  UNL     1      -2.090  26.331  29.270  1.00  0.00     0.114 C 
HETATM    5  C6  UNL     1      -1.394  26.944  30.490  1.00  0.00     0.021 C 
HETATM    6  C7  UNL     1      -0.795  25.899  31.377  1.00  0.00     0.029 C 
HETATM    7  C8  UNL     1      -1.765  25.273  32.321  1.00  0.00     0.232 C 
HETATM    8  N5  UNL     1      -2.715  26.208  32.876  1.00  0.00    -0.075 N 
ATOM      9  H51 UNL     1      -3.297  26.633  32.154  1.00  0.00     0.277 HD
ATOM     10  H52 UNL     1      -2.261  27.053  33.220  1.00  0.00     0.277 HD
HETATM   11  C9  UNL     1      -3.503  25.572  33.893  1.00  0.00     0.233 C 
HETATM   12  C10 UNL     1      -4.546  24.640  33.346  1.00  0.00     0.055 C 
HETATM   13  C11 UNL     1      -5.797  25.359  32.922  1.00  0.00     0.233 C 
HETATM   14  N6  UNL     1      -5.887  25.500  31.470  1.00  0.00    -0.075 N 
ATOM     15  H61 UNL     1      -5.126  25.028  30.982  1.00  0.00     0.277 HD
ATOM     16  H62 UNL     1      -5.686  26.449  31.155  1.00  0.00     0.277 HD
HETATM   17  C12 UNL     1      -7.178  25.043  31.049  1.00  0.00     0.234 C 
HETATM   18  C13 UNL     1      -7.627  25.756  29.780  1.00  0.00     0.047 C 
HETATM   19  C14 UNL     1      -6.553  25.731  28.714  1.00  0.00     0.124 C 
HETATM   20  N7  UNL     1      -6.409  27.047  28.126  1.00  0.00    -0.359 N 
ATOM     21  H7  UNL     1      -7.260  27.572  27.926  1.00  0.00     0.162 HD
HETATM   22  C15 UNL     1      -5.172  27.655  27.810  1.00  0.00     0.240 C 
HETATM   23  O1  UNL     1      -5.049  28.884  27.556  1.00  0.00    -0.271 OA
ENDROOT
BRANCH   1  24
HETATM   24  C3  UNL     1      -3.228  27.267  26.444  1.00  0.00     0.054 C 
BRANCH  24  25
HETATM   25  C2  UNL     1      -2.588  26.088  25.752  1.00  0.00     0.124 C 
BRANCH  25  26
HETATM   26  N3  UNL     1      -1.353  26.551  25.149  1.00  0.00    -0.367 N 
HETATM   27  C1  UNL     1      -1.290  26.843  23.896  1.00  0.00     0.196 C 
HETATM   28  N1  UNL     1      -0.046  27.287  23.381  1.00  0.00    -0.067 NA
HETATM   29  N2  UNL     1      -2.442  26.709  23.106  1.00  0.00    -0.067 NA
ATOM     30  H3  UNL     1      -0.518  26.646  25.728  1.00  0.00     0.161 HD
ENDBRANCH  25  26
ENDBRANCH  24  25
ENDBRANCH   1  24
TORSDOF 3
ENDMDL
MODEL 3
REMARK VINA RESULT: -7.120835319      2.564      5.661
REMARK  3 active torsions:
REMARK  status: ('A' for Active; 'I' for Inactive)
REMARK    1  A    between atoms: N3_4  and  C2_6 
REMARK    2  A    between atoms: C2_6  and  C3_7 
REMARK    3  A    between atoms: C3_7  and  C4_8 
ROOT
HETATM    1  C4  UNL     1      -1.692  25.411  30.911  1.00  0.00     0.171 C 
HETATM    2  N4  UNL     1      -2.090  25.056  29.594  1.00  0.00    -0.409 N 
ATOM      3  H4  UNL     1      -2.746  24.297  29.406  1.00  0.00     0.154 HD
HETATM    4  C5  UNL     1      -1.502  25.847  28.545  1.00  0.00     0.114 C 
HETATM    5  C6  UNL     1      -2.031  25.274  27.225  1.00  0.00     0.021 C 
HETATM    6  C7  UNL     1      -2.087  26.309  26.148  1.00  0.00     0.029 C 
HETATM    7  C8  UNL     1      -3.305  27.168  26.192  1.00  0.00     0.232 C 
HETATM    8  N5  UNL     1      -4.507  26.447  26.540  1.00  0.00    -0.075 N 
ATOM      9  H51 UNL     1      -4.448  26.037  27.472  1.00  0.00     0.277 HD
ATOM     10  H52 UNL     1      -4.603  25.587  26.002  1.00  0.00     0.277 HD
HETATM   11  C9  UNL     1      -5.654  27.297  26.401  1.00  0.00     0.233 C 
HETATM   12  C10 UNL     1      -5.788  28.307  27.504  1.00  0.00     0.055 C 
HETATM   13  C11 UNL     1      -6.444  27.737  28.732  1.00  0.00     0.233 C 
HETATM   14  N6  UNL     1      -5.478  27.456  29.793  1.00  0.00    -0.075 N 
ATOM     15  H61 UNL     1      -4.533  27.757  29.553  1.00  0.00     0.277 HD
ATOM     16  H62 UNL     1      -5.285  26.459  29.893  1.00  0.00     0.277 HD
HETATM   17  C12 UNL     1      -5.953  28.049  31.007  1.00  0.00     0.234 C 
HETATM   18  C13 UNL     1      -5.460  27.277  32.225  1.00  0.00     0.047 C 
HETATM   19  C14 UNL     1      -3.969  27.030  32.166  1.00  0.00     0.124 C 
HETATM   20  N7  UNL     1      -3.681  25.651  32.506  1.00  0.00    -0.359 N 
ATOM     21  H7  UNL     1      -4.197  25.238  33.282  1.00  0.00     0.162 HD
HETATM   22  C15 UNL     1      -2.737  24.838  31.838  1.00  0.00     0.240 C 
HETATM   23  O1  UNL     1      -2.690  23.584  31.963  1.00  0.00    -0.271 OA
ENDROOT
BRANCH   1  24
HETATM   24  C3  UNL     1      -0.383  24.788  31.336  1.00  0.00     0.054 C 
BRANCH  24  25
HETATM   25  C2  UNL     1      -0.019  25.148  32.756  1.00  0.00     0.124 C 
BRANCH  25  26
HETATM   26  N3  UNL     1      -0.006  26.595  32.852  1.00  0.00    -0.367 N 
HETATM   27  C1  UNL     1       1.059  27.232  33.194  1.00  0.00     0.196 C 
HETATM   28  N1  UNL     1       0.992  28.647  33.267  1.00  0.00    -0.067 NA
HETATM   29  N2  UNL     1       2.226  26.507  33.477  1.00  0.00    -0.067 NA
ATOM     30  H3  UNL     1      -0.857  27.118  32.646  1.00  0.00     0.161 HD
ENDBRANCH  25  26
ENDBRANCH  24  25
ENDBRANCH   1  24
TORSDOF 3
ENDMDL
MODEL 4
REMARK VINA RESULT: -7.087760921      1.414      3.919
REMARK  3 active torsions:
REMARK  status: ('A' for Active; 'I' for Inactive)
REMARK    1  A    between atoms: N3_4  and  C2_6 
REMARK    2  A    between atoms: C2_6  and  C3_7 
REMARK    3  A    between atoms: C3_7  and  C4_8 
ROOT
HETATM    1  C4  UNL     1      -2.800  26.194  28.048  1.00  0.00     0.171 C 
HETATM    2  N4  UNL     1      -2.579  27.133  29.091  1.00  0.00    -0.409 N 
ATOM      3  H4  UNL     1      -2.899  28.101  29.033  1.00  0.00     0.154 HD
HETATM    4  C5  UNL     1      -1.872  26.621  30.234  1.00  0.00     0.114 C 
HETATM    5  C6  UNL     1      -1.710  27.797  31.204  1.00  0.00     0.021 C 
HETATM    6  C7  UNL     1      -1.631  27.343  32.627  1.00  0.00     0.029 C 
HETATM    7  C8  UNL     1      -2.958  27.085  33.258  1.00  0.00     0.232 C 
HETATM    8  N5  UNL     1      -3.972  28.039  32.878  1.00  0.00    -0.075 N 
ATOM      9  H51 UNL     1      -4.157  28.019  31.875  1.00  0.00     0.277 HD
ATOM     10  H52 UNL     1      -3.638  29.000  32.951  1.00  0.00     0.277 HD
HETATM   11  C9  UNL     1      -5.166  27.828  33.646  1.00  0.00     0.233 C 
HETATM   12  C10 UNL     1      -5.952  26.626  33.211  1.00  0.00     0.055 C 
HETATM   13  C11 UNL     1      -6.843  26.914  32.033  1.00  0.00     0.233 C 
HETATM   14  N6  UNL     1      -6.298  26.380  30.786  1.00  0.00    -0.075 N 
ATOM     15  H61 UNL     1      -5.444  25.841  30.930  1.00  0.00     0.277 HD
ATOM     16  H62 UNL     1      -5.905  27.106  30.187  1.00  0.00     0.277 HD
HETATM   17  C12 UNL     1      -7.323  25.622  30.131  1.00  0.00     0.234 C 
HETATM   18  C13 UNL     1      -7.131  25.630  28.620  1.00  0.00     0.047 C 
HETATM   19  C14 UNL     1      -5.714  25.270  28.233  1.00  0.00     0.124 C 
HETATM   20  N7  UNL     1      -5.226  26.193  27.228  1.00  0.00    -0.359 N 
ATOM     21  H7  UNL     1      -5.866  26.459  26.480  1.00  0.00     0.162 HD
HETATM   22  C15 UNL     1      -3.926  26.749  27.210  1.00  0.00     0.240 C 
HETATM   23  O1  UNL     1      -3.606  27.740  26.499  1.00  0.00    -0.271 OA
ENDROOT
BRANCH   1  24
HETATM   24  C3  UNL     1      -1.626  26.045  27.109  1.00  0.00     0.054 C 
BRANCH  24  25
HETATM   25  C2  UNL     1      -2.055  26.044  25.662  1.00  0.00     0.124 C 
BRANCH  25  26
HETATM   26  N3  UNL     1      -1.071  26.801  24.913  1.00  0.00    -0.367 N 
HETATM   27  C1  UNL     1      -1.254  27.090  23.671  1.00  0.00     0.196 C 
HETATM   28  N1  UNL     1      -0.245  27.832  23.006  1.00  0.00    -0.067 NA
HETATM   29  N2  UNL     1      -2.430  26.661  23.037  1.00  0.00    -0.067 NA
ATOM     30  H3  UNL     1      -0.218  27.111  25.378  1.00  0.00     0.161 HD
ENDBRANCH  25  26
ENDBRANCH  24  25
ENDBRANCH   1  24
TORSDOF 3
ENDMDL
MODEL 5
REMARK VINA RESULT: -7.067092508      2.881      5.970
REMARK  3 active torsions:
REMARK  status: ('A' for Active; 'I' for Inactive)
REMARK    1  A    between atoms: N3_4  and  C2_6 
REMARK    2  A    between atoms: C2_6  and  C3_7 
REMARK    3  A    between atoms: C3_7  and  C4_8 
ROOT
HETATM    1  C4  UNL     1      -1.839  25.394  30.806  1.00  0.00     0.171 C 
HETATM    2  N4  UNL     1      -2.203  25.048  29.476  1.00  0.00    -0.409 N 
ATOM      3  H4  UNL     1      -2.854  24.291  29.266  1.00  0.00     0.154 HD
HETATM    4  C5  UNL     1      -1.586  25.844  28.448  1.00  0.00     0.114 C 
HETATM    5  C6  UNL     1      -2.080  25.280  27.111  1.00  0.00     0.021 C 
HETATM    6  C7  UNL     1      -2.106  26.322  26.039  1.00  0.00     0.029 C 
HETATM    7  C8  UNL     1      -3.324  27.183  26.055  1.00  0.00     0.232 C 
HETATM    8  N5  UNL     1      -4.535  26.461  26.367  1.00  0.00    -0.075 N 
ATOM      9  H51 UNL     1      -4.502  26.045  27.297  1.00  0.00     0.277 HD
ATOM     10  H52 UNL     1      -4.618  25.604  25.821  1.00  0.00     0.277 HD
HETATM   11  C9  UNL     1      -5.677  27.314  26.203  1.00  0.00     0.233 C 
HETATM   12  C10 UNL     1      -5.839  28.317  27.308  1.00  0.00     0.055 C 
HETATM   13  C11 UNL     1      -6.528  27.741  28.514  1.00  0.00     0.233 C 
HETATM   14  N6  UNL     1      -5.591  27.451  29.599  1.00  0.00    -0.075 N 
ATOM     15  H61 UNL     1      -4.640  27.752  29.386  1.00  0.00     0.277 HD
ATOM     16  H62 UNL     1      -5.403  26.454  29.698  1.00  0.00     0.277 HD
HETATM   17  C12 UNL     1      -6.098  28.038  30.804  1.00  0.00     0.234 C 
HETATM   18  C13 UNL     1      -5.639  27.258  32.030  1.00  0.00     0.047 C 
HETATM   19  C14 UNL     1      -4.147  27.009  32.009  1.00  0.00     0.124 C 
HETATM   20  N7  UNL     1      -3.870  25.628  32.348  1.00  0.00    -0.359 N 
ATOM     21  H7  UNL     1      -4.407  25.210  33.108  1.00  0.00     0.162 HD
HETATM   22  C15 UNL     1      -2.909  24.817  31.701  1.00  0.00     0.240 C 
HETATM   23  O1  UNL     1      -2.867  23.563  31.820  1.00  0.00    -0.271 OA
ENDROOT
BRANCH   1  24
HETATM   24  C3  UNL     1      -0.543  24.767  31.261  1.00  0.00     0.054 C 
BRANCH  24  25
HETATM   25  C2  UNL     1       0.105  25.552  32.376  1.00  0.00     0.124 C 
BRANCH  25  26
HETATM   26  N3  UNL     1       0.913  24.630  33.149  1.00  0.00    -0.367 N 
HETATM   27  C1  UNL     1       2.038  24.993  33.661  1.00  0.00     0.196 C 
HETATM   28  N1  UNL     1       2.771  24.033  34.403  1.00  0.00    -0.067 NA
HETATM   29  N2  UNL     1       2.483  26.309  33.463  1.00  0.00    -0.067 NA
ATOM     30  H3  UNL     1       0.586  23.674  33.291  1.00  0.00     0.161 HD
ENDBRANCH  25  26
ENDBRANCH  24  25
ENDBRANCH   1  24
TORSDOF 3
ENDMDL
