MODEL 1
REMARK VINA RESULT: -6.958116200      0.000      0.000
REMARK  6 active torsions:
REMARK  status: ('A' for Active; 'I' for Inactive)
REMARK    1  A    between atoms: N1_2  and  C2_4 
REMARK    2  A    between atoms: C2_4  and  N2_6 
REMARK    3  A    between atoms: N2_6  and  N3_8 
REMARK       I    between atoms: N3_8  and  C3_10 
REMARK       I    between atoms: C3_10  and  N4_12 
REMARK       I    between atoms: N4_12  and  C4_14 
REMARK    4  A    between atoms: C4_14  and  C5_16 
REMARK    5  A    between atoms: C5_16  and  N5_18 
REMARK    6  A    between atoms: C5_16  and  C9_25 
REMARK       I    between atoms: C7_20  and  N7_22 
ROOT
HETATM    1  N3  UNL     1      -1.750  27.094  26.376  1.00  0.00    -0.249 N 
ATOM      2  H3  UNL     1      -2.079  27.893  26.919  1.00  0.00     0.192 HD
HETATM    3  C3  UNL     1      -2.536  25.954  26.204  1.00  0.00     0.341 C 
HETATM    4  O1  UNL     1      -2.022  25.016  25.480  1.00  0.00    -0.245 OA
HETATM    5  N4  UNL     1      -3.803  25.681  26.705  1.00  0.00    -0.276 N 
ATOM      6  H4  UNL     1      -4.241  24.794  26.456  1.00  0.00     0.173 HD
HETATM    7  C4  UNL     1      -4.519  26.573  27.544  1.00  0.00     0.254 C 
HETATM    8  O2  UNL     1      -4.049  27.661  27.845  1.00  0.00    -0.270 OA
ENDROOT
BRANCH   7   9
HETATM    9  C5  UNL     1      -5.868  26.206  28.089  1.00  0.00     0.113 C 
HETATM   10  C6  UNL     1      -6.195  24.781  27.573  1.00  0.00     0.049 C 
BRANCH   9  11
HETATM   11  N5  UNL     1      -5.895  26.227  29.460  1.00  0.00    -0.347 N 
HETATM   12  C7  UNL     1      -5.409  25.791  30.479  1.00  0.00     0.184 C 
HETATM   13  N6  UNL     1      -4.340  24.836  30.591  1.00  0.00    -0.064 NA
HETATM   14  N7  UNL     1      -5.892  26.208  31.795  1.00  0.00    -0.369 N 
HETATM   15  C8  UNL     1      -7.304  26.118  32.064  1.00  0.00     0.148 C 
ATOM     16  H7  UNL     1      -5.246  26.554  32.504  1.00  0.00     0.161 HD
ATOM     17  H5  UNL     1      -6.628  26.880  29.735  1.00  0.00     0.163 HD
ENDBRANCH   9  11
BRANCH   9  18
HETATM   18  C9  UNL     1      -6.964  27.054  27.459  1.00  0.00     0.015 C 
HETATM   19  C10 UNL     1      -7.193  28.272  28.291  1.00  0.00     0.012 C 
HETATM   20  C11 UNL     1      -6.762  27.387  26.029  1.00  0.00     0.012 C 
ENDBRANCH   9  18
ENDBRANCH   7   9
BRANCH   1  21
HETATM   21  N2  UNL     1      -0.463  27.090  25.757  1.00  0.00    -0.272 N 
ATOM     22  H2  UNL     1       0.268  26.495  26.147  1.00  0.00     0.189 HD
BRANCH  21  23
HETATM   23  C2  UNL     1      -0.165  27.878  24.629  1.00  0.00     0.186 C 
HETATM   24  S1  UNL     1      -1.160  27.945  23.329  1.00  0.00    -0.040 SA
BRANCH  23  25
HETATM   25  N1  UNL     1       1.024  28.632  24.601  1.00  0.00    -0.370 N 
HETATM   26  C1  UNL     1       2.137  28.231  25.434  1.00  0.00     0.148 C 
ATOM     27  H1  UNL     1       1.100  29.452  23.999  1.00  0.00     0.161 HD
ENDBRANCH  23  25
ENDBRANCH  21  23
ENDBRANCH   1  21
TORSDOF 6
ENDMDL
MODEL 2
REMARK VINA RESULT: -6.640173237      1.492      1.858
REMARK  6 active torsions:
REMARK  status: ('A' for Active; 'I' for Inactive)
REMARK    1  A    between atoms: N1_2  and  C2_4 
REMARK    2  A    between atoms: C2_4  and  N2_6 
REMARK    3  A    between atoms: N2_6  and  N3_8 
REMARK       I    between atoms: N3_8  and  C3_10 
REMARK       I    between atoms: C3_10  and  N4_12 
REMARK       I    between atoms: N4_12  and  C4_14 
REMARK    4  A    between atoms: C4_14  and  C5_16 
REMARK    5  A    between atoms: C5_16  and  N5_18 
REMARK    6  A    between atoms: C5_16  and  C9_25 
REMARK       I    between atoms: C7_20  and  N7_22 
ROOT
HETATM    1  N3  UNL     1      -1.927  26.788  26.349  1.00  0.00    -0.249 N 
ATOM      2  H3  UNL     1      -2.738  27.022  25.775  1.00  0.00     0.192 HD
HETATM    3  C3  UNL     1      -2.067  26.182  27.597  1.00  0.00     0.341 C 
HETATM    4  O1  UNL     1      -0.968  25.914  28.223  1.00  0.00    -0.245 OA
HETATM    5  N4  UNL     1      -3.228  25.822  28.271  1.00  0.00    -0.276 N 
ATOM      6  H4  UNL     1      -3.139  25.363  29.178  1.00  0.00     0.173 HD
HETATM    7  C4  UNL     1      -4.530  26.060  27.763  1.00  0.00     0.254 C 
HETATM    8  O2  UNL     1      -4.688  26.580  26.667  1.00  0.00    -0.270 OA
ENDROOT
BRANCH   7   9
HETATM    9  C5  UNL     1      -5.749  25.687  28.554  1.00  0.00     0.113 C 
HETATM   10  C6  UNL     1      -6.755  25.045  27.564  1.00  0.00     0.049 C 
BRANCH   9  11
HETATM   11  N5  UNL     1      -5.459  24.806  29.566  1.00  0.00    -0.347 N 
HETATM   12  C7  UNL     1      -5.819  24.339  30.622  1.00  0.00     0.184 C 
HETATM   13  N6  UNL     1      -7.014  24.666  31.352  1.00  0.00    -0.064 NA
HETATM   14  N7  UNL     1      -5.022  23.333  31.323  1.00  0.00    -0.369 N 
HETATM   15  C8  UNL     1      -3.631  23.612  31.568  1.00  0.00     0.148 C 
ATOM     16  H7  UNL     1      -5.442  22.456  31.631  1.00  0.00     0.161 HD
ATOM     17  H5  UNL     1      -4.573  24.361  29.329  1.00  0.00     0.163 HD
ENDBRANCH   9  11
BRANCH   9  18
HETATM   18  C9  UNL     1      -6.491  26.925  29.038  1.00  0.00     0.015 C 
HETATM   19  C10 UNL     1      -5.543  27.831  29.748  1.00  0.00     0.012 C 
HETATM   20  C11 UNL     1      -7.270  27.639  27.998  1.00  0.00     0.012 C 
ENDBRANCH   9  18
ENDBRANCH   7   9
BRANCH   1  21
HETATM   21  N2  UNL     1      -0.597  27.066  25.911  1.00  0.00    -0.272 N 
ATOM     22  H2  UNL     1       0.185  26.744  26.482  1.00  0.00     0.189 HD
BRANCH  21  23
HETATM   23  C2  UNL     1      -0.324  27.766  24.720  1.00  0.00     0.186 C 
HETATM   24  S1  UNL     1      -1.302  27.666  23.410  1.00  0.00    -0.040 SA
BRANCH  23  25
HETATM   25  N1  UNL     1       0.825  28.577  24.637  1.00  0.00    -0.370 N 
HETATM   26  C1  UNL     1       2.031  28.167  25.324  1.00  0.00     0.148 C 
ATOM     27  H1  UNL     1       0.807  29.443  24.099  1.00  0.00     0.161 HD
ENDBRANCH  23  25
ENDBRANCH  21  23
ENDBRANCH   1  21
TORSDOF 6
ENDMDL
MODEL 3
REMARK VINA RESULT: -6.623420148      1.280      1.614
REMARK  6 active torsions:
REMARK  status: ('A' for Active; 'I' for Inactive)
REMARK    1  A    between atoms: N1_2  and  C2_4 
REMARK    2  A    between atoms: C2_4  and  N2_6 
REMARK    3  A    between atoms: N2_6  and  N3_8 
REMARK       I    between atoms: N3_8  and  C3_10 
REMARK       I    between atoms: C3_10  and  N4_12 
REMARK       I    between atoms: N4_12  and  C4_14 
REMARK    4  A    between atoms: C4_14  and  C5_16 
REMARK    5  A    between atoms: C5_16  and  N5_18 
REMARK    6  A    between atoms: C5_16  and  C9_25 
REMARK       I    between atoms: C7_20  and  N7_22 
ROOT
HETATM    1  N3  UNL     1      -1.531  26.879  26.715  1.00  0.00    -0.249 N 
ATOM      2  H3  UNL     1      -1.657  27.377  27.596  1.00  0.00     0.192 HD
HETATM    3  C3  UNL     1      -2.577  26.175  26.119  1.00  0.00     0.341 C 
HETATM    4  O1  UNL     1      -2.305  25.600  24.994  1.00  0.00    -0.245 OA
HETATM    5  N4  UNL     1      -3.882  26.001  26.565  1.00  0.00    -0.276 N 
ATOM      6  H4  UNL     1      -4.526  25.467  25.981  1.00  0.00     0.173 HD
HETATM    7  C4  UNL     1      -4.364  26.528  27.790  1.00  0.00     0.254 C 
HETATM    8  O2  UNL     1      -3.639  27.201  28.509  1.00  0.00    -0.270 OA
ENDROOT
BRANCH   7   9
HETATM    9  C5  UNL     1      -5.772  26.273  28.240  1.00  0.00     0.113 C 
HETATM   10  C6  UNL     1      -6.213  24.925  27.614  1.00  0.00     0.049 C 
BRANCH   9  11
HETATM   11  N5  UNL     1      -5.875  26.212  29.607  1.00  0.00    -0.347 N 
HETATM   12  C7  UNL     1      -6.598  25.977  30.548  1.00  0.00     0.184 C 
HETATM   13  N6  UNL     1      -7.977  25.573  30.502  1.00  0.00    -0.064 NA
HETATM   14  N7  UNL     1      -6.121  26.095  31.926  1.00  0.00    -0.369 N 
HETATM   15  C8  UNL     1      -5.484  27.323  32.325  1.00  0.00     0.148 C 
ATOM     16  H7  UNL     1      -6.236  25.327  32.586  1.00  0.00     0.161 HD
ATOM     17  H5  UNL     1      -4.965  26.472  29.987  1.00  0.00     0.163 HD
ENDBRANCH   9  11
BRANCH   9  18
HETATM   18  C9  UNL     1      -6.739  27.270  27.614  1.00  0.00     0.015 C 
HETATM   19  C10 UNL     1      -6.304  28.659  27.939  1.00  0.00     0.012 C 
HETATM   20  C11 UNL     1      -6.981  27.087  26.164  1.00  0.00     0.012 C 
ENDBRANCH   9  18
ENDBRANCH   7   9
BRANCH   1  21
HETATM   21  N2  UNL     1      -0.276  26.869  26.035  1.00  0.00    -0.272 N 
ATOM     22  H2  UNL     1       0.366  26.092  26.199  1.00  0.00     0.189 HD
BRANCH  21  23
HETATM   23  C2  UNL     1       0.110  27.890  25.146  1.00  0.00     0.186 C 
HETATM   24  S1  UNL     1       1.655  28.425  25.055  1.00  0.00    -0.040 SA
BRANCH  23  25
HETATM   25  N1  UNL     1      -0.853  28.482  24.305  1.00  0.00    -0.370 N 
HETATM   26  C1  UNL     1      -0.965  28.036  22.934  1.00  0.00     0.148 C 
ATOM     27  H1  UNL     1      -1.465  29.217  24.660  1.00  0.00     0.161 HD
ENDBRANCH  23  25
ENDBRANCH  21  23
ENDBRANCH   1  21
TORSDOF 6
ENDMDL
MODEL 4
REMARK VINA RESULT: -6.575465470      1.748      2.274
REMARK  6 active torsions:
REMARK  status: ('A' for Active; 'I' for Inactive)
REMARK    1  A    between atoms: N1_2  and  C2_4 
REMARK    2  A    between atoms: C2_4  and  N2_6 
REMARK    3  A    between atoms: N2_6  and  N3_8 
REMARK       I    between atoms: N3_8  and  C3_10 
REMARK       I    between atoms: C3_10  and  N4_12 
REMARK       I    between atoms: N4_12  and  C4_14 
REMARK    4  A    between atoms: C4_14  and  C5_16 
REMARK    5  A    between atoms: C5_16  and  N5_18 
REMARK    6  A    between atoms: C5_16  and  C9_25 
REMARK       I    between atoms: C7_20  and  N7_22 
ROOT
HETATM    1  N3  UNL     1      -2.155  26.882  26.951  1.00  0.00    -0.249 N 
ATOM      2  H3  UNL     1      -2.909  27.531  26.725  1.00  0.00     0.192 HD
HETATM    3  C3  UNL     1      -2.266  25.969  28.000  1.00  0.00     0.341 C 
HETATM    4  O1  UNL     1      -1.256  25.184  28.178  1.00  0.00    -0.245 OA
HETATM    5  N4  UNL     1      -3.318  25.782  28.890  1.00  0.00    -0.276 N 
ATOM      6  H4  UNL     1      -3.234  25.044  29.589  1.00  0.00     0.173 HD
HETATM    7  C4  UNL     1      -4.500  26.565  28.876  1.00  0.00     0.254 C 
HETATM    8  O2  UNL     1      -4.659  27.441  28.037  1.00  0.00    -0.270 OA
ENDROOT
BRANCH   7   9
HETATM    9  C5  UNL     1      -5.585  26.345  29.888  1.00  0.00     0.113 C 
HETATM   10  C6  UNL     1      -5.286  24.993  30.588  1.00  0.00     0.049 C 
BRANCH   9  11
HETATM   11  N5  UNL     1      -5.638  27.353  30.817  1.00  0.00    -0.347 N 
HETATM   12  C7  UNL     1      -5.023  27.988  31.643  1.00  0.00     0.184 C 
HETATM   13  N6  UNL     1      -3.642  27.828  32.009  1.00  0.00    -0.064 NA
HETATM   14  N7  UNL     1      -5.661  29.052  32.418  1.00  0.00    -0.369 N 
HETATM   15  C8  UNL     1      -6.887  28.751  33.110  1.00  0.00     0.148 C 
ATOM     16  H7  UNL     1      -5.247  29.983  32.467  1.00  0.00     0.161 HD
ATOM     17  H5  UNL     1      -6.589  27.719  30.807  1.00  0.00     0.163 HD
ENDBRANCH   9  11
BRANCH   9  18
HETATM   18  C9  UNL     1      -6.924  26.087  29.212  1.00  0.00     0.015 C 
HETATM   19  C10 UNL     1      -6.735  25.145  28.071  1.00  0.00     0.012 C 
HETATM   20  C11 UNL     1      -8.015  25.653  30.117  1.00  0.00     0.012 C 
ENDBRANCH   9  18
ENDBRANCH   7   9
BRANCH   1  21
HETATM   21  N2  UNL     1      -0.936  26.864  26.207  1.00  0.00    -0.272 N 
ATOM     22  H2  UNL     1      -0.156  26.307  26.556  1.00  0.00     0.189 HD
BRANCH  21  23
HETATM   23  C2  UNL     1      -0.770  27.588  25.011  1.00  0.00     0.186 C 
HETATM   24  S1  UNL     1      -1.641  27.252  23.665  1.00  0.00    -0.040 SA
BRANCH  23  25
HETATM   25  N1  UNL     1       0.173  28.633  24.954  1.00  0.00    -0.370 N 
HETATM   26  C1  UNL     1       1.584  28.312  24.944  1.00  0.00     0.148 C 
ATOM     27  H1  UNL     1      -0.134  29.604  24.920  1.00  0.00     0.161 HD
ENDBRANCH  23  25
ENDBRANCH  21  23
ENDBRANCH   1  21
TORSDOF 6
ENDMDL
MODEL 5
REMARK VINA RESULT: -6.567996972      3.931      5.434
REMARK  6 active torsions:
REMARK  status: ('A' for Active; 'I' for Inactive)
REMARK    1  A    between atoms: N1_2  and  C2_4 
REMARK    2  A    between atoms: C2_4  and  N2_6 
REMARK    3  A    between atoms: N2_6  and  N3_8 
REMARK       I    between atoms: N3_8  and  C3_10 
REMARK       I    between atoms: C3_10  and  N4_12 
REMARK       I    between atoms: N4_12  and  C4_14 
REMARK    4  A    between atoms: C4_14  and  C5_16 
REMARK    5  A    between atoms: C5_16  and  N5_18 
REMARK    6  A    between atoms: C5_16  and  C9_25 
REMARK       I    between atoms: C7_20  and  N7_22 
ROOT
HETATM    1  N3  UNL     1      -1.830  26.401  27.571  1.00  0.00    -0.249 N 
ATOM      2  H3  UNL     1      -0.968  25.859  27.629  1.00  0.00     0.192 HD
HETATM    3  C3  UNL     1      -2.658  26.578  28.680  1.00  0.00     0.341 C 
HETATM    4  O1  UNL     1      -3.712  27.302  28.491  1.00  0.00    -0.245 OA
HETATM    5  N4  UNL     1      -2.511  26.082  29.970  1.00  0.00    -0.276 N 
ATOM      6  H4  UNL     1      -3.211  26.333  30.668  1.00  0.00     0.173 HD
HETATM    7  C4  UNL     1      -1.437  25.244  30.366  1.00  0.00     0.254 C 
HETATM    8  O2  UNL     1      -0.557  24.940  29.573  1.00  0.00    -0.270 OA
ENDROOT
BRANCH   7   9
HETATM    9  C5  UNL     1      -1.353  24.705  31.763  1.00  0.00     0.113 C 
HETATM   10  C6  UNL     1      -2.497  25.364  32.576  1.00  0.00     0.049 C 
BRANCH   9  11
HETATM   11  N5  UNL     1      -1.478  23.339  31.799  1.00  0.00    -0.347 N 
HETATM   12  C7  UNL     1      -0.950  22.277  31.560  1.00  0.00     0.184 C 
HETATM   13  N6  UNL     1       0.357  22.066  30.999  1.00  0.00    -0.064 NA
HETATM   14  N7  UNL     1      -1.630  21.009  31.824  1.00  0.00    -0.369 N 
HETATM   15  C8  UNL     1      -2.954  20.821  31.292  1.00  0.00     0.148 C 
ATOM     16  H7  UNL     1      -1.177  20.278  32.372  1.00  0.00     0.161 HD
ATOM     17  H5  UNL     1      -2.398  23.134  32.188  1.00  0.00     0.163 HD
ENDBRANCH   9  11
BRANCH   9  18
HETATM   18  C9  UNL     1      -0.102  25.206  32.471  1.00  0.00     0.015 C 
HETATM   19  C10 UNL     1      -0.173  26.688  32.623  1.00  0.00     0.012 C 
HETATM   20  C11 UNL     1       0.211  24.530  33.753  1.00  0.00     0.012 C 
ENDBRANCH   9  18
ENDBRANCH   7   9
BRANCH   1  21
HETATM   21  N2  UNL     1      -2.246  27.016  26.351  1.00  0.00    -0.272 N 
ATOM     22  H2  UNL     1      -3.218  27.312  26.257  1.00  0.00     0.189 HD
BRANCH  21  23
HETATM   23  C2  UNL     1      -1.365  27.228  25.274  1.00  0.00     0.186 C 
HETATM   24  S1  UNL     1      -1.856  27.114  23.715  1.00  0.00    -0.040 SA
BRANCH  23  25
HETATM   25  N1  UNL     1      -0.016  27.545  25.529  1.00  0.00    -0.370 N 
HETATM   26  C1  UNL     1       0.721  28.330  24.563  1.00  0.00     0.148 C 
ATOM     27  H1  UNL     1       0.436  27.224  26.385  1.00  0.00     0.161 HD
ENDBRANCH  23  25
ENDBRANCH  21  23
ENDBRANCH   1  21
TORSDOF 6
ENDMDL
