MODEL 1
REMARK VINA RESULT: -7.929321145      0.000      0.000
REMARK  3 active torsions:
REMARK  status: ('A' for Active; 'I' for Inactive)
REMARK    1  A    between atoms: C8_8  and  N1_9 
REMARK    2  A    between atoms: C8_8  and  C13_26 
REMARK       I    between atoms: N1_9  and  C9_11 
REMARK    3  A    between atoms: C9_11  and  C10_13 
REMARK       I    between atoms: C10_13  and  N2_15 
REMARK       I    between atoms: N2_15  and  C11_17 
REMARK       I    between atoms: N4_19  and  C12_21 
ROOT
HETATM    1  N1  UNL     1      -4.559  26.258  29.661  1.00  0.00    -0.333 N 
ATOM      2  H1  UNL     1      -5.393  26.415  29.096  1.00  0.00     0.164 HD
HETATM    3  C9  UNL     1      -3.298  26.095  29.045  1.00  0.00     0.310 C 
HETATM    4  O1  UNL     1      -2.284  25.905  29.752  1.00  0.00    -0.262 OA
ENDROOT
BRANCH   3   5
HETATM    5  C10 UNL     1      -3.147  26.143  27.600  1.00  0.00     0.315 C 
HETATM    6  O2  UNL     1      -4.035  25.652  26.862  1.00  0.00    -0.262 OA
HETATM    7  N2  UNL     1      -2.003  26.740  27.012  1.00  0.00    -0.293 N 
HETATM    8  C11 UNL     1      -1.812  26.811  25.601  1.00  0.00     0.197 C 
ATOM      9  H2  UNL     1      -1.288  27.135  27.623  1.00  0.00     0.172 HD
HETATM   10  N3  UNL     1      -2.834  26.246  24.779  1.00  0.00    -0.063 NA
HETATM   11  N4  UNL     1      -0.774  27.353  25.075  1.00  0.00    -0.305 N 
HETATM   12  C12 UNL     1      -0.658  27.383  23.660  1.00  0.00     0.188 C 
ATOM     13  H4  UNL     1      -0.044  27.755  25.664  1.00  0.00     0.171 HD
HETATM   14  N5  UNL     1      -1.549  27.948  22.909  1.00  0.00    -0.373 N 
HETATM   15  N6  UNL     1       0.475  26.772  23.057  1.00  0.00    -0.064 NA
ATOM     16  H52 UNL     1      -2.362  28.387  23.341  1.00  0.00     0.158 HD
ATOM     17  H51 UNL     1      -1.465  27.969  21.892  1.00  0.00     0.158 HD
ENDBRANCH   3   5
BRANCH   1  18
HETATM   18  C8  UNL     1      -4.650  26.197  31.128  1.00  0.00     0.128 C 
HETATM   19  C2  UNL     1      -6.070  26.564  31.467  1.00  0.00    -0.012 C 
HETATM   20  C1  UNL     1      -6.547  26.027  32.788  1.00  0.00     0.018 C 
HETATM   21  C3  UNL     1      -7.057  26.120  30.408  1.00  0.00     0.018 C 
HETATM   22  C4  UNL     1      -6.207  28.090  31.552  1.00  0.00     0.012 C 
HETATM   23  C5  UNL     1      -5.380  28.563  32.715  1.00  0.00     0.001 C 
HETATM   24  C6  UNL     1      -4.026  27.970  32.810  1.00  0.00     0.003 C 
HETATM   25  C7  UNL     1      -3.617  27.078  31.693  1.00  0.00     0.043 C 
BRANCH  18  26
HETATM   26  C13 UNL     1      -4.459  24.769  31.473  1.00  0.00     0.203 C 
HETATM   27  O3  UNL     1      -5.000  23.806  30.875  1.00  0.00    -0.646 OA
HETATM   28  O4  UNL     1      -3.628  24.432  32.531  1.00  0.00    -0.646 OA
ENDBRANCH  18  26
ENDBRANCH   1  18
TORSDOF 3
ENDMDL
MODEL 2
REMARK VINA RESULT: -7.752623760      1.823      3.090
REMARK  3 active torsions:
REMARK  status: ('A' for Active; 'I' for Inactive)
REMARK    1  A    between atoms: C8_8  and  N1_9 
REMARK    2  A    between atoms: C8_8  and  C13_26 
REMARK       I    between atoms: N1_9  and  C9_11 
REMARK    3  A    between atoms: C9_11  and  C10_13 
REMARK       I    between atoms: C10_13  and  N2_15 
REMARK       I    between atoms: N2_15  and  C11_17 
REMARK       I    between atoms: N4_19  and  C12_21 
ROOT
HETATM    1  N1  UNL     1      -2.658  26.263  29.800  1.00  0.00    -0.333 N 
ATOM      2  H1  UNL     1      -1.818  26.770  29.523  1.00  0.00     0.164 HD
HETATM    3  C9  UNL     1      -3.586  25.830  28.827  1.00  0.00     0.310 C 
HETATM    4  O1  UNL     1      -4.610  25.207  29.184  1.00  0.00    -0.262 OA
ENDROOT
BRANCH   3   5
HETATM    5  C10 UNL     1      -3.380  26.091  27.412  1.00  0.00     0.315 C 
HETATM    6  O2  UNL     1      -4.315  25.898  26.599  1.00  0.00    -0.262 OA
HETATM    7  N2  UNL     1      -2.129  26.562  26.938  1.00  0.00    -0.293 N 
HETATM    8  C11 UNL     1      -1.881  26.832  25.561  1.00  0.00     0.197 C 
ATOM      9  H2  UNL     1      -1.377  26.714  27.610  1.00  0.00     0.172 HD
HETATM   10  N3  UNL     1      -2.958  26.606  24.651  1.00  0.00    -0.063 NA
HETATM   11  N4  UNL     1      -0.746  27.259  25.138  1.00  0.00    -0.305 N 
HETATM   12  C12 UNL     1      -0.579  27.503  23.749  1.00  0.00     0.188 C 
ATOM     13  H4  UNL     1       0.022  27.419  25.789  1.00  0.00     0.171 HD
HETATM   14  N5  UNL     1      -1.330  28.336  23.102  1.00  0.00    -0.373 N 
HETATM   15  N6  UNL     1       0.448  26.808  23.055  1.00  0.00    -0.064 NA
ATOM     16  H52 UNL     1      -2.067  28.835  23.600  1.00  0.00     0.158 HD
ATOM     17  H51 UNL     1      -1.210  28.511  22.104  1.00  0.00     0.158 HD
ENDBRANCH   3   5
BRANCH   1  18
HETATM   18  C8  UNL     1      -2.921  25.972  31.218  1.00  0.00     0.128 C 
HETATM   19  C2  UNL     1      -1.765  26.563  31.980  1.00  0.00    -0.012 C 
HETATM   20  C1  UNL     1      -2.078  26.900  33.412  1.00  0.00     0.018 C 
HETATM   21  C3  UNL     1      -1.211  27.811  31.326  1.00  0.00     0.018 C 
HETATM   22  C4  UNL     1      -0.602  25.562  32.022  1.00  0.00     0.012 C 
HETATM   23  C5  UNL     1      -1.048  24.372  32.824  1.00  0.00     0.001 C 
HETATM   24  C6  UNL     1      -2.403  23.866  32.506  1.00  0.00     0.003 C 
HETATM   25  C7  UNL     1      -3.100  24.520  31.367  1.00  0.00     0.043 C 
BRANCH  18  26
HETATM   26  C13 UNL     1      -4.133  26.753  31.559  1.00  0.00     0.203 C 
HETATM   27  O3  UNL     1      -4.346  27.940  31.207  1.00  0.00    -0.646 OA
HETATM   28  O4  UNL     1      -5.127  26.163  32.326  1.00  0.00    -0.646 OA
ENDBRANCH  18  26
ENDBRANCH   1  18
TORSDOF 3
ENDMDL
MODEL 3
REMARK VINA RESULT: -7.712219232      1.996      2.835
REMARK  3 active torsions:
REMARK  status: ('A' for Active; 'I' for Inactive)
REMARK    1  A    between atoms: C8_8  and  N1_9 
REMARK    2  A    between atoms: C8_8  and  C13_26 
REMARK       I    between atoms: N1_9  and  C9_11 
REMARK    3  A    between atoms: C9_11  and  C10_13 
REMARK       I    between atoms: C10_13  and  N2_15 
REMARK       I    between atoms: N2_15  and  C11_17 
REMARK       I    between atoms: N4_19  and  C12_21 
ROOT
HETATM    1  N1  UNL     1      -4.047  26.080  28.822  1.00  0.00    -0.333 N 
ATOM      2  H1  UNL     1      -3.119  26.474  28.974  1.00  0.00     0.164 HD
HETATM    3  C9  UNL     1      -4.453  25.685  27.528  1.00  0.00     0.310 C 
HETATM    4  O1  UNL     1      -5.594  25.201  27.358  1.00  0.00    -0.262 OA
ENDROOT
BRANCH   3   5
HETATM    5  C10 UNL     1      -3.572  25.827  26.380  1.00  0.00     0.315 C 
HETATM    6  O2  UNL     1      -3.547  24.935  25.498  1.00  0.00    -0.262 OA
HETATM    7  N2  UNL     1      -2.737  26.965  26.244  1.00  0.00    -0.293 N 
HETATM    8  C11 UNL     1      -1.859  27.147  25.137  1.00  0.00     0.197 C 
ATOM      9  H2  UNL     1      -2.767  27.683  26.969  1.00  0.00     0.172 HD
HETATM   10  N3  UNL     1      -1.845  26.121  24.144  1.00  0.00    -0.063 NA
HETATM   11  N4  UNL     1      -1.106  28.180  25.020  1.00  0.00    -0.305 N 
HETATM   12  C12 UNL     1      -0.258  28.287  23.886  1.00  0.00     0.188 C 
ATOM     13  H4  UNL     1      -1.117  28.912  25.730  1.00  0.00     0.171 HD
HETATM   14  N5  UNL     1      -0.721  28.272  22.677  1.00  0.00    -0.373 N 
HETATM   15  N6  UNL     1       1.143  28.414  24.093  1.00  0.00    -0.064 NA
ATOM     16  H52 UNL     1      -1.726  28.181  22.528  1.00  0.00     0.158 HD
ATOM     17  H51 UNL     1      -0.112  28.349  21.862  1.00  0.00     0.158 HD
ENDBRANCH   3   5
BRANCH   1  18
HETATM   18  C8  UNL     1      -4.982  25.915  29.945  1.00  0.00     0.128 C 
HETATM   19  C2  UNL     1      -4.278  26.477  31.152  1.00  0.00    -0.012 C 
HETATM   20  C1  UNL     1      -5.202  26.941  32.244  1.00  0.00     0.018 C 
HETATM   21  C3  UNL     1      -3.359  27.630  30.808  1.00  0.00     0.018 C 
HETATM   22  C4  UNL     1      -3.382  25.401  31.780  1.00  0.00     0.012 C 
HETATM   23  C5  UNL     1      -4.271  24.309  32.304  1.00  0.00     0.001 C 
HETATM   24  C6  UNL     1      -5.352  23.879  31.388  1.00  0.00     0.003 C 
HETATM   25  C7  UNL     1      -5.353  24.495  30.034  1.00  0.00     0.043 C 
BRANCH  18  26
HETATM   26  C13 UNL     1      -6.126  26.804  29.636  1.00  0.00     0.203 C 
HETATM   27  O3  UNL     1      -6.027  27.994  29.243  1.00  0.00    -0.646 OA
HETATM   28  O4  UNL     1      -7.418  26.323  29.781  1.00  0.00    -0.646 OA
ENDBRANCH  18  26
ENDBRANCH   1  18
TORSDOF 3
ENDMDL
MODEL 4
REMARK VINA RESULT: -7.707929527      2.281      3.645
REMARK  3 active torsions:
REMARK  status: ('A' for Active; 'I' for Inactive)
REMARK    1  A    between atoms: C8_8  and  N1_9 
REMARK    2  A    between atoms: C8_8  and  C13_26 
REMARK       I    between atoms: N1_9  and  C9_11 
REMARK    3  A    between atoms: C9_11  and  C10_13 
REMARK       I    between atoms: C10_13  and  N2_15 
REMARK       I    between atoms: N2_15  and  C11_17 
REMARK       I    between atoms: N4_19  and  C12_21 
ROOT
HETATM    1  N1  UNL     1      -2.129  24.986  29.765  1.00  0.00    -0.333 N 
ATOM      2  H1  UNL     1      -1.351  24.562  29.260  1.00  0.00     0.164 HD
HETATM    3  C9  UNL     1      -3.100  25.746  29.076  1.00  0.00     0.310 C 
HETATM    4  O1  UNL     1      -4.050  26.257  29.710  1.00  0.00    -0.262 OA
ENDROOT
BRANCH   3   5
HETATM    5  C10 UNL     1      -3.024  25.952  27.639  1.00  0.00     0.315 C 
HETATM    6  O2  UNL     1      -3.992  25.628  26.910  1.00  0.00    -0.262 OA
HETATM    7  N2  UNL     1      -1.864  26.515  27.049  1.00  0.00    -0.293 N 
HETATM    8  C11 UNL     1      -1.744  26.736  25.646  1.00  0.00     0.197 C 
ATOM      9  H2  UNL     1      -1.084  26.773  27.653  1.00  0.00     0.172 HD
HETATM   10  N3  UNL     1      -2.857  26.361  24.833  1.00  0.00    -0.063 NA
HETATM   11  N4  UNL     1      -0.691  27.247  25.118  1.00  0.00    -0.305 N 
HETATM   12  C12 UNL     1      -0.650  27.434  23.711  1.00  0.00     0.188 C 
ATOM     13  H4  UNL     1       0.103  27.513  25.701  1.00  0.00     0.171 HD
HETATM   14  N5  UNL     1      -1.525  28.156  23.088  1.00  0.00    -0.373 N 
HETATM   15  N6  UNL     1       0.387  26.805  22.971  1.00  0.00    -0.064 NA
ATOM     16  H52 UNL     1      -2.270  28.608  23.619  1.00  0.00     0.158 HD
ATOM     17  H51 UNL     1      -1.495  28.290  22.077  1.00  0.00     0.158 HD
ENDBRANCH   3   5
BRANCH   1  18
HETATM   18  C8  UNL     1      -2.257  24.814  31.220  1.00  0.00     0.128 C 
HETATM   19  C2  UNL     1      -1.383  23.640  31.574  1.00  0.00    -0.012 C 
HETATM   20  C1  UNL     1      -0.904  23.636  33.000  1.00  0.00     0.018 C 
HETATM   21  C3  UNL     1      -0.165  23.528  30.681  1.00  0.00     0.018 C 
HETATM   22  C4  UNL     1      -2.163  22.333  31.382  1.00  0.00     0.012 C 
HETATM   23  C5  UNL     1      -3.286  22.315  32.381  1.00  0.00     0.001 C 
HETATM   24  C6  UNL     1      -4.047  23.580  32.499  1.00  0.00     0.003 C 
HETATM   25  C7  UNL     1      -3.683  24.660  31.545  1.00  0.00     0.043 C 
BRANCH  18  26
HETATM   26  C13 UNL     1      -1.645  26.027  31.813  1.00  0.00     0.203 C 
HETATM   27  O3  UNL     1      -2.063  26.612  32.843  1.00  0.00    -0.646 OA
HETATM   28  O4  UNL     1      -0.529  26.586  31.211  1.00  0.00    -0.646 OA
ENDBRANCH  18  26
ENDBRANCH   1  18
TORSDOF 3
ENDMDL
MODEL 5
REMARK VINA RESULT: -7.508632344      1.810      3.078
REMARK  3 active torsions:
REMARK  status: ('A' for Active; 'I' for Inactive)
REMARK    1  A    between atoms: C8_8  and  N1_9 
REMARK    2  A    between atoms: C8_8  and  C13_26 
REMARK       I    between atoms: N1_9  and  C9_11 
REMARK    3  A    between atoms: C9_11  and  C10_13 
REMARK       I    between atoms: C10_13  and  N2_15 
REMARK       I    between atoms: N2_15  and  C11_17 
REMARK       I    between atoms: N4_19  and  C12_21 
ROOT
HETATM    1  N1  UNL     1      -2.860  26.056  29.783  1.00  0.00    -0.333 N 
ATOM      2  H1  UNL     1      -1.976  25.643  29.487  1.00  0.00     0.164 HD
HETATM    3  C9  UNL     1      -3.773  26.557  28.829  1.00  0.00     0.310 C 
HETATM    4  O1  UNL     1      -4.854  27.058  29.209  1.00  0.00    -0.262 OA
ENDROOT
BRANCH   3   5
HETATM    5  C10 UNL     1      -3.486  26.504  27.404  1.00  0.00     0.315 C 
HETATM    6  O2  UNL     1      -4.316  25.987  26.619  1.00  0.00    -0.262 OA
HETATM    7  N2  UNL     1      -2.274  27.032  26.890  1.00  0.00    -0.293 N 
HETATM    8  C11 UNL     1      -1.951  27.003  25.502  1.00  0.00     0.197 C 
ATOM      9  H2  UNL     1      -1.607  27.449  27.540  1.00  0.00     0.172 HD
HETATM   10  N3  UNL     1      -2.909  26.410  24.625  1.00  0.00    -0.063 NA
HETATM   11  N4  UNL     1      -0.852  27.482  25.043  1.00  0.00    -0.305 N 
HETATM   12  C12 UNL     1      -0.603  27.414  23.646  1.00  0.00     0.188 C 
ATOM     13  H4  UNL     1      -0.168  27.905  25.671  1.00  0.00     0.171 HD
HETATM   14  N5  UNL     1      -1.403  27.949  22.779  1.00  0.00    -0.373 N 
HETATM   15  N6  UNL     1       0.561  26.736  23.195  1.00  0.00    -0.064 NA
ATOM     16  H52 UNL     1      -2.238  28.436  23.103  1.00  0.00     0.158 HD
ATOM     17  H51 UNL     1      -1.224  27.900  21.776  1.00  0.00     0.158 HD
ENDBRANCH   3   5
BRANCH   1  18
HETATM   18  C8  UNL     1      -3.204  26.140  31.211  1.00  0.00     0.128 C 
HETATM   19  C2  UNL     1      -2.154  25.338  31.934  1.00  0.00    -0.012 C 
HETATM   20  C1  UNL     1      -1.953  25.738  33.370  1.00  0.00     0.018 C 
HETATM   21  C3  UNL     1      -0.804  25.392  31.250  1.00  0.00     0.018 C 
HETATM   22  C4  UNL     1      -2.552  23.856  31.956  1.00  0.00     0.012 C 
HETATM   23  C5  UNL     1      -3.799  23.727  32.785  1.00  0.00     0.001 C 
HETATM   24  C6  UNL     1      -4.848  24.735  32.510  1.00  0.00     0.003 C 
HETATM   25  C7  UNL     1      -4.586  25.669  31.383  1.00  0.00     0.043 C 
BRANCH  18  26
HETATM   26  C13 UNL     1      -3.016  27.563  31.577  1.00  0.00     0.203 C 
HETATM   27  O3  UNL     1      -2.077  28.292  31.170  1.00  0.00    -0.646 OA
HETATM   28  O4  UNL     1      -3.925  28.169  32.432  1.00  0.00    -0.646 OA
ENDBRANCH  18  26
ENDBRANCH   1  18
TORSDOF 3
ENDMDL
