MODEL 1
REMARK VINA RESULT: -7.430610166      0.000      0.000
REMARK  4 active torsions:
REMARK  status: ('A' for Active; 'I' for Inactive)
REMARK    1  A    between atoms: N1_2  and  S1_4 
REMARK    2  A    between atoms: S1_4  and  N2_7 
REMARK    3  A    between atoms: C6_12  and  C7_13 
REMARK       I    between atoms: C7_13  and  N3_15 
REMARK    4  A    between atoms: N3_15  and  N4_17 
REMARK       I    between atoms: N4_17  and  C8_19 
REMARK       I    between atoms: C8_19  and  N6_23 
REMARK       I    between atoms: N6_23  and  C9_25 
ROOT
HETATM    1  C7  UNL     1      -1.345  24.645  30.811  1.00  0.00     0.255 C 
HETATM    2  O3  UNL     1      -2.410  24.898  31.406  1.00  0.00    -0.270 OA
HETATM    3  N3  UNL     1      -1.220  24.836  29.410  1.00  0.00    -0.254 N 
ATOM      4  H3  UNL     1      -0.326  24.611  28.976  1.00  0.00     0.190 HD
ENDROOT
BRANCH   3   5
HETATM    5  N4  UNL     1      -2.236  25.310  28.594  1.00  0.00    -0.130 N 
HETATM    6  C8  UNL     1      -2.058  26.274  27.569  1.00  0.00     0.693 C 
HETATM    7  N5  UNL     1      -0.945  26.377  26.974  1.00  0.00    -0.233 N 
HETATM    8  N6  UNL     1      -3.119  27.149  27.176  1.00  0.00    -0.163 N 
ATOM      9  H52 UNL     1      -0.187  25.753  27.254  1.00  0.00     0.174 HD
ATOM     10  H51 UNL     1      -0.817  27.071  26.237  1.00  0.00     0.174 HD
HETATM   11  C9  UNL     1      -3.890  26.836  26.032  1.00  0.00     0.200 C 
ATOM     12  H6  UNL     1      -3.317  27.992  27.716  1.00  0.00     0.187 HD
HETATM   13  N7  UNL     1      -5.139  27.191  25.924  1.00  0.00    -0.373 N 
HETATM   14  N8  UNL     1      -3.276  26.115  24.976  1.00  0.00    -0.063 NA
ATOM     15  H72 UNL     1      -5.580  27.710  26.683  1.00  0.00     0.158 HD
ATOM     16  H71 UNL     1      -5.694  26.965  25.099  1.00  0.00     0.158 HD
ATOM     17  H4  UNL     1      -3.174  24.939  28.741  1.00  0.00     0.205 HD
ENDBRANCH   3   5
BRANCH   1  18
HETATM   18  C6  UNL     1      -0.160  24.122  31.601  1.00  0.00     0.169 C 
HETATM   19  N2  UNL     1      -0.456  24.230  32.979  1.00  0.00    -0.180 NA
HETATM   20  C2  UNL     1       0.029  23.195  33.842  1.00  0.00     0.110 C 
HETATM   21  C3  UNL     1       1.139  22.352  33.218  1.00  0.00     0.016 C 
HETATM   22  C4  UNL     1       0.631  21.732  31.947  1.00  0.00     0.003 C 
HETATM   23  C5  UNL     1       0.122  22.780  31.032  1.00  0.00     0.030 C 
BRANCH  19  24
HETATM   24  S1  UNL     1      -0.019  25.805  33.505  1.00  0.00     0.299 S 
HETATM   25  O1  UNL     1       0.375  25.769  34.979  1.00  0.00    -0.188 OA
HETATM   26  O2  UNL     1       1.229  26.221  32.780  1.00  0.00    -0.188 OA
BRANCH  24  27
HETATM   27  N1  UNL     1      -1.195  27.001  33.302  1.00  0.00    -0.311 N 
HETATM   28  C1  UNL     1      -0.714  28.013  32.385  1.00  0.00     0.160 C 
ATOM     29  H1  UNL     1      -2.108  27.009  33.757  1.00  0.00     0.172 HD
ENDBRANCH  24  27
ENDBRANCH  19  24
ENDBRANCH   1  18
TORSDOF 4
ENDMDL
MODEL 2
REMARK VINA RESULT: -7.429680355      3.522      7.473
REMARK  4 active torsions:
REMARK  status: ('A' for Active; 'I' for Inactive)
REMARK    1  A    between atoms: N1_2  and  S1_4 
REMARK    2  A    between atoms: S1_4  and  N2_7 
REMARK    3  A    between atoms: C6_12  and  C7_13 
REMARK       I    between atoms: C7_13  and  N3_15 
REMARK    4  A    between atoms: N3_15  and  N4_17 
REMARK       I    between atoms: N4_17  and  C8_19 
REMARK       I    between atoms: C8_19  and  N6_23 
REMARK       I    between atoms: N6_23  and  C9_25 
ROOT
HETATM    1  C7  UNL     1      -2.474  26.817  29.225  1.00  0.00     0.255 C 
HETATM    2  O3  UNL     1      -1.904  25.726  29.033  1.00  0.00    -0.270 OA
HETATM    3  N3  UNL     1      -1.992  27.741  30.187  1.00  0.00    -0.254 N 
ATOM      4  H3  UNL     1      -2.501  28.618  30.302  1.00  0.00     0.190 HD
ENDROOT
BRANCH   3   5
HETATM    5  N4  UNL     1      -0.876  27.530  30.981  1.00  0.00    -0.130 N 
HETATM    6  C8  UNL     1      -0.874  26.767  32.177  1.00  0.00     0.693 C 
HETATM    7  N5  UNL     1      -1.696  25.815  32.330  1.00  0.00    -0.233 N 
HETATM    8  N6  UNL     1       0.048  27.041  33.235  1.00  0.00    -0.163 N 
ATOM      9  H52 UNL     1      -2.354  25.619  31.575  1.00  0.00     0.174 HD
ATOM     10  H51 UNL     1      -1.694  25.267  33.190  1.00  0.00     0.174 HD
HETATM   11  C9  UNL     1       1.225  26.264  33.350  1.00  0.00     0.200 C 
ATOM     12  H6  UNL     1      -0.141  27.790  33.901  1.00  0.00     0.187 HD
HETATM   13  N7  UNL     1       2.325  26.749  33.851  1.00  0.00    -0.373 N 
HETATM   14  N8  UNL     1       1.196  24.917  32.906  1.00  0.00    -0.063 NA
ATOM     15  H72 UNL     1       2.347  27.717  34.171  1.00  0.00     0.158 HD
ATOM     16  H71 UNL     1       3.174  26.188  33.933  1.00  0.00     0.158 HD
ATOM     17  H4  UNL     1       0.003  27.953  30.685  1.00  0.00     0.205 HD
ENDBRANCH   3   5
BRANCH   1  18
HETATM   18  C6  UNL     1      -3.708  27.161  28.411  1.00  0.00     0.169 C 
HETATM   19  N2  UNL     1      -4.007  26.070  27.564  1.00  0.00    -0.180 NA
HETATM   20  C2  UNL     1      -5.389  25.778  27.326  1.00  0.00     0.110 C 
HETATM   21  C3  UNL     1      -6.326  26.931  27.681  1.00  0.00     0.016 C 
HETATM   22  C4  UNL     1      -6.142  27.285  29.131  1.00  0.00     0.003 C 
HETATM   23  C5  UNL     1      -4.719  27.593  29.408  1.00  0.00     0.030 C 
BRANCH  19  24
HETATM   24  S1  UNL     1      -3.096  26.240  26.119  1.00  0.00     0.299 S 
HETATM   25  O1  UNL     1      -2.791  24.864  25.534  1.00  0.00    -0.188 OA
HETATM   26  O2  UNL     1      -3.956  26.916  25.090  1.00  0.00    -0.188 OA
BRANCH  24  27
HETATM   27  N1  UNL     1      -1.642  27.089  26.262  1.00  0.00    -0.311 N 
HETATM   28  C1  UNL     1      -1.176  27.490  24.951  1.00  0.00     0.160 C 
ATOM     29  H1  UNL     1      -1.164  27.288  27.140  1.00  0.00     0.172 HD
ENDBRANCH  24  27
ENDBRANCH  19  24
ENDBRANCH   1  18
TORSDOF 4
ENDMDL
MODEL 3
REMARK VINA RESULT: -7.354036363      3.159      4.855
REMARK  4 active torsions:
REMARK  status: ('A' for Active; 'I' for Inactive)
REMARK    1  A    between atoms: N1_2  and  S1_4 
REMARK    2  A    between atoms: S1_4  and  N2_7 
REMARK    3  A    between atoms: C6_12  and  C7_13 
REMARK       I    between atoms: C7_13  and  N3_15 
REMARK    4  A    between atoms: N3_15  and  N4_17 
REMARK       I    between atoms: N4_17  and  C8_19 
REMARK       I    between atoms: C8_19  and  N6_23 
REMARK       I    between atoms: N6_23  and  C9_25 
ROOT
HETATM    1  C7  UNL     1      -4.077  27.618  28.755  1.00  0.00     0.255 C 
HETATM    2  O3  UNL     1      -4.707  28.578  28.273  1.00  0.00    -0.270 OA
HETATM    3  N3  UNL     1      -3.016  27.001  28.043  1.00  0.00    -0.254 N 
ATOM      4  H3  UNL     1      -2.536  26.218  28.487  1.00  0.00     0.190 HD
ENDROOT
BRANCH   3   5
HETATM    5  N4  UNL     1      -2.589  27.393  26.784  1.00  0.00    -0.130 N 
HETATM    6  C8  UNL     1      -1.873  26.562  25.884  1.00  0.00     0.693 C 
HETATM    7  N5  UNL     1      -2.027  25.305  25.914  1.00  0.00    -0.233 N 
HETATM    8  N6  UNL     1      -0.966  27.110  24.923  1.00  0.00    -0.163 N 
ATOM      9  H52 UNL     1      -2.674  24.913  26.599  1.00  0.00     0.174 HD
ATOM     10  H51 UNL     1      -1.512  24.708  25.267  1.00  0.00     0.174 HD
HETATM   11  C9  UNL     1      -1.400  27.299  23.589  1.00  0.00     0.200 C 
ATOM     12  H6  UNL     1      -0.017  27.362  25.197  1.00  0.00     0.187 HD
HETATM   13  N7  UNL     1      -0.920  28.248  22.837  1.00  0.00    -0.373 N 
HETATM   14  N8  UNL     1      -2.383  26.423  23.064  1.00  0.00    -0.063 NA
ATOM     15  H72 UNL     1      -0.212  28.879  23.215  1.00  0.00     0.158 HD
ATOM     16  H71 UNL     1      -1.233  28.385  21.876  1.00  0.00     0.158 HD
ATOM     17  H4  UNL     1      -2.804  28.343  26.485  1.00  0.00     0.205 HD
ENDBRANCH   3   5
BRANCH   1  18
HETATM   18  C6  UNL     1      -4.452  27.101  30.131  1.00  0.00     0.169 C 
HETATM   19  N2  UNL     1      -3.364  27.322  31.007  1.00  0.00    -0.180 NA
HETATM   20  C2  UNL     1      -3.667  27.672  32.362  1.00  0.00     0.110 C 
HETATM   21  C3  UNL     1      -5.104  27.352  32.768  1.00  0.00     0.016 C 
HETATM   22  C4  UNL     1      -6.048  28.078  31.851  1.00  0.00     0.003 C 
HETATM   23  C5  UNL     1      -5.759  27.735  30.439  1.00  0.00     0.030 C 
BRANCH  19  24
HETATM   24  S1  UNL     1      -2.288  25.989  30.880  1.00  0.00     0.299 S 
HETATM   25  O1  UNL     1      -2.953  24.858  30.102  1.00  0.00    -0.188 OA
HETATM   26  O2  UNL     1      -1.116  26.402  30.036  1.00  0.00    -0.188 OA
BRANCH  24  27
HETATM   27  N1  UNL     1      -1.718  25.363  32.342  1.00  0.00    -0.311 N 
HETATM   28  C1  UNL     1      -0.280  25.519  32.416  1.00  0.00     0.160 C 
ATOM     29  H1  UNL     1      -2.300  24.939  33.064  1.00  0.00     0.172 HD
ENDBRANCH  24  27
ENDBRANCH  19  24
ENDBRANCH   1  18
TORSDOF 4
ENDMDL
MODEL 4
REMARK VINA RESULT: -7.244510462      2.579      3.876
REMARK  4 active torsions:
REMARK  status: ('A' for Active; 'I' for Inactive)
REMARK    1  A    between atoms: N1_2  and  S1_4 
REMARK    2  A    between atoms: S1_4  and  N2_7 
REMARK    3  A    between atoms: C6_12  and  C7_13 
REMARK       I    between atoms: C7_13  and  N3_15 
REMARK    4  A    between atoms: N3_15  and  N4_17 
REMARK       I    between atoms: N4_17  and  C8_19 
REMARK       I    between atoms: C8_19  and  N6_23 
REMARK       I    between atoms: N6_23  and  C9_25 
ROOT
HETATM    1  C7  UNL     1      -2.374  26.151  29.108  1.00  0.00     0.255 C 
HETATM    2  O3  UNL     1      -1.160  25.968  28.897  1.00  0.00    -0.270 OA
HETATM    3  N3  UNL     1      -3.199  26.794  28.149  1.00  0.00    -0.254 N 
ATOM      4  H3  UNL     1      -4.185  26.918  28.376  1.00  0.00     0.190 HD
ENDROOT
BRANCH   3   5
HETATM    5  N4  UNL     1      -2.751  27.265  26.925  1.00  0.00    -0.130 N 
HETATM    6  C8  UNL     1      -1.945  26.521  26.024  1.00  0.00     0.693 C 
HETATM    7  N5  UNL     1      -2.014  25.257  25.999  1.00  0.00    -0.233 N 
HETATM    8  N6  UNL     1      -1.043  27.168  25.123  1.00  0.00    -0.163 N 
ATOM      9  H52 UNL     1      -2.658  24.795  26.642  1.00  0.00     0.174 HD
ATOM     10  H51 UNL     1      -1.434  24.723  25.352  1.00  0.00     0.174 HD
HETATM   11  C9  UNL     1      -1.436  27.382  23.780  1.00  0.00     0.200 C 
ATOM     12  H6  UNL     1      -0.124  27.472  25.445  1.00  0.00     0.187 HD
HETATM   13  N7  UNL     1      -0.994  28.391  23.085  1.00  0.00    -0.373 N 
HETATM   14  N8  UNL     1      -2.336  26.463  23.182  1.00  0.00    -0.063 NA
ATOM     15  H72 UNL     1      -0.347  29.052  23.516  1.00  0.00     0.158 HD
ATOM     16  H71 UNL     1      -1.278  28.545  22.118  1.00  0.00     0.158 HD
ATOM     17  H4  UNL     1      -3.020  28.210  26.653  1.00  0.00     0.205 HD
ENDBRANCH   3   5
BRANCH   1  18
HETATM   18  C6  UNL     1      -2.980  25.675  30.414  1.00  0.00     0.169 C 
HETATM   19  N2  UNL     1      -2.878  26.718  31.363  1.00  0.00    -0.180 NA
HETATM   20  C2  UNL     1      -3.955  26.871  32.295  1.00  0.00     0.110 C 
HETATM   21  C3  UNL     1      -4.852  25.640  32.397  1.00  0.00     0.016 C 
HETATM   22  C4  UNL     1      -5.419  25.330  31.040  1.00  0.00     0.003 C 
HETATM   23  C5  UNL     1      -4.326  25.165  30.052  1.00  0.00     0.030 C 
BRANCH  19  24
HETATM   24  S1  UNL     1      -1.341  26.612  32.122  1.00  0.00     0.299 S 
HETATM   25  O1  UNL     1      -0.441  27.740  31.628  1.00  0.00    -0.188 OA
HETATM   26  O2  UNL     1      -1.516  26.871  33.591  1.00  0.00    -0.188 OA
BRANCH  24  27
HETATM   27  N1  UNL     1      -0.519  25.150  31.917  1.00  0.00    -0.311 N 
HETATM   28  C1  UNL     1       0.582  25.069  32.853  1.00  0.00     0.160 C 
ATOM     29  H1  UNL     1      -0.762  24.432  31.235  1.00  0.00     0.172 HD
ENDBRANCH  24  27
ENDBRANCH  19  24
ENDBRANCH   1  18
TORSDOF 4
ENDMDL
MODEL 5
REMARK VINA RESULT: -7.238273347      3.214      7.380
REMARK  4 active torsions:
REMARK  status: ('A' for Active; 'I' for Inactive)
REMARK    1  A    between atoms: N1_2  and  S1_4 
REMARK    2  A    between atoms: S1_4  and  N2_7 
REMARK    3  A    between atoms: C6_12  and  C7_13 
REMARK       I    between atoms: C7_13  and  N3_15 
REMARK    4  A    between atoms: N3_15  and  N4_17 
REMARK       I    between atoms: N4_17  and  C8_19 
REMARK       I    between atoms: C8_19  and  N6_23 
REMARK       I    between atoms: N6_23  and  C9_25 
ROOT
HETATM    1  C7  UNL     1      -3.316  27.126  29.523  1.00  0.00     0.255 C 
HETATM    2  O3  UNL     1      -4.139  26.833  30.411  1.00  0.00    -0.270 OA
HETATM    3  N3  UNL     1      -1.922  27.146  29.787  1.00  0.00    -0.254 N 
ATOM      4  H3  UNL     1      -1.295  27.394  29.022  1.00  0.00     0.190 HD
ENDROOT
BRANCH   3   5
HETATM    5  N4  UNL     1      -1.357  26.850  31.018  1.00  0.00    -0.130 N 
HETATM    6  C8  UNL     1      -1.012  25.543  31.450  1.00  0.00     0.693 C 
HETATM    7  N5  UNL     1      -0.694  24.654  30.606  1.00  0.00    -0.233 N 
HETATM    8  N6  UNL     1      -1.009  25.192  32.836  1.00  0.00    -0.163 N 
ATOM      9  H52 UNL     1      -0.697  24.903  29.616  1.00  0.00     0.174 HD
ATOM     10  H51 UNL     1      -0.447  23.714  30.917  1.00  0.00     0.174 HD
HETATM   11  C9  UNL     1       0.214  25.189  33.548  1.00  0.00     0.200 C 
ATOM     12  H6  UNL     1      -1.879  24.947  33.307  1.00  0.00     0.187 HD
HETATM   13  N7  UNL     1       0.269  25.448  34.824  1.00  0.00    -0.373 N 
HETATM   14  N8  UNL     1       1.409  24.892  32.845  1.00  0.00    -0.063 NA
ATOM     15  H72 UNL     1      -0.590  25.662  35.330  1.00  0.00     0.158 HD
ATOM     16  H71 UNL     1       1.151  25.446  35.337  1.00  0.00     0.158 HD
ATOM     17  H4  UNL     1      -1.176  27.624  31.656  1.00  0.00     0.205 HD
ENDBRANCH   3   5
BRANCH   1  18
HETATM   18  C6  UNL     1      -3.816  27.467  28.132  1.00  0.00     0.169 C 
HETATM   19  N2  UNL     1      -3.997  26.263  27.412  1.00  0.00    -0.180 NA
HETATM   20  C2  UNL     1      -5.100  26.198  26.500  1.00  0.00     0.110 C 
HETATM   21  C3  UNL     1      -5.668  27.567  26.132  1.00  0.00     0.016 C 
HETATM   22  C4  UNL     1      -6.108  28.271  27.385  1.00  0.00     0.003 C 
HETATM   23  C5  UNL     1      -4.986  28.354  28.349  1.00  0.00     0.030 C 
BRANCH  19  24
HETATM   24  S1  UNL     1      -2.500  25.834  26.689  1.00  0.00     0.299 S 
HETATM   25  O1  UNL     1      -1.678  24.993  27.661  1.00  0.00    -0.188 OA
HETATM   26  O2  UNL     1      -2.776  24.924  25.526  1.00  0.00    -0.188 OA
BRANCH  24  27
HETATM   27  N1  UNL     1      -1.542  27.122  26.162  1.00  0.00    -0.311 N 
HETATM   28  C1  UNL     1      -1.622  27.237  24.720  1.00  0.00     0.160 C 
ATOM     29  H1  UNL     1      -0.990  27.728  26.768  1.00  0.00     0.172 HD
ENDBRANCH  24  27
ENDBRANCH  19  24
ENDBRANCH   1  18
TORSDOF 4
ENDMDL
