MODEL 1
REMARK VINA RESULT: -7.325830979      0.000      0.000
REMARK  3 active torsions:
REMARK  status: ('A' for Active; 'I' for Inactive)
REMARK    1  A    between atoms: C3_7  and  C4_8 
REMARK    2  A    between atoms: C4_8  and  N3_9 
REMARK    3  A    between atoms: C6_11  and  C7_12 
ROOT
HETATM    1  N3  UNL     1      -0.802  25.566  32.894  1.00  0.00    -0.303 N 
HETATM    2  C5  UNL     1      -0.625  25.484  31.551  1.00  0.00     0.113 A 
HETATM    3  C6  UNL     1      -1.413  24.651  30.758  1.00  0.00     0.050 A 
HETATM    4  C11 UNL     1      -2.383  23.912  31.406  1.00  0.00     0.261 A 
HETATM    5  O2  UNL     1      -3.176  23.116  30.799  1.00  0.00    -0.267 OA
HETATM    6  N6  UNL     1      -2.503  24.043  32.750  1.00  0.00    -0.275 N 
ATOM      7  H6  UNL     1      -3.223  23.493  33.218  1.00  0.00     0.173 HD
HETATM    8  C12 UNL     1      -1.746  24.842  33.500  1.00  0.00     0.329 A 
HETATM    9  O3  UNL     1      -1.931  24.901  34.741  1.00  0.00    -0.246 OA
ENDROOT
BRANCH   3  10
HETATM   10  C7  UNL     1      -1.273  24.591  29.332  1.00  0.00     0.053 C 
HETATM   11  C8  UNL     1      -1.771  25.456  28.443  1.00  0.00     0.104 A 
HETATM   12  N4  UNL     1      -1.600  25.361  27.029  1.00  0.00    -0.329 N 
HETATM   13  C10 UNL     1      -2.616  26.613  28.679  1.00  0.00     0.274 A 
HETATM   14  C9  UNL     1      -2.300  26.407  26.396  1.00  0.00     0.179 A 
ATOM     15  H4  UNL     1      -1.055  24.645  26.550  1.00  0.00     0.168 HD
HETATM   16  S1  UNL     1      -2.388  26.697  24.769  1.00  0.00    -0.040 SA
HETATM   17  N5  UNL     1      -2.920  27.174  27.403  1.00  0.00    -0.298 N 
ATOM     18  H5  UNL     1      -3.497  28.000  27.244  1.00  0.00     0.171 HD
HETATM   19  O1  UNL     1      -3.043  27.099  29.730  1.00  0.00    -0.266 OA
ENDBRANCH   3  10
BRANCH   1  20
HETATM   20  C4  UNL     1       0.051  26.429  33.679  1.00  0.00     0.193 C 
BRANCH  20  21
HETATM   21  C3  UNL     1       1.441  25.920  33.816  1.00  0.00     0.067 A 
HETATM   22  C2  UNL     1       2.140  24.744  33.956  1.00  0.00     0.047 A 
HETATM   23  C1  UNL     1       1.773  23.288  34.053  1.00  0.00     0.072 C 
HETATM   24  N1  UNL     1       3.305  25.435  33.978  1.00  0.00    -0.303 N 
HETATM   25  N2  UNL     1       2.654  26.563  33.846  1.00  0.00    -0.301 N 
ATOM     26  H1  UNL     1       4.289  25.180  34.063  1.00  0.00     0.186 HD
ATOM     27  H2  UNL     1       2.938  27.541  33.787  1.00  0.00     0.186 HD
ENDBRANCH  20  21
ENDBRANCH   1  20
TORSDOF 3
ENDMDL
MODEL 2
REMARK VINA RESULT: -7.240523042      1.659      2.014
REMARK  3 active torsions:
REMARK  status: ('A' for Active; 'I' for Inactive)
REMARK    1  A    between atoms: C3_7  and  C4_8 
REMARK    2  A    between atoms: C4_8  and  N3_9 
REMARK    3  A    between atoms: C6_11  and  C7_12 
ROOT
HETATM    1  N3  UNL     1      -0.627  27.276  33.137  1.00  0.00    -0.303 N 
HETATM    2  C5  UNL     1      -1.042  27.535  31.871  1.00  0.00     0.113 A 
HETATM    3  C6  UNL     1      -2.302  27.148  31.420  1.00  0.00     0.050 A 
HETATM    4  C11 UNL     1      -3.111  26.489  32.325  1.00  0.00     0.261 A 
HETATM    5  O2  UNL     1      -4.290  26.086  32.044  1.00  0.00    -0.267 OA
HETATM    6  N6  UNL     1      -2.631  26.263  33.573  1.00  0.00    -0.275 N 
ATOM      7  H6  UNL     1      -3.236  25.775  34.233  1.00  0.00     0.173 HD
HETATM    8  C12 UNL     1      -1.424  26.636  33.996  1.00  0.00     0.329 A 
HETATM    9  O3  UNL     1      -1.065  26.386  35.172  1.00  0.00    -0.246 OA
ENDROOT
BRANCH   3  10
HETATM   10  C7  UNL     1      -2.774  27.459  30.102  1.00  0.00     0.053 C 
HETATM   11  C8  UNL     1      -2.478  26.808  28.972  1.00  0.00     0.104 A 
HETATM   12  N4  UNL     1      -2.978  27.149  27.680  1.00  0.00    -0.329 N 
HETATM   13  C10 UNL     1      -1.575  25.686  28.783  1.00  0.00     0.274 A 
HETATM   14  C9  UNL     1      -2.422  26.286  26.715  1.00  0.00     0.179 A 
ATOM     15  H4  UNL     1      -3.637  27.902  27.484  1.00  0.00     0.168 HD
HETATM   16  S1  UNL     1      -2.711  26.306  25.085  1.00  0.00    -0.040 SA
HETATM   17  N5  UNL     1      -1.565  25.391  27.387  1.00  0.00    -0.298 N 
ATOM     18  H5  UNL     1      -1.023  24.649  26.945  1.00  0.00     0.171 HD
HETATM   19  O1  UNL     1      -0.902  25.047  29.595  1.00  0.00    -0.266 OA
ENDBRANCH   3  10
BRANCH   1  20
HETATM   20  C4  UNL     1       0.697  27.678  33.556  1.00  0.00     0.193 C 
BRANCH  20  21
HETATM   21  C3  UNL     1       1.652  26.545  33.665  1.00  0.00     0.067 A 
HETATM   22  C2  UNL     1       1.759  25.206  33.371  1.00  0.00     0.047 A 
HETATM   23  C1  UNL     1       0.860  24.173  32.748  1.00  0.00     0.072 C 
HETATM   24  N1  UNL     1       3.014  25.191  33.881  1.00  0.00    -0.303 N 
HETATM   25  N2  UNL     1       2.928  26.466  34.168  1.00  0.00    -0.301 N 
ATOM     26  H1  UNL     1       3.734  24.477  33.995  1.00  0.00     0.186 HD
ATOM     27  H2  UNL     1       3.562  27.138  34.598  1.00  0.00     0.186 HD
ENDBRANCH  20  21
ENDBRANCH   1  20
TORSDOF 3
ENDMDL
MODEL 3
REMARK VINA RESULT: -7.180642235      3.210      7.392
REMARK  3 active torsions:
REMARK  status: ('A' for Active; 'I' for Inactive)
REMARK    1  A    between atoms: C3_7  and  C4_8 
REMARK    2  A    between atoms: C4_8  and  N3_9 
REMARK    3  A    between atoms: C6_11  and  C7_12 
ROOT
HETATM    1  N3  UNL     1      -2.568  26.329  26.643  1.00  0.00    -0.303 N 
HETATM    2  C5  UNL     1      -1.855  26.251  27.795  1.00  0.00     0.113 A 
HETATM    3  C6  UNL     1      -2.370  26.705  29.008  1.00  0.00     0.050 A 
HETATM    4  C11 UNL     1      -3.642  27.240  28.981  1.00  0.00     0.261 A 
HETATM    5  O2  UNL     1      -4.234  27.687  30.021  1.00  0.00    -0.267 OA
HETATM    6  N6  UNL     1      -4.297  27.288  27.795  1.00  0.00    -0.275 N 
ATOM      7  H6  UNL     1      -5.236  27.685  27.786  1.00  0.00     0.173 HD
HETATM    8  C12 UNL     1      -3.797  26.851  26.639  1.00  0.00     0.329 A 
HETATM    9  O3  UNL     1      -4.478  26.934  25.588  1.00  0.00    -0.246 OA
ENDROOT
BRANCH   3  10
HETATM   10  C7  UNL     1      -1.649  26.582  30.241  1.00  0.00     0.053 C 
HETATM   11  C8  UNL     1      -1.033  25.489  30.702  1.00  0.00     0.104 A 
HETATM   12  N4  UNL     1      -0.319  25.414  31.936  1.00  0.00    -0.329 N 
HETATM   13  C10 UNL     1      -0.989  24.160  30.119  1.00  0.00     0.274 A 
HETATM   14  C9  UNL     1       0.157  24.103  32.128  1.00  0.00     0.179 A 
ATOM     15  H4  UNL     1      -0.176  26.192  32.580  1.00  0.00     0.168 HD
HETATM   16  S1  UNL     1       1.036  23.547  33.417  1.00  0.00    -0.040 SA
HETATM   17  N5  UNL     1      -0.250  23.334  31.019  1.00  0.00    -0.298 N 
ATOM     18  H5  UNL     1      -0.048  22.344  30.881  1.00  0.00     0.171 HD
HETATM   19  O1  UNL     1      -1.462  23.725  29.066  1.00  0.00    -0.266 OA
ENDBRANCH   3  10
BRANCH   1  20
HETATM   20  C4  UNL     1      -1.987  25.863  25.404  1.00  0.00     0.193 C 
BRANCH  20  21
HETATM   21  C3  UNL     1      -1.597  26.962  24.484  1.00  0.00     0.067 A 
HETATM   22  C2  UNL     1      -0.610  27.902  24.299  1.00  0.00     0.047 A 
HETATM   23  C1  UNL     1       0.650  28.286  25.025  1.00  0.00     0.072 C 
HETATM   24  N1  UNL     1      -1.241  28.351  23.188  1.00  0.00    -0.303 N 
HETATM   25  N2  UNL     1      -2.190  27.463  23.350  1.00  0.00    -0.301 N 
ATOM     26  H1  UNL     1      -1.054  29.084  22.502  1.00  0.00     0.186 HD
ATOM     27  H2  UNL     1      -3.039  27.233  22.835  1.00  0.00     0.186 HD
ENDBRANCH  20  21
ENDBRANCH   1  20
TORSDOF 3
ENDMDL
MODEL 4
REMARK VINA RESULT: -7.000880351      3.283      7.457
REMARK  3 active torsions:
REMARK  status: ('A' for Active; 'I' for Inactive)
REMARK    1  A    between atoms: C3_7  and  C4_8 
REMARK    2  A    between atoms: C4_8  and  N3_9 
REMARK    3  A    between atoms: C6_11  and  C7_12 
ROOT
HETATM    1  N3  UNL     1      -2.642  26.340  26.613  1.00  0.00    -0.303 N 
HETATM    2  C5  UNL     1      -1.921  26.201  27.755  1.00  0.00     0.113 A 
HETATM    3  C6  UNL     1      -2.390  26.676  28.978  1.00  0.00     0.050 A 
HETATM    4  C11 UNL     1      -3.624  27.294  28.974  1.00  0.00     0.261 A 
HETATM    5  O2  UNL     1      -4.172  27.767  30.026  1.00  0.00    -0.267 OA
HETATM    6  N6  UNL     1      -4.289  27.398  27.797  1.00  0.00    -0.275 N 
ATOM      7  H6  UNL     1      -5.200  27.856  27.805  1.00  0.00     0.173 HD
HETATM    8  C12 UNL     1      -3.834  26.941  26.631  1.00  0.00     0.329 A 
HETATM    9  O3  UNL     1      -4.521  27.081  25.589  1.00  0.00    -0.246 OA
ENDROOT
BRANCH   3  10
HETATM   10  C7  UNL     1      -1.663  26.492  30.201  1.00  0.00     0.053 C 
HETATM   11  C8  UNL     1      -1.868  25.540  31.118  1.00  0.00     0.104 A 
HETATM   12  N4  UNL     1      -1.113  25.391  32.320  1.00  0.00    -0.329 N 
HETATM   13  C10 UNL     1      -2.893  24.512  31.143  1.00  0.00     0.274 A 
HETATM   14  C9  UNL     1      -1.631  24.320  33.074  1.00  0.00     0.179 A 
ATOM     15  H4  UNL     1      -0.320  25.972  32.593  1.00  0.00     0.168 HD
HETATM   16  S1  UNL     1      -1.078  23.779  34.537  1.00  0.00    -0.040 SA
HETATM   17  N5  UNL     1      -2.718  23.781  32.356  1.00  0.00    -0.298 N 
ATOM     18  H5  UNL     1      -3.290  22.991  32.656  1.00  0.00     0.171 HD
HETATM   19  O1  UNL     1      -3.783  24.241  30.334  1.00  0.00    -0.266 OA
ENDBRANCH   3  10
BRANCH   1  20
HETATM   20  C4  UNL     1      -2.108  25.849  25.362  1.00  0.00     0.193 C 
BRANCH  20  21
HETATM   21  C3  UNL     1      -1.663  26.931  24.446  1.00  0.00     0.067 A 
HETATM   22  C2  UNL     1      -0.644  27.841  24.281  1.00  0.00     0.047 A 
HETATM   23  C1  UNL     1       0.606  28.194  25.039  1.00  0.00     0.072 C 
HETATM   24  N1  UNL     1      -1.233  28.300  23.151  1.00  0.00    -0.303 N 
HETATM   25  N2  UNL     1      -2.210  27.440  23.293  1.00  0.00    -0.301 N 
ATOM     26  H1  UNL     1      -1.006  29.022  22.466  1.00  0.00     0.186 HD
ATOM     27  H2  UNL     1      -3.051  27.230  22.757  1.00  0.00     0.186 HD
ENDBRANCH  20  21
ENDBRANCH   1  20
TORSDOF 3
ENDMDL
MODEL 5
REMARK VINA RESULT: -6.996246815      3.553      6.796
REMARK  3 active torsions:
REMARK  status: ('A' for Active; 'I' for Inactive)
REMARK    1  A    between atoms: C3_7  and  C4_8 
REMARK    2  A    between atoms: C4_8  and  N3_9 
REMARK    3  A    between atoms: C6_11  and  C7_12 
ROOT
HETATM    1  N3  UNL     1      -1.738  25.719  30.216  1.00  0.00    -0.303 N 
HETATM    2  C5  UNL     1      -1.204  24.481  30.371  1.00  0.00     0.113 A 
HETATM    3  C6  UNL     1      -0.194  24.231  31.297  1.00  0.00     0.050 A 
HETATM    4  C11 UNL     1       0.239  25.304  32.050  1.00  0.00     0.261 A 
HETATM    5  O2  UNL     1       1.153  25.212  32.938  1.00  0.00    -0.267 OA
HETATM    6  N6  UNL     1      -0.339  26.513  31.842  1.00  0.00    -0.275 N 
ATOM      7  H6  UNL     1      -0.012  27.299  32.403  1.00  0.00     0.173 HD
HETATM    8  C12 UNL     1      -1.305  26.744  30.954  1.00  0.00     0.329 A 
HETATM    9  O3  UNL     1      -1.783  27.898  30.831  1.00  0.00    -0.246 OA
ENDROOT
BRANCH   3  10
HETATM   10  C7  UNL     1       0.345  22.919  31.509  1.00  0.00     0.053 C 
HETATM   11  C8  UNL     1      -0.130  21.983  32.338  1.00  0.00     0.104 A 
HETATM   12  N4  UNL     1       0.436  20.685  32.512  1.00  0.00    -0.329 N 
HETATM   13  C10 UNL     1      -1.247  22.074  33.261  1.00  0.00     0.274 A 
HETATM   14  C9  UNL     1      -0.286  19.982  33.496  1.00  0.00     0.179 A 
ATOM     15  H4  UNL     1       1.241  20.321  32.001  1.00  0.00     0.168 HD
HETATM   16  S1  UNL     1       0.008  18.442  34.029  1.00  0.00    -0.040 SA
HETATM   17  N5  UNL     1      -1.315  20.828  33.954  1.00  0.00    -0.298 N 
ATOM     18  H5  UNL     1      -2.002  20.588  34.670  1.00  0.00     0.171 HD
HETATM   19  O1  UNL     1      -2.039  22.993  33.482  1.00  0.00    -0.266 OA
ENDBRANCH   3  10
BRANCH   1  20
HETATM   20  C4  UNL     1      -2.772  25.937  29.229  1.00  0.00     0.193 C 
BRANCH  20  21
HETATM   21  C3  UNL     1      -2.242  26.277  27.883  1.00  0.00     0.067 A 
HETATM   22  C2  UNL     1      -2.669  26.631  26.624  1.00  0.00     0.047 A 
HETATM   23  C1  UNL     1      -4.006  26.850  25.970  1.00  0.00     0.072 C 
HETATM   24  N1  UNL     1      -1.382  26.698  26.204  1.00  0.00    -0.303 N 
HETATM   25  N2  UNL     1      -0.960  26.360  27.396  1.00  0.00    -0.301 N 
ATOM     26  H1  UNL     1      -0.928  26.920  25.318  1.00  0.00     0.186 HD
ATOM     27  H2  UNL     1      -0.038  26.216  27.805  1.00  0.00     0.186 HD
ENDBRANCH  20  21
ENDBRANCH   1  20
TORSDOF 3
ENDMDL
