MODEL 1
REMARK VINA RESULT: -6.724372640      0.000      0.000
REMARK  6 active torsions:
REMARK  status: ('A' for Active; 'I' for Inactive)
REMARK    1  A    between atoms: C7_8  and  C8_9 
REMARK       I    between atoms: C8_9  and  N2_11 
REMARK    2  A    between atoms: N2_11  and  N3_13 
REMARK    3  A    between atoms: N3_13  and  C9_15 
REMARK    4  A    between atoms: C9_15  and  N4_17 
REMARK    5  A    between atoms: N4_17  and  N5_19 
REMARK    6  A    between atoms: N5_19  and  S2_21 
ROOT
HETATM    1  C8  UNL     1      -1.206  26.139  30.641  1.00  0.00     0.259 C 
HETATM    2  O1  UNL     1      -0.434  25.154  30.516  1.00  0.00    -0.269 OA
HETATM    3  N2  UNL     1      -1.894  26.565  29.475  1.00  0.00    -0.266 N 
ATOM      4  H2  UNL     1      -2.528  27.360  29.543  1.00  0.00     0.190 HD
ENDROOT
BRANCH   3   5
HETATM    5  N3  UNL     1      -1.736  25.936  28.234  1.00  0.00    -0.272 N 
ATOM      6  H3  UNL     1      -1.345  24.994  28.221  1.00  0.00     0.189 HD
BRANCH   5   7
HETATM    7  C9  UNL     1      -2.082  26.522  27.010  1.00  0.00     0.206 C 
HETATM    8  S1  UNL     1      -3.634  26.824  26.572  1.00  0.00    -0.038 SA
BRANCH   7   9
HETATM    9  N4  UNL     1      -1.061  26.878  26.094  1.00  0.00    -0.266 N 
ATOM     10  H4  UNL     1      -0.124  27.076  26.444  1.00  0.00     0.190 HD
BRANCH   9  11
HETATM   11  N5  UNL     1      -1.309  26.967  24.719  1.00  0.00    -0.225 N 
ATOM     12  H5  UNL     1      -2.173  26.646  24.282  1.00  0.00     0.200 HD
BRANCH  11  13
HETATM   13  S2  UNL     1      -0.018  27.668  23.846  1.00  0.00     0.240 S 
HETATM   14  C10 UNL     1       1.157  28.489  24.865  1.00  0.00     0.187 C 
HETATM   15  O2  UNL     1       0.642  26.590  23.042  1.00  0.00    -0.205 OA
HETATM   16  O3  UNL     1      -0.579  28.663  22.840  1.00  0.00    -0.205 OA
ENDBRANCH  11  13
ENDBRANCH   9  11
ENDBRANCH   7   9
ENDBRANCH   5   7
ENDBRANCH   3   5
BRANCH   1  17
HETATM   17  C7  UNL     1      -1.431  26.859  31.897  1.00  0.00     0.187 C 
HETATM   18  N1  UNL     1      -2.346  26.208  32.798  1.00  0.00    -0.384 N 
HETATM   19  C1  UNL     1      -1.622  25.087  33.381  1.00  0.00     0.149 C 
HETATM   20  C2  UNL     1      -3.665  25.951  32.576  1.00  0.00     0.059 C 
HETATM   21  C3  UNL     1      -4.787  26.901  33.038  1.00  0.00     0.055 C 
HETATM   22  C4  UNL     1      -4.563  28.344  32.460  1.00  0.00     0.085 C 
HETATM   23  C5  UNL     1      -3.228  28.400  32.036  1.00  0.00    -0.180 C 
HETATM   24  C6  UNL     1      -1.889  28.341  31.610  1.00  0.00     0.115 C 
ENDBRANCH   1  17
TORSDOF 6
ENDMDL
MODEL 2
REMARK VINA RESULT: -6.689339365      2.058      3.227
REMARK  6 active torsions:
REMARK  status: ('A' for Active; 'I' for Inactive)
REMARK    1  A    between atoms: C7_8  and  C8_9 
REMARK       I    between atoms: C8_9  and  N2_11 
REMARK    2  A    between atoms: N2_11  and  N3_13 
REMARK    3  A    between atoms: N3_13  and  C9_15 
REMARK    4  A    between atoms: C9_15  and  N4_17 
REMARK    5  A    between atoms: N4_17  and  N5_19 
REMARK    6  A    between atoms: N5_19  and  S2_21 
ROOT
HETATM    1  C8  UNL     1      -2.456  25.872  29.395  1.00  0.00     0.259 C 
HETATM    2  O1  UNL     1      -1.482  25.838  28.599  1.00  0.00    -0.269 OA
HETATM    3  N2  UNL     1      -3.531  26.734  29.053  1.00  0.00    -0.266 N 
ATOM      4  H2  UNL     1      -4.336  26.783  29.677  1.00  0.00     0.190 HD
ENDROOT
BRANCH   3   5
HETATM    5  N3  UNL     1      -3.530  27.518  27.894  1.00  0.00    -0.272 N 
ATOM      6  H3  UNL     1      -3.097  28.440  27.941  1.00  0.00     0.189 HD
BRANCH   5   7
HETATM    7  C9  UNL     1      -4.089  27.115  26.675  1.00  0.00     0.206 C 
HETATM    8  S1  UNL     1      -5.641  27.437  26.255  1.00  0.00    -0.038 SA
BRANCH   7   9
HETATM    9  N4  UNL     1      -3.295  26.395  25.748  1.00  0.00    -0.266 N 
ATOM     10  H4  UNL     1      -3.741  25.714  25.133  1.00  0.00     0.190 HD
BRANCH   9  11
HETATM   11  N5  UNL     1      -1.913  26.597  25.654  1.00  0.00    -0.225 N 
ATOM     12  H5  UNL     1      -1.278  26.516  26.448  1.00  0.00     0.200 HD
BRANCH  11  13
HETATM   13  S2  UNL     1      -1.395  26.993  24.074  1.00  0.00     0.240 S 
HETATM   14  C10 UNL     1      -0.280  28.351  24.019  1.00  0.00     0.187 C 
HETATM   15  O2  UNL     1      -0.773  25.773  23.467  1.00  0.00    -0.205 OA
HETATM   16  O3  UNL     1      -2.612  27.318  23.219  1.00  0.00    -0.205 OA
ENDBRANCH  11  13
ENDBRANCH   9  11
ENDBRANCH   7   9
ENDBRANCH   5   7
ENDBRANCH   3   5
BRANCH   1  17
HETATM   17  C7  UNL     1      -2.542  25.089  30.630  1.00  0.00     0.187 C 
HETATM   18  N1  UNL     1      -1.792  25.634  31.732  1.00  0.00    -0.384 N 
HETATM   19  C1  UNL     1      -2.545  26.782  32.215  1.00  0.00     0.149 C 
HETATM   20  C2  UNL     1      -0.441  25.800  31.795  1.00  0.00     0.059 C 
HETATM   21  C3  UNL     1       0.498  24.751  32.423  1.00  0.00     0.055 C 
HETATM   22  C4  UNL     1       0.304  23.353  31.736  1.00  0.00     0.085 C 
HETATM   23  C5  UNL     1      -0.916  23.413  31.048  1.00  0.00    -0.180 C 
HETATM   24  C6  UNL     1      -2.132  23.589  30.362  1.00  0.00     0.115 C 
ENDBRANCH   1  17
TORSDOF 6
ENDMDL
MODEL 3
REMARK VINA RESULT: -6.680302110      2.759      3.928
REMARK  6 active torsions:
REMARK  status: ('A' for Active; 'I' for Inactive)
REMARK    1  A    between atoms: C7_8  and  C8_9 
REMARK       I    between atoms: C8_9  and  N2_11 
REMARK    2  A    between atoms: N2_11  and  N3_13 
REMARK    3  A    between atoms: N3_13  and  C9_15 
REMARK    4  A    between atoms: C9_15  and  N4_17 
REMARK    5  A    between atoms: N4_17  and  N5_19 
REMARK    6  A    between atoms: N5_19  and  S2_21 
ROOT
HETATM    1  C8  UNL     1      -0.684  23.991  30.440  1.00  0.00     0.259 C 
HETATM    2  O1  UNL     1       0.056  24.977  30.686  1.00  0.00    -0.269 OA
HETATM    3  N2  UNL     1      -1.348  23.987  29.185  1.00  0.00    -0.266 N 
ATOM      4  H2  UNL     1      -1.955  23.200  28.955  1.00  0.00     0.190 HD
ENDROOT
BRANCH   3   5
HETATM    5  N3  UNL     1      -1.204  25.019  28.251  1.00  0.00    -0.272 N 
ATOM      6  H3  UNL     1      -0.396  24.993  27.629  1.00  0.00     0.189 HD
BRANCH   5   7
HETATM    7  C9  UNL     1      -2.100  26.087  28.120  1.00  0.00     0.206 C 
HETATM    8  S1  UNL     1      -3.179  26.496  29.286  1.00  0.00    -0.038 SA
BRANCH   7   9
HETATM    9  N4  UNL     1      -2.092  26.863  26.934  1.00  0.00    -0.266 N 
ATOM     10  H4  UNL     1      -2.897  27.453  26.720  1.00  0.00     0.190 HD
BRANCH   9  11
HETATM   11  N5  UNL     1      -1.008  26.839  26.049  1.00  0.00    -0.225 N 
ATOM     12  H5  UNL     1      -0.039  26.735  26.350  1.00  0.00     0.200 HD
BRANCH  11  13
HETATM   13  S2  UNL     1      -1.471  27.004  24.412  1.00  0.00     0.240 S 
HETATM   14  C10 UNL     1      -0.839  28.454  23.644  1.00  0.00     0.187 C 
HETATM   15  O2  UNL     1      -1.023  25.778  23.675  1.00  0.00    -0.205 OA
HETATM   16  O3  UNL     1      -2.990  27.019  24.324  1.00  0.00    -0.205 OA
ENDBRANCH  11  13
ENDBRANCH   9  11
ENDBRANCH   7   9
ENDBRANCH   5   7
ENDBRANCH   3   5
BRANCH   1  17
HETATM   17  C7  UNL     1      -0.897  22.868  31.356  1.00  0.00     0.187 C 
HETATM   18  N1  UNL     1      -1.327  23.252  32.676  1.00  0.00    -0.384 N 
HETATM   19  C1  UNL     1      -2.727  23.632  32.558  1.00  0.00     0.149 C 
HETATM   20  C2  UNL     1      -0.629  24.003  33.573  1.00  0.00     0.059 C 
HETATM   21  C3  UNL     1       0.257  23.379  34.669  1.00  0.00     0.055 C 
HETATM   22  C4  UNL     1       1.330  22.425  34.035  1.00  0.00     0.085 C 
HETATM   23  C5  UNL     1       0.897  22.148  32.731  1.00  0.00    -0.180 C 
HETATM   24  C6  UNL     1       0.394  21.964  31.430  1.00  0.00     0.115 C 
ENDBRANCH   1  17
TORSDOF 6
ENDMDL
MODEL 4
REMARK VINA RESULT: -6.623812114      2.015      3.360
REMARK  6 active torsions:
REMARK  status: ('A' for Active; 'I' for Inactive)
REMARK    1  A    between atoms: C7_8  and  C8_9 
REMARK       I    between atoms: C8_9  and  N2_11 
REMARK    2  A    between atoms: N2_11  and  N3_13 
REMARK    3  A    between atoms: N3_13  and  C9_15 
REMARK    4  A    between atoms: C9_15  and  N4_17 
REMARK    5  A    between atoms: N4_17  and  N5_19 
REMARK    6  A    between atoms: N5_19  and  S2_21 
ROOT
HETATM    1  C8  UNL     1      -1.009  24.404  30.247  1.00  0.00     0.259 C 
HETATM    2  O1  UNL     1      -0.081  23.706  29.763  1.00  0.00    -0.269 OA
HETATM    3  N2  UNL     1      -1.746  25.207  29.337  1.00  0.00    -0.266 N 
ATOM      4  H2  UNL     1      -2.505  25.784  29.698  1.00  0.00     0.190 HD
ENDROOT
BRANCH   3   5
HETATM    5  N3  UNL     1      -1.472  25.238  27.965  1.00  0.00    -0.272 N 
ATOM      6  H3  UNL     1      -0.926  24.474  27.568  1.00  0.00     0.189 HD
BRANCH   5   7
HETATM    7  C9  UNL     1      -1.902  26.255  27.104  1.00  0.00     0.206 C 
HETATM    8  S1  UNL     1      -3.438  26.830  27.097  1.00  0.00    -0.038 SA
BRANCH   7   9
HETATM    9  N4  UNL     1      -0.984  26.829  26.189  1.00  0.00    -0.266 N 
ATOM     10  H4  UNL     1      -0.106  27.212  26.539  1.00  0.00     0.190 HD
BRANCH   9  11
HETATM   11  N5  UNL     1      -1.255  26.884  24.816  1.00  0.00    -0.225 N 
ATOM     12  H5  UNL     1      -2.103  26.506  24.396  1.00  0.00     0.200 HD
BRANCH  11  13
HETATM   13  S2  UNL     1      -0.019  27.648  23.916  1.00  0.00     0.240 S 
HETATM   14  C10 UNL     1       1.137  28.523  24.911  1.00  0.00     0.187 C 
HETATM   15  O2  UNL     1       0.674  26.604  23.095  1.00  0.00    -0.205 OA
HETATM   16  O3  UNL     1      -0.651  28.616  22.926  1.00  0.00    -0.205 OA
ENDBRANCH  11  13
ENDBRANCH   9  11
ENDBRANCH   7   9
ENDBRANCH   5   7
ENDBRANCH   3   5
BRANCH   1  17
HETATM   17  C7  UNL     1      -1.364  24.437  31.668  1.00  0.00     0.187 C 
HETATM   18  N1  UNL     1      -0.399  25.098  32.506  1.00  0.00    -0.384 N 
HETATM   19  C1  UNL     1      -0.556  26.526  32.267  1.00  0.00     0.149 C 
HETATM   20  C2  UNL     1       0.892  24.718  32.719  1.00  0.00     0.059 C 
HETATM   21  C3  UNL     1       1.314  23.838  33.912  1.00  0.00     0.055 C 
HETATM   22  C4  UNL     1       0.500  22.495  33.924  1.00  0.00     0.085 C 
HETATM   23  C5  UNL     1      -0.605  22.692  33.085  1.00  0.00    -0.180 C 
HETATM   24  C6  UNL     1      -1.658  22.979  32.196  1.00  0.00     0.115 C 
ENDBRANCH   1  17
TORSDOF 6
ENDMDL
MODEL 5
REMARK VINA RESULT: -6.579110296      3.127      4.635
REMARK  6 active torsions:
REMARK  status: ('A' for Active; 'I' for Inactive)
REMARK    1  A    between atoms: C7_8  and  C8_9 
REMARK       I    between atoms: C8_9  and  N2_11 
REMARK    2  A    between atoms: N2_11  and  N3_13 
REMARK    3  A    between atoms: N3_13  and  C9_15 
REMARK    4  A    between atoms: C9_15  and  N4_17 
REMARK    5  A    between atoms: N4_17  and  N5_19 
REMARK    6  A    between atoms: N5_19  and  S2_21 
ROOT
HETATM    1  C8  UNL     1      -2.064  25.759  28.928  1.00  0.00     0.259 C 
HETATM    2  O1  UNL     1      -2.554  26.900  29.125  1.00  0.00    -0.269 OA
HETATM    3  N2  UNL     1      -1.438  25.541  27.673  1.00  0.00    -0.266 N 
ATOM      4  H2  UNL     1      -1.030  24.626  27.482  1.00  0.00     0.190 HD
ENDROOT
BRANCH   3   5
HETATM    5  N3  UNL     1      -1.358  26.530  26.686  1.00  0.00    -0.272 N 
ATOM      6  H3  UNL     1      -0.547  27.149  26.692  1.00  0.00     0.189 HD
BRANCH   5   7
HETATM    7  C9  UNL     1      -2.325  26.724  25.692  1.00  0.00     0.206 C 
HETATM    8  S1  UNL     1      -1.945  27.015  24.122  1.00  0.00    -0.038 SA
BRANCH   7   9
HETATM    9  N4  UNL     1      -3.699  26.671  26.034  1.00  0.00    -0.266 N 
ATOM     10  H4  UNL     1      -4.268  25.896  25.690  1.00  0.00     0.190 HD
BRANCH   9  11
HETATM   11  N5  UNL     1      -4.295  27.655  26.831  1.00  0.00    -0.225 N 
ATOM     12  H5  UNL     1      -3.765  28.339  27.369  1.00  0.00     0.200 HD
BRANCH  11  13
HETATM   13  S2  UNL     1      -6.003  27.594  26.812  1.00  0.00     0.240 S 
HETATM   14  C10 UNL     1      -6.658  26.057  27.361  1.00  0.00     0.187 C 
HETATM   15  O2  UNL     1      -6.520  28.719  27.655  1.00  0.00    -0.205 OA
HETATM   16  O3  UNL     1      -6.495  27.863  25.397  1.00  0.00    -0.205 OA
ENDBRANCH  11  13
ENDBRANCH   9  11
ENDBRANCH   7   9
ENDBRANCH   5   7
ENDBRANCH   3   5
BRANCH   1  17
HETATM   17  C7  UNL     1      -2.102  24.663  29.899  1.00  0.00     0.187 C 
HETATM   18  N1  UNL     1      -2.403  25.075  31.246  1.00  0.00    -0.384 N 
HETATM   19  C1  UNL     1      -3.828  25.369  31.278  1.00  0.00     0.149 C 
HETATM   20  C2  UNL     1      -1.655  25.899  32.032  1.00  0.00     0.059 C 
HETATM   21  C3  UNL     1      -0.614  25.371  33.038  1.00  0.00     0.055 C 
HETATM   22  C4  UNL     1       0.437  24.455  32.317  1.00  0.00     0.085 C 
HETATM   23  C5  UNL     1      -0.124  24.102  31.082  1.00  0.00    -0.180 C 
HETATM   24  C6  UNL     1      -0.759  23.838  29.854  1.00  0.00     0.115 C 
ENDBRANCH   1  17
TORSDOF 6
ENDMDL
