MODEL 1
REMARK VINA RESULT: -6.114610519      0.000      0.000
REMARK  4 active torsions:
REMARK  status: ('A' for Active; 'I' for Inactive)
REMARK    1  A    between atoms: C2_2  and  N1_3 
REMARK    2  A    between atoms: C2_2  and  C3_11 
REMARK    3  A    between atoms: N1_3  and  S1_5 
REMARK    4  A    between atoms: S1_5  and  N2_6 
ROOT
HETATM    1  C3  UNL     1      -2.461  25.683  30.836  1.00  0.00     0.441 C 
HETATM    2  N3  UNL     1      -2.253  25.208  29.481  1.00  0.00    -0.040 N 
ATOM      3  H31 UNL     1      -3.077  24.712  29.141  1.00  0.00     0.279 HD
ATOM      4  H32 UNL     1      -1.577  24.444  29.464  1.00  0.00     0.279 HD
HETATM    5  C4  UNL     1      -1.870  26.246  28.568  1.00  0.00     0.262 C 
HETATM    6  C5  UNL     1      -2.447  26.023  27.176  1.00  0.00     0.260 C 
HETATM    7  N4  UNL     1      -2.958  27.219  26.586  1.00  0.00    -0.072 N 
ATOM      8  H41 UNL     1      -2.548  27.389  25.667  1.00  0.00     0.277 HD
ATOM      9  H42 UNL     1      -2.615  28.051  27.066  1.00  0.00     0.277 HD
HETATM   10  C6  UNL     1      -4.428  27.196  26.526  1.00  0.00     0.259 C 
HETATM   11  C7  UNL     1      -4.961  28.112  27.606  1.00  0.00     0.259 C 
HETATM   12  N5  UNL     1      -6.338  27.912  27.905  1.00  0.00    -0.074 N 
ATOM     13  H51 UNL     1      -6.871  27.727  27.056  1.00  0.00     0.277 HD
ATOM     14  H52 UNL     1      -6.779  28.787  28.191  1.00  0.00     0.277 HD
HETATM   15  C8  UNL     1      -6.563  26.864  28.902  1.00  0.00     0.232 C 
HETATM   16  C9  UNL     1      -6.126  27.345  30.225  1.00  0.00     0.029 C 
HETATM   17  C10 UNL     1      -5.591  26.346  31.172  1.00  0.00     0.032 C 
HETATM   18  C11 UNL     1      -4.747  25.265  30.592  1.00  0.00     0.275 C 
HETATM   19  N6  UNL     1      -3.571  24.964  31.387  1.00  0.00     0.117 N 
HETATM   20  C12 UNL     1      -3.778  25.166  32.791  1.00  0.00     0.312 C 
ENDROOT
BRANCH   1  21
HETATM   21  C2  UNL     1      -1.208  25.585  31.666  1.00  0.00     0.151 C 
HETATM   22  C1  UNL     1      -0.297  24.486  31.247  1.00  0.00     0.037 C 
BRANCH  21  23
HETATM   23  N1  UNL     1      -0.498  26.842  31.593  1.00  0.00    -0.295 N 
ATOM     24  H1  UNL     1      -0.474  27.441  30.768  1.00  0.00     0.174 HD
BRANCH  23  25
HETATM   25  S1  UNL     1       0.313  27.207  33.098  1.00  0.00     0.313 S 
HETATM   26  O1  UNL     1      -0.429  26.632  34.263  1.00  0.00    -0.183 OA
HETATM   27  O2  UNL     1       1.700  26.628  33.100  1.00  0.00    -0.183 OA
BRANCH  25  28
HETATM   28  N2  UNL     1       0.473  28.924  33.283  1.00  0.00    -0.312 N 
ATOM     29  H22 UNL     1      -0.208  29.603  32.946  1.00  0.00     0.170 HD
ATOM     30  H21 UNL     1       1.340  29.142  33.773  1.00  0.00     0.170 HD
ENDBRANCH  25  28
ENDBRANCH  23  25
ENDBRANCH  21  23
ENDBRANCH   1  21
TORSDOF 4
ENDMDL
MODEL 2
REMARK VINA RESULT: -6.055882354      0.913      1.173
REMARK  4 active torsions:
REMARK  status: ('A' for Active; 'I' for Inactive)
REMARK    1  A    between atoms: C2_2  and  N1_3 
REMARK    2  A    between atoms: C2_2  and  C3_11 
REMARK    3  A    between atoms: N1_3  and  S1_5 
REMARK    4  A    between atoms: S1_5  and  N2_6 
ROOT
HETATM    1  C3  UNL     1      -2.241  25.303  30.905  1.00  0.00     0.441 C 
HETATM    2  N3  UNL     1      -2.083  24.906  29.519  1.00  0.00    -0.040 N 
ATOM      3  H31 UNL     1      -2.939  24.479  29.164  1.00  0.00     0.279 HD
ATOM      4  H32 UNL     1      -1.452  24.109  29.440  1.00  0.00     0.279 HD
HETATM    5  C4  UNL     1      -1.658  25.979  28.666  1.00  0.00     0.262 C 
HETATM    6  C5  UNL     1      -2.269  25.879  27.275  1.00  0.00     0.260 C 
HETATM    7  N4  UNL     1      -2.722  27.137  26.773  1.00  0.00    -0.072 N 
ATOM      8  H41 UNL     1      -2.318  27.343  25.859  1.00  0.00     0.277 HD
ATOM      9  H42 UNL     1      -2.325  27.915  27.298  1.00  0.00     0.277 HD
HETATM   10  C6  UNL     1      -4.192  27.198  26.741  1.00  0.00     0.259 C 
HETATM   11  C7  UNL     1      -4.654  28.070  27.888  1.00  0.00     0.259 C 
HETATM   12  N5  UNL     1      -6.035  27.928  28.202  1.00  0.00    -0.074 N 
ATOM     13  H51 UNL     1      -6.592  27.828  27.353  1.00  0.00     0.277 HD
ATOM     14  H52 UNL     1      -6.421  28.805  28.552  1.00  0.00     0.277 HD
HETATM   15  C8  UNL     1      -6.302  26.831  29.134  1.00  0.00     0.232 C 
HETATM   16  C9  UNL     1      -5.817  27.200  30.475  1.00  0.00     0.029 C 
HETATM   17  C10 UNL     1      -5.323  26.114  31.346  1.00  0.00     0.032 C 
HETATM   18  C11 UNL     1      -4.551  25.029  30.681  1.00  0.00     0.275 C 
HETATM   19  N6  UNL     1      -3.381  24.612  31.432  1.00  0.00     0.117 N 
HETATM   20  C12 UNL     1      -3.553  24.734  32.850  1.00  0.00     0.312 C 
ENDROOT
BRANCH   1  21
HETATM   21  C2  UNL     1      -0.983  25.083  31.702  1.00  0.00     0.151 C 
HETATM   22  C1  UNL     1      -0.088  24.039  31.132  1.00  0.00     0.037 C 
BRANCH  21  23
HETATM   23  N1  UNL     1      -0.258  26.331  31.789  1.00  0.00    -0.295 N 
ATOM     24  H1  UNL     1      -0.276  27.056  31.073  1.00  0.00     0.174 HD
BRANCH  23  25
HETATM   25  S1  UNL     1       0.652  26.440  33.277  1.00  0.00     0.313 S 
HETATM   26  O1  UNL     1       2.082  26.056  33.063  1.00  0.00    -0.183 OA
HETATM   27  O2  UNL     1       0.623  27.846  33.809  1.00  0.00    -0.183 OA
BRANCH  25  28
HETATM   28  N2  UNL     1      -0.063  25.421  34.485  1.00  0.00    -0.312 N 
ATOM     29  H22 UNL     1      -0.472  24.506  34.294  1.00  0.00     0.170 HD
ATOM     30  H21 UNL     1      -0.010  25.872  35.397  1.00  0.00     0.170 HD
ENDBRANCH  25  28
ENDBRANCH  23  25
ENDBRANCH  21  23
ENDBRANCH   1  21
TORSDOF 4
ENDMDL
MODEL 3
REMARK VINA RESULT: -5.680890852      3.668      6.782
REMARK  4 active torsions:
REMARK  status: ('A' for Active; 'I' for Inactive)
REMARK    1  A    between atoms: C2_2  and  N1_3 
REMARK    2  A    between atoms: C2_2  and  C3_11 
REMARK    3  A    between atoms: N1_3  and  S1_5 
REMARK    4  A    between atoms: S1_5  and  N2_6 
ROOT
HETATM    1  C3  UNL     1      -1.501  25.975  32.447  1.00  0.00     0.441 C 
HETATM    2  N3  UNL     1      -0.526  26.584  33.332  1.00  0.00    -0.040 N 
ATOM      3  H31 UNL     1      -0.655  26.260  34.291  1.00  0.00     0.279 HD
ATOM      4  H32 UNL     1      -0.722  27.576  33.461  1.00  0.00     0.279 HD
HETATM    5  C4  UNL     1       0.829  26.384  32.906  1.00  0.00     0.262 C 
HETATM    6  C5  UNL     1       1.780  26.221  34.084  1.00  0.00     0.260 C 
HETATM    7  N4  UNL     1       2.735  25.177  33.890  1.00  0.00    -0.072 N 
ATOM      8  H41 UNL     1       3.690  25.513  34.018  1.00  0.00     0.277 HD
ATOM      9  H42 UNL     1       2.797  24.902  32.910  1.00  0.00     0.277 HD
HETATM   10  C6  UNL     1       2.446  24.025  34.759  1.00  0.00     0.259 C 
HETATM   11  C7  UNL     1       1.841  22.930  33.908  1.00  0.00     0.259 C 
HETATM   12  N5  UNL     1       1.184  21.913  34.656  1.00  0.00    -0.074 N 
ATOM     13  H51 UNL     1       1.700  21.698  35.509  1.00  0.00     0.277 HD
ATOM     14  H52 UNL     1       1.255  21.011  34.186  1.00  0.00     0.277 HD
HETATM   15  C8  UNL     1      -0.213  22.235  34.958  1.00  0.00     0.232 C 
HETATM   16  C9  UNL     1      -1.014  22.142  33.725  1.00  0.00     0.029 C 
HETATM   17  C10 UNL     1      -2.174  23.046  33.595  1.00  0.00     0.032 C 
HETATM   18  C11 UNL     1      -2.003  24.427  34.124  1.00  0.00     0.275 C 
HETATM   19  N6  UNL     1      -2.560  25.449  33.257  1.00  0.00     0.117 N 
HETATM   20  C12 UNL     1      -3.707  24.997  32.524  1.00  0.00     0.312 C 
ENDROOT
BRANCH   1  21
HETATM   21  C2  UNL     1      -1.975  26.934  31.386  1.00  0.00     0.151 C 
HETATM   22  C1  UNL     1      -1.943  28.360  31.811  1.00  0.00     0.037 C 
BRANCH  21  23
HETATM   23  N1  UNL     1      -1.153  26.774  30.208  1.00  0.00    -0.295 N 
ATOM     24  H1  UNL     1      -0.228  27.187  30.093  1.00  0.00     0.174 HD
BRANCH  23  25
HETATM   25  S1  UNL     1      -1.943  25.780  29.007  1.00  0.00     0.313 S 
HETATM   26  O1  UNL     1      -1.835  24.329  29.353  1.00  0.00    -0.183 OA
HETATM   27  O2  UNL     1      -3.402  26.129  28.915  1.00  0.00    -0.183 OA
BRANCH  25  28
HETATM   28  N2  UNL     1      -1.247  26.073  27.446  1.00  0.00    -0.312 N 
ATOM     29  H22 UNL     1      -1.289  25.416  26.667  1.00  0.00     0.170 HD
ATOM     30  H21 UNL     1      -0.798  26.988  27.430  1.00  0.00     0.170 HD
ENDBRANCH  25  28
ENDBRANCH  23  25
ENDBRANCH  21  23
ENDBRANCH   1  21
TORSDOF 4
ENDMDL
MODEL 4
REMARK VINA RESULT: -5.659039771      2.278      2.900
REMARK  4 active torsions:
REMARK  status: ('A' for Active; 'I' for Inactive)
REMARK    1  A    between atoms: C2_2  and  N1_3 
REMARK    2  A    between atoms: C2_2  and  C3_11 
REMARK    3  A    between atoms: N1_3  and  S1_5 
REMARK    4  A    between atoms: S1_5  and  N2_6 
ROOT
HETATM    1  C3  UNL     1      -1.021  24.260  32.734  1.00  0.00     0.441 C 
HETATM    2  N3  UNL     1      -1.234  23.774  31.384  1.00  0.00    -0.040 N 
ATOM      3  H31 UNL     1      -2.226  23.607  31.211  1.00  0.00     0.279 HD
ATOM      4  H32 UNL     1      -0.883  22.822  31.281  1.00  0.00     0.279 HD
HETATM    5  C4  UNL     1      -0.680  24.633  30.378  1.00  0.00     0.262 C 
HETATM    6  C5  UNL     1      -1.534  24.660  29.117  1.00  0.00     0.260 C 
HETATM    7  N4  UNL     1      -1.689  25.973  28.577  1.00  0.00    -0.072 N 
ATOM      8  H41 UNL     1      -1.413  26.010  27.595  1.00  0.00     0.277 HD
ATOM      9  H42 UNL     1      -0.998  26.620  28.957  1.00  0.00     0.277 HD
HETATM   10  C6  UNL     1      -3.061  26.469  28.773  1.00  0.00     0.259 C 
HETATM   11  C7  UNL     1      -3.040  27.488  29.891  1.00  0.00     0.259 C 
HETATM   12  N5  UNL     1      -4.325  27.778  30.432  1.00  0.00    -0.074 N 
ATOM     13  H51 UNL     1      -5.030  27.812  29.696  1.00  0.00     0.277 HD
ATOM     14  H52 UNL     1      -4.374  28.744  30.755  1.00  0.00     0.277 HD
HETATM   15  C8  UNL     1      -4.723  26.851  31.494  1.00  0.00     0.232 C 
HETATM   16  C9  UNL     1      -3.920  27.116  32.701  1.00  0.00     0.029 C 
HETATM   17  C10 UNL     1      -3.611  25.971  33.580  1.00  0.00     0.032 C 
HETATM   18  C11 UNL     1      -3.314  24.677  32.906  1.00  0.00     0.275 C 
HETATM   19  N6  UNL     1      -2.198  23.963  33.497  1.00  0.00     0.117 N 
HETATM   20  C12 UNL     1      -2.070  24.191  34.907  1.00  0.00     0.312 C 
ENDROOT
BRANCH   1  21
HETATM   21  C2  UNL     1       0.243  23.708  33.339  1.00  0.00     0.151 C 
HETATM   22  C1  UNL     1       0.542  22.309  32.928  1.00  0.00     0.037 C 
BRANCH  21  23
HETATM   23  N1  UNL     1       1.351  24.558  32.965  1.00  0.00    -0.295 N 
ATOM     24  H1  UNL     1       1.899  24.445  32.113  1.00  0.00     0.174 HD
BRANCH  23  25
HETATM   25  S1  UNL     1       1.632  25.803  34.158  1.00  0.00     0.313 S 
HETATM   26  O1  UNL     1       0.964  27.084  33.768  1.00  0.00    -0.183 OA
HETATM   27  O2  UNL     1       1.087  25.383  35.495  1.00  0.00    -0.183 OA
BRANCH  25  28
HETATM   28  N2  UNL     1       3.336  26.058  34.357  1.00  0.00    -0.312 N 
ATOM     29  H22 UNL     1       3.847  26.851  33.968  1.00  0.00     0.170 HD
ATOM     30  H21 UNL     1       3.738  25.305  34.914  1.00  0.00     0.170 HD
ENDBRANCH  25  28
ENDBRANCH  23  25
ENDBRANCH  21  23
ENDBRANCH   1  21
TORSDOF 4
ENDMDL
MODEL 5
REMARK VINA RESULT: -5.644812402      1.532      1.872
REMARK  4 active torsions:
REMARK  status: ('A' for Active; 'I' for Inactive)
REMARK    1  A    between atoms: C2_2  and  N1_3 
REMARK    2  A    between atoms: C2_2  and  C3_11 
REMARK    3  A    between atoms: N1_3  and  S1_5 
REMARK    4  A    between atoms: S1_5  and  N2_6 
ROOT
HETATM    1  C3  UNL     1      -1.907  24.431  31.068  1.00  0.00     0.441 C 
HETATM    2  N3  UNL     1      -1.800  24.309  29.626  1.00  0.00    -0.040 N 
ATOM      3  H31 UNL     1      -2.672  23.963  29.226  1.00  0.00     0.279 HD
ATOM      4  H32 UNL     1      -1.180  23.540  29.372  1.00  0.00     0.279 HD
HETATM    5  C4  UNL     1      -1.391  25.525  28.983  1.00  0.00     0.262 C 
HETATM    6  C5  UNL     1      -2.050  25.698  27.620  1.00  0.00     0.260 C 
HETATM    7  N4  UNL     1      -2.506  27.032  27.387  1.00  0.00    -0.072 N 
ATOM      8  H41 UNL     1      -2.130  27.410  26.517  1.00  0.00     0.277 HD
ATOM      9  H42 UNL     1      -2.082  27.693  28.039  1.00  0.00     0.277 HD
HETATM   10  C6  UNL     1      -3.975  27.105  27.420  1.00  0.00     0.259 C 
HETATM   11  C7  UNL     1      -4.389  27.740  28.729  1.00  0.00     0.259 C 
HETATM   12  N5  UNL     1      -5.760  27.546  29.057  1.00  0.00    -0.074 N 
ATOM     13  H51 UNL     1      -6.346  27.615  28.226  1.00  0.00     0.277 HD
ATOM     14  H52 UNL     1      -6.124  28.340  29.584  1.00  0.00     0.277 HD
HETATM   15  C8  UNL     1      -6.007  26.290  29.769  1.00  0.00     0.232 C 
HETATM   16  C9  UNL     1      -5.474  26.391  31.138  1.00  0.00     0.029 C 
HETATM   17  C10 UNL     1      -4.964  25.154  31.764  1.00  0.00     0.032 C 
HETATM   18  C11 UNL     1      -4.226  24.215  30.875  1.00  0.00     0.275 C 
HETATM   19  N6  UNL     1      -3.036  23.656  31.490  1.00  0.00     0.117 N 
HETATM   20  C12 UNL     1      -3.159  23.501  32.910  1.00  0.00     0.312 C 
ENDROOT
BRANCH   1  21
HETATM   21  C2  UNL     1      -0.625  24.055  31.762  1.00  0.00     0.151 C 
HETATM   22  C1  UNL     1       0.132  22.972  31.077  1.00  0.00     0.037 C 
BRANCH  21  23
HETATM   23  N1  UNL     1       0.214  25.227  31.864  1.00  0.00    -0.295 N 
ATOM     24  H1  UNL     1       0.358  25.898  31.110  1.00  0.00     0.174 HD
BRANCH  23  25
HETATM   25  S1  UNL     1       0.951  25.351  33.444  1.00  0.00     0.313 S 
HETATM   26  O1  UNL     1       2.435  25.501  33.336  1.00  0.00    -0.183 OA
HETATM   27  O2  UNL     1       0.416  26.547  34.181  1.00  0.00    -0.183 OA
BRANCH  25  28
HETATM   28  N2  UNL     1       0.562  23.950  34.390  1.00  0.00    -0.312 N 
ATOM     29  H22 UNL     1      -0.180  23.290  34.159  1.00  0.00     0.170 HD
ATOM     30  H21 UNL     1       1.181  23.893  35.198  1.00  0.00     0.170 HD
ENDBRANCH  25  28
ENDBRANCH  23  25
ENDBRANCH  21  23
ENDBRANCH   1  21
TORSDOF 4
ENDMDL
