MODEL 1
REMARK VINA RESULT: -5.890423923      0.000      0.000
REMARK  2 active torsions:
REMARK  status: ('A' for Active; 'I' for Inactive)
REMARK    1  A    between atoms: N1_3  and  C3_5 
REMARK    2  A    between atoms: C3_5  and  C5_13 
REMARK       I    between atoms: N2_6  and  C4_8 
REMARK       I    between atoms: C5_13  and  N5_15 
ROOT
HETATM    1  C1  UNL     1       1.786  29.263  26.969  1.00  0.00     0.037 C 
HETATM    2  C2  UNL     1       0.610  29.049  26.778  1.00  0.00     0.001 C 
HETATM    3  N1  UNL     1      -0.746  28.815  26.580  1.00  0.00    -0.297 N 
ATOM      4  H1  UNL     1      -1.304  29.550  26.146  1.00  0.00     0.178 HD
ENDROOT
BRANCH   3   5
HETATM    5  C3  UNL     1      -1.386  27.620  26.946  1.00  0.00     0.185 C 
HETATM    6  N2  UNL     1      -1.757  26.787  26.078  1.00  0.00    -0.312 N 
HETATM    7  C4  UNL     1      -1.599  26.907  24.678  1.00  0.00     0.187 C 
ATOM      8  H2  UNL     1      -2.216  25.942  26.418  1.00  0.00     0.170 HD
HETATM    9  N3  UNL     1      -0.556  26.533  24.027  1.00  0.00    -0.373 N 
HETATM   10  N4  UNL     1      -2.674  27.484  23.945  1.00  0.00    -0.064 NA
ATOM     11  H32 UNL     1       0.215  26.120  24.552  1.00  0.00     0.158 HD
ATOM     12  H31 UNL     1      -0.442  26.619  23.017  1.00  0.00     0.158 HD
BRANCH   5  13
HETATM   13  C5  UNL     1      -1.627  27.337  28.343  1.00  0.00     0.299 C 
HETATM   14  O1  UNL     1      -1.183  26.273  28.829  1.00  0.00    -0.263 OA
HETATM   15  N5  UNL     1      -2.358  28.243  29.174  1.00  0.00    -0.257 N 
HETATM   16  C6  UNL     1      -2.573  27.945  30.514  1.00  0.00     0.184 C 
ATOM     17  H5  UNL     1      -2.721  29.112  28.782  1.00  0.00     0.181 HD
HETATM   18  N6  UNL     1      -2.735  27.699  31.639  1.00  0.00    -0.172 NA
ENDBRANCH   5  13
ENDBRANCH   3   5
TORSDOF 2
ENDMDL
MODEL 2
REMARK VINA RESULT: -5.534520452      1.360      1.407
REMARK  2 active torsions:
REMARK  status: ('A' for Active; 'I' for Inactive)
REMARK    1  A    between atoms: N1_3  and  C3_5 
REMARK    2  A    between atoms: C3_5  and  C5_13 
REMARK       I    between atoms: N2_6  and  C4_8 
REMARK       I    between atoms: C5_13  and  N5_15 
ROOT
HETATM    1  C1  UNL     1       2.083  29.432  26.919  1.00  0.00     0.037 C 
HETATM    2  C2  UNL     1       1.248  28.557  26.884  1.00  0.00     0.001 C 
HETATM    3  N1  UNL     1       0.293  27.549  26.820  1.00  0.00    -0.297 N 
ATOM      4  H1  UNL     1       0.608  26.581  26.878  1.00  0.00     0.178 HD
ENDROOT
BRANCH   3   5
HETATM    5  C3  UNL     1      -1.082  27.794  26.678  1.00  0.00     0.185 C 
HETATM    6  N2  UNL     1      -1.648  27.701  25.557  1.00  0.00    -0.312 N 
HETATM    7  C4  UNL     1      -1.033  27.357  24.332  1.00  0.00     0.187 C 
ATOM      8  H2  UNL     1      -2.650  27.894  25.530  1.00  0.00     0.170 HD
HETATM    9  N3  UNL     1      -0.869  26.153  23.911  1.00  0.00    -0.373 N 
HETATM   10  N4  UNL     1      -0.564  28.422  23.513  1.00  0.00    -0.064 NA
ATOM     11  H32 UNL     1      -1.204  25.390  24.497  1.00  0.00     0.158 HD
ATOM     12  H31 UNL     1      -0.425  25.905  23.026  1.00  0.00     0.158 HD
BRANCH   5  13
HETATM   13  C5  UNL     1      -1.867  28.158  27.836  1.00  0.00     0.299 C 
HETATM   14  O1  UNL     1      -2.597  29.173  27.776  1.00  0.00    -0.263 OA
HETATM   15  N5  UNL     1      -1.825  27.388  29.040  1.00  0.00    -0.257 N 
HETATM   16  C6  UNL     1      -2.590  27.762  30.137  1.00  0.00     0.184 C 
ATOM     17  H5  UNL     1      -1.230  26.560  29.093  1.00  0.00     0.181 HD
HETATM   18  N6  UNL     1      -3.247  28.069  31.046  1.00  0.00    -0.172 NA
ENDBRANCH   5  13
ENDBRANCH   3   5
TORSDOF 2
ENDMDL
MODEL 3
REMARK VINA RESULT: -5.529893260      1.229      1.229
REMARK  2 active torsions:
REMARK  status: ('A' for Active; 'I' for Inactive)
REMARK    1  A    between atoms: N1_3  and  C3_5 
REMARK    2  A    between atoms: C3_5  and  C5_13 
REMARK       I    between atoms: N2_6  and  C4_8 
REMARK       I    between atoms: C5_13  and  N5_15 
ROOT
HETATM    1  C1  UNL     1       2.164  29.088  27.296  1.00  0.00     0.037 C 
HETATM    2  C2  UNL     1       1.028  29.096  26.877  1.00  0.00     0.001 C 
HETATM    3  N1  UNL     1      -0.283  29.111  26.419  1.00  0.00    -0.297 N 
ATOM      4  H1  UNL     1      -0.676  30.001  26.110  1.00  0.00     0.178 HD
ENDROOT
BRANCH   3   5
HETATM    5  C3  UNL     1      -1.096  27.968  26.359  1.00  0.00     0.185 C 
HETATM    6  N2  UNL     1      -1.085  27.213  25.351  1.00  0.00    -0.312 N 
HETATM    7  C4  UNL     1      -0.302  27.378  24.187  1.00  0.00     0.187 C 
ATOM      8  H2  UNL     1      -1.703  26.401  25.379  1.00  0.00     0.170 HD
HETATM    9  N3  UNL     1       0.897  26.936  24.045  1.00  0.00    -0.373 N 
HETATM   10  N4  UNL     1      -0.887  28.086  23.100  1.00  0.00    -0.064 NA
ATOM     11  H32 UNL     1       1.316  26.429  24.824  1.00  0.00     0.158 HD
ATOM     12  H31 UNL     1       1.462  27.056  23.204  1.00  0.00     0.158 HD
BRANCH   5  13
HETATM   13  C5  UNL     1      -1.963  27.648  27.471  1.00  0.00     0.299 C 
HETATM   14  O1  UNL     1      -2.689  26.631  27.398  1.00  0.00    -0.263 OA
HETATM   15  N5  UNL     1      -2.005  28.464  28.644  1.00  0.00    -0.257 N 
HETATM   16  C6  UNL     1      -2.848  28.132  29.698  1.00  0.00     0.184 C 
ATOM     17  H5  UNL     1      -1.415  29.294  28.708  1.00  0.00     0.181 HD
HETATM   18  N6  UNL     1      -3.541  27.838  30.584  1.00  0.00    -0.172 NA
ENDBRANCH   5  13
ENDBRANCH   3   5
TORSDOF 2
ENDMDL
MODEL 4
REMARK VINA RESULT: -5.470187334      1.163      1.163
REMARK  2 active torsions:
REMARK  status: ('A' for Active; 'I' for Inactive)
REMARK    1  A    between atoms: N1_3  and  C3_5 
REMARK    2  A    between atoms: C3_5  and  C5_13 
REMARK       I    between atoms: N2_6  and  C4_8 
REMARK       I    between atoms: C5_13  and  N5_15 
ROOT
HETATM    1  C1  UNL     1       1.215  29.357  26.877  1.00  0.00     0.037 C 
HETATM    2  C2  UNL     1       0.083  28.971  26.690  1.00  0.00     0.001 C 
HETATM    3  N1  UNL     1      -1.222  28.533  26.500  1.00  0.00    -0.297 N 
ATOM      4  H1  UNL     1      -1.926  29.219  26.227  1.00  0.00     0.178 HD
ENDROOT
BRANCH   3   5
HETATM    5  C3  UNL     1      -1.623  27.198  26.663  1.00  0.00     0.185 C 
HETATM    6  N2  UNL     1      -1.676  26.409  25.682  1.00  0.00    -0.312 N 
HETATM    7  C4  UNL     1      -1.362  26.717  24.339  1.00  0.00     0.187 C 
ATOM      8  H2  UNL     1      -1.977  25.454  25.877  1.00  0.00     0.170 HD
HETATM    9  N3  UNL     1      -0.183  26.646  23.831  1.00  0.00    -0.373 N 
HETATM   10  N4  UNL     1      -2.429  27.135  23.496  1.00  0.00    -0.064 NA
ATOM     11  H32 UNL     1       0.582  26.346  24.435  1.00  0.00     0.158 HD
ATOM     12  H31 UNL     1       0.044  26.868  22.862  1.00  0.00     0.158 HD
BRANCH   5  13
HETATM   13  C5  UNL     1      -1.981  26.714  27.977  1.00  0.00     0.299 C 
HETATM   14  O1  UNL     1      -1.073  26.322  28.744  1.00  0.00    -0.263 OA
HETATM   15  N5  UNL     1      -3.342  26.676  28.414  1.00  0.00    -0.257 N 
HETATM   16  C6  UNL     1      -3.656  26.206  29.684  1.00  0.00     0.184 C 
ATOM     17  H5  UNL     1      -4.084  26.994  27.792  1.00  0.00     0.181 HD
HETATM   18  N6  UNL     1      -3.911  25.830  30.753  1.00  0.00    -0.172 NA
ENDBRANCH   5  13
ENDBRANCH   3   5
TORSDOF 2
ENDMDL
MODEL 5
REMARK VINA RESULT: -5.450667708      1.581      3.075
REMARK  2 active torsions:
REMARK  status: ('A' for Active; 'I' for Inactive)
REMARK    1  A    between atoms: N1_3  and  C3_5 
REMARK    2  A    between atoms: C3_5  and  C5_13 
REMARK       I    between atoms: N2_6  and  C4_8 
REMARK       I    between atoms: C5_13  and  N5_15 
ROOT
HETATM    1  C1  UNL     1      -2.379  27.157  24.071  1.00  0.00     0.037 C 
HETATM    2  C2  UNL     1      -1.875  26.986  25.158  1.00  0.00     0.001 C 
HETATM    3  N1  UNL     1      -1.318  26.782  26.414  1.00  0.00    -0.297 N 
ATOM      4  H1  UNL     1      -1.000  25.843  26.654  1.00  0.00     0.178 HD
ENDROOT
BRANCH   3   5
HETATM    5  C3  UNL     1      -1.171  27.799  27.371  1.00  0.00     0.185 C 
HETATM    6  N2  UNL     1      -0.154  28.541  27.382  1.00  0.00    -0.312 N 
HETATM    7  C4  UNL     1       0.940  28.479  26.490  1.00  0.00     0.187 C 
ATOM      8  H2  UNL     1      -0.117  29.258  28.107  1.00  0.00     0.170 HD
HETATM    9  N3  UNL     1       0.993  29.084  25.356  1.00  0.00    -0.373 N 
HETATM   10  N4  UNL     1       2.057  27.688  26.878  1.00  0.00    -0.064 NA
ATOM     11  H32 UNL     1       0.192  29.651  25.078  1.00  0.00     0.158 HD
ATOM     12  H31 UNL     1       1.783  29.039  24.713  1.00  0.00     0.158 HD
BRANCH   5  13
HETATM   13  C5  UNL     1      -2.203  28.002  28.362  1.00  0.00     0.299 C 
HETATM   14  O1  UNL     1      -3.257  28.588  28.027  1.00  0.00    -0.263 OA
HETATM   15  N5  UNL     1      -2.045  27.549  29.710  1.00  0.00    -0.257 N 
HETATM   16  C6  UNL     1      -3.055  27.757  30.642  1.00  0.00     0.184 C 
ATOM     17  H5  UNL     1      -1.188  27.070  29.987  1.00  0.00     0.181 HD
HETATM   18  N6  UNL     1      -3.910  27.918  31.412  1.00  0.00    -0.172 NA
ENDBRANCH   5  13
ENDBRANCH   3   5
TORSDOF 2
ENDMDL
