MODEL 1
REMARK VINA RESULT: -5.465259773      0.000      0.000
REMARK  3 active torsions:
REMARK  status: ('A' for Active; 'I' for Inactive)
REMARK    1  A    between atoms: C1_4  and  N2_5 
REMARK    2  A    between atoms: C1_4  and  C3_10 
REMARK    3  A    between atoms: N2_5  and  C2_7 
ROOT
HETATM    1  N1  UNL     1      -1.537  28.270  28.363  1.00  0.00    -0.382 N 
ATOM      2  H11 UNL     1      -2.324  27.626  28.436  1.00  0.00     0.157 HD
ATOM      3  H12 UNL     1      -1.191  28.745  29.196  1.00  0.00     0.157 HD
HETATM    4  C1  UNL     1      -0.992  28.479  27.235  1.00  0.00     0.146 C 
ENDROOT
BRANCH   4   5
HETATM    5  N2  UNL     1       0.097  29.371  27.133  1.00  0.00    -0.319 N 
ATOM      6  H2  UNL     1      -0.095  30.364  27.262  1.00  0.00     0.169 HD
BRANCH   5   7
HETATM    7  C2  UNL     1       1.421  28.997  26.868  1.00  0.00     0.186 C 
HETATM    8  N3  UNL     1       2.328  28.737  27.906  1.00  0.00    -0.070 NA
HETATM    9  S1  UNL     1       1.923  28.862  25.336  1.00  0.00    -0.044 SA
ENDBRANCH   5   7
ENDBRANCH   4   5
BRANCH   4  10
HETATM   10  C3  UNL     1      -1.482  27.808  26.056  1.00  0.00     0.157 A 
HETATM   11  N4  UNL     1      -1.854  28.135  24.849  1.00  0.00    -0.291 N 
HETATM   12  C4  UNL     1      -2.174  26.853  24.389  1.00  0.00     0.327 A 
ATOM     13  H4  UNL     1      -1.897  29.043  24.385  1.00  0.00     0.172 HD
HETATM   14  O1  UNL     1      -2.606  26.340  23.320  1.00  0.00    -0.247 OA
HETATM   15  N5  UNL     1      -1.780  26.452  25.689  1.00  0.00    -0.291 N 
ATOM     16  H5  UNL     1      -1.728  25.555  26.173  1.00  0.00     0.172 HD
ENDBRANCH   4  10
TORSDOF 3
ENDMDL
MODEL 2
REMARK VINA RESULT: -5.258008432      3.375      4.727
REMARK  3 active torsions:
REMARK  status: ('A' for Active; 'I' for Inactive)
REMARK    1  A    between atoms: C1_4  and  N2_5 
REMARK    2  A    between atoms: C1_4  and  C3_10 
REMARK    3  A    between atoms: N2_5  and  C2_7 
ROOT
HETATM    1  N1  UNL     1      -1.267  26.041  27.611  1.00  0.00    -0.382 N 
ATOM      2  H11 UNL     1      -0.376  25.672  27.944  1.00  0.00     0.157 HD
ATOM      3  H12 UNL     1      -2.123  25.503  27.751  1.00  0.00     0.157 HD
HETATM    4  C1  UNL     1      -1.308  27.166  27.024  1.00  0.00     0.146 C 
ENDROOT
BRANCH   4   5
HETATM    5  N2  UNL     1      -2.540  27.677  26.563  1.00  0.00    -0.319 N 
ATOM      6  H2  UNL     1      -2.687  28.683  26.633  1.00  0.00     0.169 HD
BRANCH   5   7
HETATM    7  C2  UNL     1      -3.576  26.908  26.016  1.00  0.00     0.186 C 
HETATM    8  N3  UNL     1      -3.325  25.938  25.035  1.00  0.00    -0.070 NA
HETATM    9  S1  UNL     1      -5.095  27.139  26.520  1.00  0.00    -0.044 SA
ENDBRANCH   5   7
ENDBRANCH   4   5
BRANCH   4  10
HETATM   10  C3  UNL     1      -0.097  27.925  26.825  1.00  0.00     0.157 A 
HETATM   11  N4  UNL     1       0.380  29.084  27.188  1.00  0.00    -0.291 N 
HETATM   12  C4  UNL     1       1.618  28.996  26.543  1.00  0.00     0.327 A 
ATOM     13  H4  UNL     1      -0.023  29.824  27.764  1.00  0.00     0.172 HD
HETATM   14  O1  UNL     1       2.644  29.721  26.417  1.00  0.00    -0.247 OA
HETATM   15  N5  UNL     1       1.141  27.730  26.125  1.00  0.00    -0.291 N 
ATOM     16  H5  UNL     1       1.525  26.978  25.553  1.00  0.00     0.172 HD
ENDBRANCH   4  10
TORSDOF 3
ENDMDL
MODEL 3
REMARK VINA RESULT: -5.202956174      3.372      4.878
REMARK  3 active torsions:
REMARK  status: ('A' for Active; 'I' for Inactive)
REMARK    1  A    between atoms: C1_4  and  N2_5 
REMARK    2  A    between atoms: C1_4  and  C3_10 
REMARK    3  A    between atoms: N2_5  and  C2_7 
ROOT
HETATM    1  N1  UNL     1      -1.633  28.299  24.131  1.00  0.00    -0.382 N 
ATOM      2  H11 UNL     1      -0.762  28.492  23.637  1.00  0.00     0.157 HD
ATOM      3  H12 UNL     1      -2.500  28.188  23.606  1.00  0.00     0.157 HD
HETATM    4  C1  UNL     1      -1.635  28.199  25.397  1.00  0.00     0.146 C 
ENDROOT
BRANCH   4   5
HETATM    5  N2  UNL     1      -2.840  27.933  26.082  1.00  0.00    -0.319 N 
ATOM      6  H2  UNL     1      -3.198  28.659  26.702  1.00  0.00     0.169 HD
BRANCH   5   7
HETATM    7  C2  UNL     1      -3.581  26.749  25.976  1.00  0.00     0.186 C 
HETATM    8  N3  UNL     1      -3.301  25.799  24.984  1.00  0.00    -0.070 NA
HETATM    9  S1  UNL     1      -4.787  26.465  27.015  1.00  0.00    -0.044 SA
ENDBRANCH   5   7
ENDBRANCH   4   5
BRANCH   4  10
HETATM   10  C3  UNL     1      -0.408  28.358  26.140  1.00  0.00     0.157 A 
HETATM   11  N4  UNL     1       0.021  29.067  27.148  1.00  0.00    -0.291 N 
HETATM   12  C4  UNL     1       1.330  28.577  27.188  1.00  0.00     0.327 A 
ATOM     13  H4  UNL     1      -0.452  29.762  27.726  1.00  0.00     0.172 HD
HETATM   14  O1  UNL     1       2.364  28.772  27.885  1.00  0.00    -0.247 OA
HETATM   15  N5  UNL     1       0.909  27.787  26.091  1.00  0.00    -0.291 N 
ATOM     16  H5  UNL     1       1.362  27.089  25.500  1.00  0.00     0.172 HD
ENDBRANCH   4  10
TORSDOF 3
ENDMDL
MODEL 4
REMARK VINA RESULT: -5.152804622      3.071      4.262
REMARK  3 active torsions:
REMARK  status: ('A' for Active; 'I' for Inactive)
REMARK    1  A    between atoms: C1_4  and  N2_5 
REMARK    2  A    between atoms: C1_4  and  C3_10 
REMARK    3  A    between atoms: N2_5  and  C2_7 
ROOT
HETATM    1  N1  UNL     1      -1.994  28.314  28.791  1.00  0.00    -0.382 N 
ATOM      2  H11 UNL     1      -1.374  29.091  29.021  1.00  0.00     0.157 HD
ATOM      3  H12 UNL     1      -2.731  28.042  29.442  1.00  0.00     0.157 HD
HETATM    4  C1  UNL     1      -1.847  27.689  27.696  1.00  0.00     0.146 C 
ENDROOT
BRANCH   4   5
HETATM    5  N2  UNL     1      -2.704  26.615  27.376  1.00  0.00    -0.319 N 
ATOM      6  H2  UNL     1      -2.665  25.789  27.973  1.00  0.00     0.169 HD
BRANCH   5   7
HETATM    7  C2  UNL     1      -3.603  26.594  26.302  1.00  0.00     0.186 C 
HETATM    8  N3  UNL     1      -3.238  26.070  25.054  1.00  0.00    -0.070 NA
HETATM    9  S1  UNL     1      -5.096  27.188  26.497  1.00  0.00    -0.044 SA
ENDBRANCH   5   7
ENDBRANCH   4   5
BRANCH   4  10
HETATM   10  C3  UNL     1      -0.805  28.074  26.775  1.00  0.00     0.157 A 
HETATM   11  N4  UNL     1       0.056  29.046  26.650  1.00  0.00    -0.291 N 
HETATM   12  C4  UNL     1       0.669  28.614  25.469  1.00  0.00     0.327 A 
ATOM     13  H4  UNL     1       0.229  29.866  27.232  1.00  0.00     0.172 HD
HETATM   14  O1  UNL     1       1.595  29.017  24.712  1.00  0.00    -0.247 OA
HETATM   15  N5  UNL     1      -0.248  27.539  25.564  1.00  0.00    -0.291 N 
ATOM     16  H5  UNL     1      -0.438  26.712  24.997  1.00  0.00     0.172 HD
ENDBRANCH   4  10
TORSDOF 3
ENDMDL
MODEL 5
REMARK VINA RESULT: -5.097158802      1.598      2.041
REMARK  3 active torsions:
REMARK  status: ('A' for Active; 'I' for Inactive)
REMARK    1  A    between atoms: C1_4  and  N2_5 
REMARK    2  A    between atoms: C1_4  and  C3_10 
REMARK    3  A    between atoms: N2_5  and  C2_7 
ROOT
HETATM    1  N1  UNL     1      -1.768  29.998  27.262  1.00  0.00    -0.382 N 
ATOM      2  H11 UNL     1      -2.777  29.986  27.409  1.00  0.00     0.157 HD
ATOM      3  H12 UNL     1      -1.220  30.801  27.571  1.00  0.00     0.157 HD
HETATM    4  C1  UNL     1      -1.198  29.016  26.694  1.00  0.00     0.146 C 
ENDROOT
BRANCH   4   5
HETATM    5  N2  UNL     1       0.198  29.033  26.490  1.00  0.00    -0.319 N 
ATOM      6  H2  UNL     1       0.778  29.410  27.239  1.00  0.00     0.169 HD
BRANCH   5   7
HETATM    7  C2  UNL     1       0.849  28.571  25.338  1.00  0.00     0.186 C 
HETATM    8  N3  UNL     1       0.245  28.655  24.075  1.00  0.00    -0.070 NA
HETATM    9  S1  UNL     1       2.328  27.926  25.458  1.00  0.00    -0.044 SA
ENDBRANCH   5   7
ENDBRANCH   4   5
BRANCH   4  10
HETATM   10  C3  UNL     1      -1.973  27.881  26.255  1.00  0.00     0.157 A 
HETATM   11  N4  UNL     1      -2.420  26.767  26.767  1.00  0.00    -0.291 N 
HETATM   12  C4  UNL     1      -3.072  26.278  25.630  1.00  0.00     0.327 A 
ATOM     13  H4  UNL     1      -2.324  26.375  27.704  1.00  0.00     0.172 HD
HETATM   14  O1  UNL     1      -3.743  25.254  25.323  1.00  0.00    -0.247 OA
HETATM   15  N5  UNL     1      -2.608  27.475  25.033  1.00  0.00    -0.291 N 
ATOM     16  H5  UNL     1      -2.691  27.886  24.103  1.00  0.00     0.172 HD
ENDBRANCH   4  10
TORSDOF 3
ENDMDL
