MODEL 1
REMARK VINA RESULT: -5.658882804      0.000      0.000
REMARK  3 active torsions:
REMARK  status: ('A' for Active; 'I' for Inactive)
REMARK    1  A    between atoms: N1_1  and  N2_4 
REMARK       I    between atoms: N2_4  and  C1_6 
REMARK    2  A    between atoms: C1_6  and  C2_8 
REMARK       I    between atoms: C2_8  and  N3_10 
REMARK    3  A    between atoms: N3_10  and  C3_12 
ROOT
HETATM    1  C2  UNL     1      -1.699  26.836  24.320  1.00  0.00     0.329 C 
HETATM    2  O2  UNL     1      -2.589  27.159  23.472  1.00  0.00    -0.261 OA
HETATM    3  N3  UNL     1      -2.079  25.925  25.341  1.00  0.00    -0.151 N 
ATOM      4  H3  UNL     1      -2.262  24.951  25.101  1.00  0.00     0.188 HD
ENDROOT
BRANCH   1   5
HETATM    5  C1  UNL     1      -0.375  27.400  24.200  1.00  0.00     0.328 C 
HETATM    6  N2  UNL     1       0.021  28.493  25.000  1.00  0.00    -0.268 N 
ATOM      7  H2  UNL     1      -0.629  28.897  25.675  1.00  0.00     0.190 HD
HETATM    8  O1  UNL     1       0.425  26.895  23.363  1.00  0.00    -0.261 OA
BRANCH   6   9
HETATM    9  N1  UNL     1       1.316  29.021  24.862  1.00  0.00    -0.342 N 
ATOM     10  H12 UNL     1       1.651  29.703  25.543  1.00  0.00     0.176 HD
ATOM     11  H11 UNL     1       1.905  28.719  24.086  1.00  0.00     0.176 HD
ENDBRANCH   6   9
ENDBRANCH   1   5
BRANCH   3  12
HETATM   12  C3  UNL     1      -2.199  26.314  26.587  1.00  0.00     0.684 A 
HETATM   13  N4  UNL     1      -3.292  26.845  27.154  1.00  0.00    -0.200 N 
HETATM   14  C4  UNL     1      -3.029  27.120  28.455  1.00  0.00     0.123 A 
ATOM     15  H4  UNL     1      -4.180  27.016  26.681  1.00  0.00     0.183 HD
HETATM   16  C5  UNL     1      -1.724  26.733  28.662  1.00  0.00     0.123 A 
HETATM   17  N5  UNL     1      -1.227  26.241  27.507  1.00  0.00    -0.200 N 
ATOM     18  H5  UNL     1      -0.285  25.880  27.361  1.00  0.00     0.183 HD
ENDBRANCH   3  12
TORSDOF 3
ENDMDL
MODEL 2
REMARK VINA RESULT: -5.646180009      0.034      1.053
REMARK  3 active torsions:
REMARK  status: ('A' for Active; 'I' for Inactive)
REMARK    1  A    between atoms: N1_1  and  N2_4 
REMARK       I    between atoms: N2_4  and  C1_6 
REMARK    2  A    between atoms: C1_6  and  C2_8 
REMARK       I    between atoms: C2_8  and  N3_10 
REMARK    3  A    between atoms: N3_10  and  C3_12 
ROOT
HETATM    1  C2  UNL     1      -1.698  26.834  24.315  1.00  0.00     0.329 C 
HETATM    2  O2  UNL     1      -2.590  27.169  23.473  1.00  0.00    -0.261 OA
HETATM    3  N3  UNL     1      -2.077  25.913  25.327  1.00  0.00    -0.151 N 
ATOM      4  H3  UNL     1      -2.263  24.942  25.076  1.00  0.00     0.188 HD
ENDROOT
BRANCH   1   5
HETATM    5  C1  UNL     1      -0.374  27.397  24.197  1.00  0.00     0.328 C 
HETATM    6  N2  UNL     1       0.021  28.492  24.995  1.00  0.00    -0.268 N 
ATOM      7  H2  UNL     1      -0.631  28.898  25.667  1.00  0.00     0.190 HD
HETATM    8  O1  UNL     1       0.429  26.889  23.364  1.00  0.00    -0.261 OA
BRANCH   6   9
HETATM    9  N1  UNL     1       1.316  29.019  24.860  1.00  0.00    -0.342 N 
ATOM     10  H12 UNL     1       1.856  28.805  24.022  1.00  0.00     0.176 HD
ATOM     11  H11 UNL     1       1.701  29.608  25.598  1.00  0.00     0.176 HD
ENDBRANCH   6   9
ENDBRANCH   1   5
BRANCH   3  12
HETATM   12  C3  UNL     1      -2.192  26.288  26.578  1.00  0.00     0.684 A 
HETATM   13  N4  UNL     1      -1.232  26.246  27.513  1.00  0.00    -0.200 N 
HETATM   14  C4  UNL     1      -1.731  26.717  28.682  1.00  0.00     0.123 A 
ATOM     15  H4  UNL     1      -0.279  25.914  27.368  1.00  0.00     0.183 HD
HETATM   16  C5  UNL     1      -3.042  27.049  28.422  1.00  0.00     0.123 A 
HETATM   17  N5  UNL     1      -3.311  26.780  27.127  1.00  0.00    -0.200 N 
ATOM     18  H5  UNL     1      -4.203  26.924  26.654  1.00  0.00     0.183 HD
ENDBRANCH   3  12
TORSDOF 3
ENDMDL
MODEL 3
REMARK VINA RESULT: -5.501882311      1.882      3.880
REMARK  3 active torsions:
REMARK  status: ('A' for Active; 'I' for Inactive)
REMARK    1  A    between atoms: N1_1  and  N2_4 
REMARK       I    between atoms: N2_4  and  C1_6 
REMARK    2  A    between atoms: C1_6  and  C2_8 
REMARK       I    between atoms: C2_8  and  N3_10 
REMARK    3  A    between atoms: N3_10  and  C3_12 
ROOT
HETATM    1  C2  UNL     1      -2.299  27.269  24.560  1.00  0.00     0.329 C 
HETATM    2  O2  UNL     1      -2.330  26.452  23.586  1.00  0.00    -0.261 OA
HETATM    3  N3  UNL     1      -1.366  28.337  24.479  1.00  0.00    -0.151 N 
ATOM      4  H3  UNL     1      -1.520  29.085  23.803  1.00  0.00     0.188 HD
ENDROOT
BRANCH   1   5
HETATM    5  C1  UNL     1      -3.196  27.070  25.673  1.00  0.00     0.328 C 
HETATM    6  N2  UNL     1      -2.702  26.731  26.951  1.00  0.00    -0.268 N 
ATOM      7  H2  UNL     1      -1.699  26.622  27.100  1.00  0.00     0.190 HD
HETATM    8  O1  UNL     1      -4.438  27.207  25.482  1.00  0.00    -0.261 OA
BRANCH   6   9
HETATM    9  N1  UNL     1      -3.600  26.544  28.016  1.00  0.00    -0.342 N 
ATOM     10  H12 UNL     1      -3.910  27.353  28.553  1.00  0.00     0.176 HD
ATOM     11  H11 UNL     1      -3.929  25.605  28.239  1.00  0.00     0.176 HD
ENDBRANCH   6   9
ENDBRANCH   1   5
BRANCH   3  12
HETATM   12  C3  UNL     1      -0.312  28.379  25.257  1.00  0.00     0.684 A 
HETATM   13  N4  UNL     1      -0.184  29.091  26.386  1.00  0.00    -0.200 N 
HETATM   14  C4  UNL     1       1.048  28.876  26.909  1.00  0.00     0.123 A 
ATOM     15  H4  UNL     1      -0.899  29.698  26.787  1.00  0.00     0.183 HD
HETATM   16  C5  UNL     1       1.671  27.998  26.050  1.00  0.00     0.123 A 
HETATM   17  N5  UNL     1       0.824  27.702  25.040  1.00  0.00    -0.200 N 
ATOM     18  H5  UNL     1       1.015  27.079  24.257  1.00  0.00     0.183 HD
ENDBRANCH   3  12
TORSDOF 3
ENDMDL
MODEL 4
REMARK VINA RESULT: -5.488982926      1.884      3.949
REMARK  3 active torsions:
REMARK  status: ('A' for Active; 'I' for Inactive)
REMARK    1  A    between atoms: N1_1  and  N2_4 
REMARK       I    between atoms: N2_4  and  C1_6 
REMARK    2  A    between atoms: C1_6  and  C2_8 
REMARK       I    between atoms: C2_8  and  N3_10 
REMARK    3  A    between atoms: N3_10  and  C3_12 
ROOT
HETATM    1  C2  UNL     1      -2.300  27.268  24.560  1.00  0.00     0.329 C 
HETATM    2  O2  UNL     1      -2.334  26.455  23.582  1.00  0.00    -0.261 OA
HETATM    3  N3  UNL     1      -1.364  28.333  24.484  1.00  0.00    -0.151 N 
ATOM      4  H3  UNL     1      -1.514  29.085  23.812  1.00  0.00     0.188 HD
ENDROOT
BRANCH   1   5
HETATM    5  C1  UNL     1      -3.199  27.068  25.672  1.00  0.00     0.328 C 
HETATM    6  N2  UNL     1      -2.707  26.719  26.948  1.00  0.00    -0.268 N 
ATOM      7  H2  UNL     1      -1.705  26.604  27.097  1.00  0.00     0.190 HD
HETATM    8  O1  UNL     1      -4.440  27.212  25.481  1.00  0.00    -0.261 OA
BRANCH   6   9
HETATM    9  N1  UNL     1      -3.606  26.531  28.012  1.00  0.00    -0.342 N 
ATOM     10  H12 UNL     1      -4.482  26.037  27.842  1.00  0.00     0.176 HD
ATOM     11  H11 UNL     1      -3.374  26.890  28.938  1.00  0.00     0.176 HD
ENDBRANCH   6   9
ENDBRANCH   1   5
BRANCH   3  12
HETATM   12  C3  UNL     1      -0.310  28.367  25.263  1.00  0.00     0.684 A 
HETATM   13  N4  UNL     1       0.836  27.694  25.082  1.00  0.00    -0.200 N 
HETATM   14  C4  UNL     1       1.687  27.987  26.096  1.00  0.00     0.123 A 
ATOM     15  H4  UNL     1       1.035  27.064  24.305  1.00  0.00     0.183 HD
HETATM   16  C5  UNL     1       1.012  28.869  26.908  1.00  0.00     0.123 A 
HETATM   17  N5  UNL     1      -0.213  29.093  26.385  1.00  0.00    -0.200 N 
ATOM     18  H5  UNL     1      -0.932  29.703  26.773  1.00  0.00     0.183 HD
ENDBRANCH   3  12
TORSDOF 3
ENDMDL
MODEL 5
REMARK VINA RESULT: -5.407216077      3.112      4.846
REMARK  3 active torsions:
REMARK  status: ('A' for Active; 'I' for Inactive)
REMARK    1  A    between atoms: N1_1  and  N2_4 
REMARK       I    between atoms: N2_4  and  C1_6 
REMARK    2  A    between atoms: C1_6  and  C2_8 
REMARK       I    between atoms: C2_8  and  N3_10 
REMARK    3  A    between atoms: N3_10  and  C3_12 
ROOT
HETATM    1  C2  UNL     1      -1.976  28.282  27.347  1.00  0.00     0.329 C 
HETATM    2  O2  UNL     1      -2.890  27.844  26.578  1.00  0.00    -0.261 OA
HETATM    3  N3  UNL     1      -1.171  29.344  26.857  1.00  0.00    -0.151 N 
ATOM      4  H3  UNL     1      -1.580  30.272  26.746  1.00  0.00     0.188 HD
ENDROOT
BRANCH   1   5
HETATM    5  C1  UNL     1      -1.812  27.687  28.653  1.00  0.00     0.328 C 
HETATM    6  N2  UNL     1      -2.331  28.315  29.805  1.00  0.00    -0.268 N 
ATOM      7  H2  UNL     1      -2.831  29.202  29.725  1.00  0.00     0.190 HD
HETATM    8  O1  UNL     1      -1.193  26.590  28.745  1.00  0.00    -0.261 OA
BRANCH   6   9
HETATM    9  N1  UNL     1      -2.157  27.713  31.063  1.00  0.00    -0.342 N 
ATOM     10  H12 UNL     1      -1.485  28.113  31.717  1.00  0.00     0.176 HD
ATOM     11  H11 UNL     1      -2.702  26.886  31.306  1.00  0.00     0.176 HD
ENDBRANCH   6   9
ENDBRANCH   1   5
BRANCH   3  12
HETATM   12  C3  UNL     1       0.087  29.153  26.543  1.00  0.00     0.684 A 
HETATM   13  N4  UNL     1       0.563  28.798  25.341  1.00  0.00    -0.200 N 
HETATM   14  C4  UNL     1       1.914  28.698  25.410  1.00  0.00     0.123 A 
ATOM     15  H4  UNL     1      -0.000  28.630  24.508  1.00  0.00     0.183 HD
HETATM   16  C5  UNL     1       2.245  29.007  26.710  1.00  0.00     0.123 A 
HETATM   17  N5  UNL     1       1.114  29.284  27.394  1.00  0.00    -0.200 N 
ATOM     18  H5  UNL     1       1.053  29.545  28.378  1.00  0.00     0.183 HD
ENDBRANCH   3  12
TORSDOF 3
ENDMDL
