MODEL 1
REMARK VINA RESULT: -4.453894229      0.000      0.000
REMARK  5 active torsions:
REMARK  status: ('A' for Active; 'I' for Inactive)
REMARK    1  A    between atoms: N2_3  and  C2_5 
REMARK    2  A    between atoms: C2_5  and  N3_7 
REMARK    3  A    between atoms: N3_7  and  C3_9 
REMARK    4  A    between atoms: C3_9  and  N4_11 
REMARK    5  A    between atoms: N4_11  and  N5_13 
ROOT
HETATM    1  N3  UNL     1      -1.365  26.299  27.201  1.00  0.00    -0.309 N 
ATOM      2  H3  UNL     1      -0.642  25.587  27.310  1.00  0.00     0.170 HD
ENDROOT
BRANCH   1   3
HETATM    3  C2  UNL     1      -2.140  26.298  26.036  1.00  0.00     0.178 C 
HETATM    4  S1  UNL     1      -3.756  26.110  25.962  1.00  0.00    -0.040 SA
BRANCH   3   5
HETATM    5  N2  UNL     1      -1.451  26.481  24.777  1.00  0.00    -0.331 N 
HETATM    6  C1  UNL     1      -1.137  27.651  24.351  1.00  0.00     0.191 C 
HETATM    7  N1  UNL     1      -0.462  27.735  23.104  1.00  0.00    -0.097 NA
ATOM      8  H2  UNL     1      -1.209  25.664  24.216  1.00  0.00     0.168 HD
ENDBRANCH   3   5
ENDBRANCH   1   3
BRANCH   1   9
HETATM    9  C3  UNL     1      -1.545  27.244  28.226  1.00  0.00     0.192 C 
HETATM   10  S2  UNL     1      -2.016  26.760  29.707  1.00  0.00    -0.039 SA
BRANCH   9  11
HETATM   11  N4  UNL     1      -1.312  28.639  27.963  1.00  0.00    -0.283 N 
ATOM     12  H4  UNL     1      -0.361  28.999  27.874  1.00  0.00     0.188 HD
BRANCH  11  13
HETATM   13  N5  UNL     1      -2.401  29.485  27.832  1.00  0.00    -0.343 N 
ATOM     14  H52 UNL     1      -2.661  29.834  26.909  1.00  0.00     0.176 HD
ATOM     15  H51 UNL     1      -2.926  29.743  28.668  1.00  0.00     0.176 HD
ENDBRANCH  11  13
ENDBRANCH   9  11
ENDBRANCH   1   9
TORSDOF 5
ENDMDL
MODEL 2
REMARK VINA RESULT: -4.409060229      2.403      3.018
REMARK  5 active torsions:
REMARK  status: ('A' for Active; 'I' for Inactive)
REMARK    1  A    between atoms: N2_3  and  C2_5 
REMARK    2  A    between atoms: C2_5  and  N3_7 
REMARK    3  A    between atoms: N3_7  and  C3_9 
REMARK    4  A    between atoms: C3_9  and  N4_11 
REMARK    5  A    between atoms: N4_11  and  N5_13 
ROOT
HETATM    1  N3  UNL     1      -0.768  29.070  27.237  1.00  0.00    -0.309 N 
ATOM      2  H3  UNL     1      -0.984  30.068  27.231  1.00  0.00     0.170 HD
ENDROOT
BRANCH   1   3
HETATM    3  C2  UNL     1       0.455  28.641  26.712  1.00  0.00     0.178 C 
HETATM    4  S1  UNL     1       1.930  29.141  27.190  1.00  0.00    -0.040 SA
BRANCH   3   5
HETATM    5  N2  UNL     1       0.417  27.663  25.646  1.00  0.00    -0.331 N 
HETATM    6  C1  UNL     1       0.080  27.992  24.451  1.00  0.00     0.191 C 
HETATM    7  N1  UNL     1       0.070  26.965  23.469  1.00  0.00    -0.097 NA
ATOM      8  H2  UNL     1       0.662  26.693  25.848  1.00  0.00     0.168 HD
ENDBRANCH   3   5
ENDBRANCH   1   3
BRANCH   1   9
HETATM    9  C3  UNL     1      -1.714  28.178  27.774  1.00  0.00     0.192 C 
HETATM   10  S2  UNL     1      -2.884  27.564  26.824  1.00  0.00    -0.039 SA
BRANCH   9  11
HETATM   11  N4  UNL     1      -1.643  27.809  29.163  1.00  0.00    -0.283 N 
ATOM     12  H4  UNL     1      -1.031  27.052  29.469  1.00  0.00     0.188 HD
BRANCH  11  13
HETATM   13  N5  UNL     1      -2.421  28.501  30.077  1.00  0.00    -0.343 N 
ATOM     14  H52 UNL     1      -2.670  29.473  29.895  1.00  0.00     0.176 HD
ATOM     15  H51 UNL     1      -2.732  28.019  30.921  1.00  0.00     0.176 HD
ENDBRANCH  11  13
ENDBRANCH   9  11
ENDBRANCH   1   9
TORSDOF 5
ENDMDL
MODEL 3
REMARK VINA RESULT: -4.294603664      2.404      3.173
REMARK  5 active torsions:
REMARK  status: ('A' for Active; 'I' for Inactive)
REMARK    1  A    between atoms: N2_3  and  C2_5 
REMARK    2  A    between atoms: C2_5  and  N3_7 
REMARK    3  A    between atoms: N3_7  and  C3_9 
REMARK    4  A    between atoms: C3_9  and  N4_11 
REMARK    5  A    between atoms: N4_11  and  N5_13 
ROOT
HETATM    1  N3  UNL     1      -0.238  28.571  27.642  1.00  0.00    -0.309 N 
ATOM      2  H3  UNL     1       0.009  29.077  28.493  1.00  0.00     0.170 HD
ENDROOT
BRANCH   1   3
HETATM    3  C2  UNL     1       0.539  28.762  26.495  1.00  0.00     0.178 C 
HETATM    4  S1  UNL     1       2.150  28.995  26.458  1.00  0.00    -0.040 SA
BRANCH   3   5
HETATM    5  N2  UNL     1      -0.144  28.753  25.219  1.00  0.00    -0.331 N 
HETATM    6  C1  UNL     1       0.152  27.896  24.309  1.00  0.00     0.191 C 
HETATM    7  N1  UNL     1      -0.570  27.963  23.088  1.00  0.00    -0.097 NA
ATOM      8  H2  UNL     1      -0.875  29.442  25.038  1.00  0.00     0.168 HD
ENDBRANCH   3   5
ENDBRANCH   1   3
BRANCH   1   9
HETATM    9  C3  UNL     1      -1.347  27.706  27.667  1.00  0.00     0.192 C 
HETATM   10  S2  UNL     1      -2.813  28.275  28.085  1.00  0.00    -0.039 SA
BRANCH   9  11
HETATM   11  N4  UNL     1      -1.181  26.319  27.323  1.00  0.00    -0.283 N 
ATOM     12  H4  UNL     1      -0.583  25.712  27.885  1.00  0.00     0.188 HD
BRANCH  11  13
HETATM   13  N5  UNL     1      -1.848  25.823  26.214  1.00  0.00    -0.343 N 
ATOM     14  H52 UNL     1      -2.064  26.445  25.435  1.00  0.00     0.176 HD
ATOM     15  H51 UNL     1      -2.111  24.838  26.199  1.00  0.00     0.176 HD
ENDBRANCH  11  13
ENDBRANCH   9  11
ENDBRANCH   1   9
TORSDOF 5
ENDMDL
MODEL 4
REMARK VINA RESULT: -4.273922118      1.998      2.456
REMARK  5 active torsions:
REMARK  status: ('A' for Active; 'I' for Inactive)
REMARK    1  A    between atoms: N2_3  and  C2_5 
REMARK    2  A    between atoms: C2_5  and  N3_7 
REMARK    3  A    between atoms: N3_7  and  C3_9 
REMARK    4  A    between atoms: C3_9  and  N4_11 
REMARK    5  A    between atoms: N4_11  and  N5_13 
ROOT
HETATM    1  N3  UNL     1      -0.561  27.116  27.291  1.00  0.00    -0.309 N 
ATOM      2  H3  UNL     1      -0.212  26.251  27.706  1.00  0.00     0.170 HD
ENDROOT
BRANCH   1   3
HETATM    3  C2  UNL     1       0.283  27.850  26.451  1.00  0.00     0.178 C 
HETATM    4  S1  UNL     1       1.335  29.001  26.920  1.00  0.00    -0.040 SA
BRANCH   3   5
HETATM    5  N2  UNL     1       0.221  27.568  25.033  1.00  0.00    -0.331 N 
HETATM    6  C1  UNL     1      -0.574  28.214  24.258  1.00  0.00     0.191 C 
HETATM    7  N1  UNL     1      -0.568  27.869  22.880  1.00  0.00    -0.097 NA
ATOM      8  H2  UNL     1       0.820  26.841  24.641  1.00  0.00     0.168 HD
ENDBRANCH   3   5
ENDBRANCH   1   3
BRANCH   1   9
HETATM    9  C3  UNL     1      -1.874  27.526  27.587  1.00  0.00     0.192 C 
HETATM   10  S2  UNL     1      -3.139  26.741  26.929  1.00  0.00    -0.039 SA
BRANCH   9  11
HETATM   11  N4  UNL     1      -2.095  28.638  28.471  1.00  0.00    -0.283 N 
ATOM     12  H4  UNL     1      -1.964  28.535  29.478  1.00  0.00     0.188 HD
BRANCH  11  13
HETATM   13  N5  UNL     1      -2.488  29.852  27.931  1.00  0.00    -0.343 N 
ATOM     14  H52 UNL     1      -2.454  29.990  26.921  1.00  0.00     0.176 HD
ATOM     15  H51 UNL     1      -2.806  30.590  28.560  1.00  0.00     0.176 HD
ENDBRANCH  11  13
ENDBRANCH   9  11
ENDBRANCH   1   9
TORSDOF 5
ENDMDL
MODEL 5
REMARK VINA RESULT: -4.256396279      1.861      1.895
REMARK  5 active torsions:
REMARK  status: ('A' for Active; 'I' for Inactive)
REMARK    1  A    between atoms: N2_3  and  C2_5 
REMARK    2  A    between atoms: C2_5  and  N3_7 
REMARK    3  A    between atoms: N3_7  and  C3_9 
REMARK    4  A    between atoms: C3_9  and  N4_11 
REMARK    5  A    between atoms: N4_11  and  N5_13 
ROOT
HETATM    1  N3  UNL     1      -1.412  26.661  26.731  1.00  0.00    -0.309 N 
ATOM      2  H3  UNL     1      -1.007  25.768  27.014  1.00  0.00     0.170 HD
ENDROOT
BRANCH   1   3
HETATM    3  C2  UNL     1      -1.140  27.149  25.448  1.00  0.00     0.178 C 
HETATM    4  S1  UNL     1      -2.226  27.348  24.251  1.00  0.00    -0.040 SA
BRANCH   3   5
HETATM    5  N2  UNL     1       0.228  27.512  25.149  1.00  0.00    -0.331 N 
HETATM    6  C1  UNL     1       0.627  28.730  25.224  1.00  0.00     0.191 C 
HETATM    7  N1  UNL     1       1.988  28.993  24.912  1.00  0.00    -0.097 NA
ATOM      8  H2  UNL     1       0.889  26.786  24.872  1.00  0.00     0.168 HD
ENDBRANCH   3   5
ENDBRANCH   1   3
BRANCH   1   9
HETATM    9  C3  UNL     1      -2.222  27.357  27.647  1.00  0.00     0.192 C 
HETATM   10  S2  UNL     1      -3.680  26.761  28.059  1.00  0.00    -0.039 SA
BRANCH   9  11
HETATM   11  N4  UNL     1      -1.760  28.594  28.217  1.00  0.00    -0.283 N 
ATOM     12  H4  UNL     1      -1.153  28.592  29.038  1.00  0.00     0.188 HD
BRANCH  11  13
HETATM   13  N5  UNL     1      -2.153  29.786  27.632  1.00  0.00    -0.343 N 
ATOM     14  H52 UNL     1      -1.698  30.102  26.774  1.00  0.00     0.176 HD
ATOM     15  H51 UNL     1      -2.895  30.329  28.074  1.00  0.00     0.176 HD
ENDBRANCH  11  13
ENDBRANCH   9  11
ENDBRANCH   1   9
TORSDOF 5
ENDMDL
