MODEL 1
REMARK VINA RESULT: -7.886562923      0.000      0.000
REMARK  14 active torsions:
REMARK  status: ('A' for Active; 'I' for Inactive)
REMARK    1  A    between atoms: C2_2  and  C3_3 
REMARK    2  A    between atoms: N1_8  and  C8_9 
REMARK    3  A    between atoms: N1_8  and  C16_20 
REMARK    4  A    between atoms: C8_9  and  C9_10 
REMARK    5  A    between atoms: C9_10  and  C10_11 
REMARK    6  A    between atoms: C10_11  and  N2_12 
REMARK       I    between atoms: N2_12  and  C11_14 
REMARK    7  A    between atoms: C11_14  and  C12_16 
REMARK    8  A    between atoms: C16_20  and  C17_21 
REMARK    9  A    between atoms: C17_21  and  C18_22 
REMARK       I    between atoms: C18_22  and  N3_24 
REMARK   10  A    between atoms: N3_24  and  C19_25 
REMARK   11  A    between atoms: C19_25  and  C20_26 
REMARK   12  A    between atoms: C20_26  and  N4_28 
REMARK   13  A    between atoms: C20_26  and  O3_32 
REMARK   14  A    between atoms: C22_34  and  O4_35 
ROOT
HETATM    1  C3  UNL     1      75.844  52.661   6.751  1.00  0.00     0.042 C 
HETATM    2  C4  UNL     1      75.141  53.188   7.965  1.00  0.00     0.015 C 
HETATM    3  C5  UNL     1      73.703  53.528   7.696  1.00  0.00     0.008 C 
HETATM    4  C6  UNL     1      72.918  53.465   9.000  1.00  0.00     0.011 C 
HETATM    5  C7  UNL     1      73.071  52.830   6.574  1.00  0.00     0.244 C 
HETATM    6  N1  UNL     1      73.666  51.639   6.032  1.00  0.00    -0.040 N 
HETATM    7  C22 UNL     1      75.093  51.866   5.801  1.00  0.00     0.327 C 
ENDROOT
BRANCH   6   8
HETATM    8  C8  UNL     1      73.053  51.404   4.769  1.00  0.00     0.242 C 
BRANCH   8   9
HETATM    9  C9  UNL     1      73.342  52.094   3.536  1.00  0.00     0.048 C 
BRANCH   9  10
HETATM   10  C10 UNL     1      74.139  51.420   2.464  1.00  0.00     0.124 C 
BRANCH  10  11
HETATM   11  N2  UNL     1      74.469  50.046   2.796  1.00  0.00    -0.360 N 
HETATM   12  C11 UNL     1      75.596  49.387   2.315  1.00  0.00     0.225 C 
HETATM   13  O1  UNL     1      76.416  49.942   1.561  1.00  0.00    -0.273 OA
ATOM     14  H2  UNL     1      73.840  49.536   3.415  1.00  0.00     0.162 HD
BRANCH  12  15
HETATM   15  C12 UNL     1      75.847  47.965   2.703  1.00  0.00     0.030 C 
HETATM   16  C13 UNL     1      74.657  47.514   3.514  1.00  0.00     0.024 C 
HETATM   17  C14 UNL     1      77.119  47.891   3.541  1.00  0.00     0.024 C 
HETATM   18  C15 UNL     1      76.037  47.157   1.457  1.00  0.00     0.024 C 
ENDBRANCH  12  15
ENDBRANCH  10  11
ENDBRANCH   9  10
ENDBRANCH   8   9
ENDBRANCH   6   8
BRANCH   6  19
HETATM   19  C16 UNL     1      73.417  50.569   6.928  1.00  0.00     0.251 C 
BRANCH  19  20
HETATM   20  C17 UNL     1      72.095  50.062   7.209  1.00  0.00     0.147 C 
BRANCH  20  21
HETATM   21  C18 UNL     1      72.106  49.306   8.568  1.00  0.00     0.292 C 
HETATM   22  O2  UNL     1      72.538  50.011   9.517  1.00  0.00    -0.257 OA
HETATM   23  N3  UNL     1      71.675  48.029   8.618  1.00  0.00    -0.383 NA
BRANCH  23  24
HETATM   24  C19 UNL     1      71.232  46.718   8.674  1.00  0.00     0.226 C 
BRANCH  24  25
HETATM   25  C20 UNL     1      71.867  45.745   7.687  1.00  0.00     0.263 C 
HETATM   26  C21 UNL     1      72.712  46.506   6.710  1.00  0.00     0.085 C 
BRANCH  25  27
HETATM   27  N4  UNL     1      70.852  45.015   6.963  1.00  0.00    -0.041 N 
ATOM     28  H43 UNL     1      71.259  44.419   6.242  1.00  0.00     0.278 HD
ATOM     29  H42 UNL     1      70.426  44.290   7.539  1.00  0.00     0.278 HD
ATOM     30  H41 UNL     1      70.154  45.650   6.578  1.00  0.00     0.278 HD
ENDBRANCH  25  27
BRANCH  25  31
HETATM   31  O3  UNL     1      72.648  44.845   8.417  1.00  0.00    -0.360 OA
ATOM     32  H3  UNL     1      72.673  44.027   7.936  1.00  0.00     0.213 HD
ENDBRANCH  25  31
ENDBRANCH  24  25
ENDBRANCH  23  24
ENDBRANCH  20  21
ENDBRANCH  19  20
ENDBRANCH   6  19
BRANCH   7  33
HETATM   33  O4  UNL     1      75.759  50.654   5.608  1.00  0.00    -0.369 OA
ATOM     34  H4  UNL     1      76.637  50.730   5.962  1.00  0.00     0.212 HD
ENDBRANCH   7  33
BRANCH   1  35
HETATM   35  C2  UNL     1      77.119  51.984   7.235  1.00  0.00     0.004 C 
HETATM   36  C1  UNL     1      78.076  53.099   7.651  1.00  0.00     0.005 C 
ENDBRANCH   1  35
TORSDOF 14
ENDMDL
MODEL 2
REMARK VINA RESULT: -7.810690437      1.586      1.936
REMARK  14 active torsions:
REMARK  status: ('A' for Active; 'I' for Inactive)
REMARK    1  A    between atoms: C2_2  and  C3_3 
REMARK    2  A    between atoms: N1_8  and  C8_9 
REMARK    3  A    between atoms: N1_8  and  C16_20 
REMARK    4  A    between atoms: C8_9  and  C9_10 
REMARK    5  A    between atoms: C9_10  and  C10_11 
REMARK    6  A    between atoms: C10_11  and  N2_12 
REMARK       I    between atoms: N2_12  and  C11_14 
REMARK    7  A    between atoms: C11_14  and  C12_16 
REMARK    8  A    between atoms: C16_20  and  C17_21 
REMARK    9  A    between atoms: C17_21  and  C18_22 
REMARK       I    between atoms: C18_22  and  N3_24 
REMARK   10  A    between atoms: N3_24  and  C19_25 
REMARK   11  A    between atoms: C19_25  and  C20_26 
REMARK   12  A    between atoms: C20_26  and  N4_28 
REMARK   13  A    between atoms: C20_26  and  O3_32 
REMARK   14  A    between atoms: C22_34  and  O4_35 
ROOT
HETATM    1  C3  UNL     1      75.572  52.132   7.277  1.00  0.00     0.042 C 
HETATM    2  C4  UNL     1      74.705  51.650   8.400  1.00  0.00     0.015 C 
HETATM    3  C5  UNL     1      73.251  51.600   8.025  1.00  0.00     0.008 C 
HETATM    4  C6  UNL     1      72.537  50.587   8.910  1.00  0.00     0.011 C 
HETATM    5  C7  UNL     1      72.955  51.472   6.597  1.00  0.00     0.244 C 
HETATM    6  N1  UNL     1      73.973  51.038   5.679  1.00  0.00    -0.040 N 
HETATM    7  C22 UNL     1      75.201  51.797   5.917  1.00  0.00     0.327 C 
ENDROOT
BRANCH   6   8
HETATM    8  C8  UNL     1      73.515  51.352   4.369  1.00  0.00     0.242 C 
BRANCH   8   9
HETATM    9  C9  UNL     1      74.189  52.184   3.403  1.00  0.00     0.048 C 
BRANCH   9  10
HETATM   10  C10 UNL     1      74.814  51.574   2.188  1.00  0.00     0.124 C 
BRANCH  10  11
HETATM   11  N2  UNL     1      75.524  50.344   2.485  1.00  0.00    -0.360 N 
HETATM   12  C11 UNL     1      76.068  49.514   1.510  1.00  0.00     0.225 C 
HETATM   13  O1  UNL     1      75.989  49.778   0.296  1.00  0.00    -0.273 OA
ATOM     14  H2  UNL     1      75.631  50.073   3.462  1.00  0.00     0.162 HD
BRANCH  12  15
HETATM   15  C12 UNL     1      76.774  48.259   1.912  1.00  0.00     0.030 C 
HETATM   16  C13 UNL     1      75.999  47.109   1.316  1.00  0.00     0.024 C 
HETATM   17  C14 UNL     1      76.788  48.157   3.434  1.00  0.00     0.024 C 
HETATM   18  C15 UNL     1      78.185  48.325   1.415  1.00  0.00     0.024 C 
ENDBRANCH  12  15
ENDBRANCH  10  11
ENDBRANCH   9  10
ENDBRANCH   8   9
ENDBRANCH   6   8
BRANCH   6  19
HETATM   19  C16 UNL     1      74.150  49.641   5.839  1.00  0.00     0.251 C 
BRANCH  19  20
HETATM   20  C17 UNL     1      73.487  48.659   5.013  1.00  0.00     0.147 C 
BRANCH  20  21
HETATM   21  C18 UNL     1      72.253  48.092   5.770  1.00  0.00     0.292 C 
HETATM   22  O2  UNL     1      71.186  48.696   5.488  1.00  0.00    -0.257 OA
HETATM   23  N3  UNL     1      72.415  47.055   6.617  1.00  0.00    -0.383 NA
BRANCH  23  24
HETATM   24  C19 UNL     1      72.578  45.990   7.487  1.00  0.00     0.226 C 
BRANCH  24  25
HETATM   25  C20 UNL     1      71.478  45.786   8.522  1.00  0.00     0.263 C 
HETATM   26  C21 UNL     1      71.243  47.069   9.260  1.00  0.00     0.085 C 
BRANCH  25  27
HETATM   27  N4  UNL     1      71.849  44.760   9.469  1.00  0.00    -0.041 N 
ATOM     28  H43 UNL     1      72.547  44.124   9.083  1.00  0.00     0.278 HD
ATOM     29  H42 UNL     1      72.397  45.139  10.241  1.00  0.00     0.278 HD
ATOM     30  H41 UNL     1      71.025  44.259   9.802  1.00  0.00     0.278 HD
ENDBRANCH  25  27
BRANCH  25  31
HETATM   31  O3  UNL     1      70.323  45.389   7.844  1.00  0.00    -0.360 OA
ATOM     32  H3  UNL     1      69.685  46.089   7.923  1.00  0.00     0.213 HD
ENDBRANCH  25  31
ENDBRANCH  24  25
ENDBRANCH  23  24
ENDBRANCH  20  21
ENDBRANCH  19  20
ENDBRANCH   6  19
BRANCH   7  33
HETATM   33  O4  UNL     1      76.289  51.179   5.297  1.00  0.00    -0.369 OA
ATOM     34  H4  UNL     1      77.090  51.534   5.664  1.00  0.00     0.212 HD
ENDBRANCH   7  33
BRANCH   1  35
HETATM   35  C2  UNL     1      77.005  51.752   7.627  1.00  0.00     0.004 C 
HETATM   36  C1  UNL     1      77.733  53.051   7.963  1.00  0.00     0.005 C 
ENDBRANCH   1  35
TORSDOF 14
ENDMDL
MODEL 3
REMARK VINA RESULT: -7.761909111      3.201      5.599
REMARK  14 active torsions:
REMARK  status: ('A' for Active; 'I' for Inactive)
REMARK    1  A    between atoms: C2_2  and  C3_3 
REMARK    2  A    between atoms: N1_8  and  C8_9 
REMARK    3  A    between atoms: N1_8  and  C16_20 
REMARK    4  A    between atoms: C8_9  and  C9_10 
REMARK    5  A    between atoms: C9_10  and  C10_11 
REMARK    6  A    between atoms: C10_11  and  N2_12 
REMARK       I    between atoms: N2_12  and  C11_14 
REMARK    7  A    between atoms: C11_14  and  C12_16 
REMARK    8  A    between atoms: C16_20  and  C17_21 
REMARK    9  A    between atoms: C17_21  and  C18_22 
REMARK       I    between atoms: C18_22  and  N3_24 
REMARK   10  A    between atoms: N3_24  and  C19_25 
REMARK   11  A    between atoms: C19_25  and  C20_26 
REMARK   12  A    between atoms: C20_26  and  N4_28 
REMARK   13  A    between atoms: C20_26  and  O3_32 
REMARK   14  A    between atoms: C22_34  and  O4_35 
ROOT
HETATM    1  C3  UNL     1      75.039  49.133   2.959  1.00  0.00     0.042 C 
HETATM    2  C4  UNL     1      76.229  49.399   3.829  1.00  0.00     0.015 C 
HETATM    3  C5  UNL     1      76.282  50.820   4.315  1.00  0.00     0.008 C 
HETATM    4  C6  UNL     1      77.092  50.882   5.603  1.00  0.00     0.011 C 
HETATM    5  C7  UNL     1      75.005  51.534   4.367  1.00  0.00     0.244 C 
HETATM    6  N1  UNL     1      73.764  50.809   4.328  1.00  0.00    -0.040 N 
HETATM    7  C22 UNL     1      73.802  49.834   3.237  1.00  0.00     0.327 C 
ENDROOT
BRANCH   6   8
HETATM    8  C8  UNL     1      72.739  51.751   4.035  1.00  0.00     0.242 C 
BRANCH   8   9
HETATM    9  C9  UNL     1      72.860  52.911   3.186  1.00  0.00     0.048 C 
BRANCH   9  10
HETATM   10  C10 UNL     1      72.435  54.256   3.683  1.00  0.00     0.124 C 
BRANCH  10  11
HETATM   11  N2  UNL     1      71.036  54.532   3.414  1.00  0.00    -0.360 N 
HETATM   12  C11 UNL     1      70.600  55.425   2.440  1.00  0.00     0.225 C 
HETATM   13  O1  UNL     1      71.393  56.052   1.714  1.00  0.00    -0.273 OA
ATOM     14  H2  UNL     1      70.333  54.046   3.970  1.00  0.00     0.162 HD
BRANCH  12  15
HETATM   15  C12 UNL     1      69.136  55.653   2.243  1.00  0.00     0.030 C 
HETATM   16  C13 UNL     1      68.480  55.487   3.592  1.00  0.00     0.024 C 
HETATM   17  C14 UNL     1      68.595  54.620   1.260  1.00  0.00     0.024 C 
HETATM   18  C15 UNL     1      68.939  57.022   1.669  1.00  0.00     0.024 C 
ENDBRANCH  12  15
ENDBRANCH  10  11
ENDBRANCH   9  10
ENDBRANCH   8   9
ENDBRANCH   6   8
BRANCH   6  19
HETATM   19  C16 UNL     1      73.560  50.208   5.596  1.00  0.00     0.251 C 
BRANCH  19  20
HETATM   20  C17 UNL     1      72.549  50.650   6.528  1.00  0.00     0.147 C 
BRANCH  20  21
HETATM   21  C18 UNL     1      72.688  49.859   7.859  1.00  0.00     0.292 C 
HETATM   22  O2  UNL     1      73.395  50.457   8.712  1.00  0.00    -0.257 OA
HETATM   23  N3  UNL     1      72.074  48.665   7.987  1.00  0.00    -0.383 NA
BRANCH  23  24
HETATM   24  C19 UNL     1      71.444  47.439   8.123  1.00  0.00     0.226 C 
BRANCH  24  25
HETATM   25  C20 UNL     1      72.111  46.255   7.433  1.00  0.00     0.263 C 
HETATM   26  C21 UNL     1      72.866  46.737   6.231  1.00  0.00     0.085 C 
BRANCH  25  27
HETATM   27  N4  UNL     1      71.125  45.286   7.011  1.00  0.00    -0.041 N 
ATOM     28  H43 UNL     1      70.286  45.736   6.646  1.00  0.00     0.278 HD
ATOM     29  H42 UNL     1      71.417  44.795   6.166  1.00  0.00     0.278 HD
ATOM     30  H41 UNL     1      70.908  44.638   7.768  1.00  0.00     0.278 HD
ENDBRANCH  25  27
BRANCH  25  31
HETATM   31  O3  UNL     1      72.977  45.658   8.353  1.00  0.00    -0.360 OA
ATOM     32  H3  UNL     1      72.751  44.737   8.409  1.00  0.00     0.213 HD
ENDBRANCH  25  31
ENDBRANCH  24  25
ENDBRANCH  23  24
ENDBRANCH  20  21
ENDBRANCH  19  20
ENDBRANCH   6  19
BRANCH   7  33
HETATM   33  O4  UNL     1      72.779  48.895   3.382  1.00  0.00    -0.369 OA
ATOM     34  H4  UNL     1      72.505  48.883   4.292  1.00  0.00     0.212 HD
ENDBRANCH   7  33
BRANCH   1  35
HETATM   35  C2  UNL     1      74.876  47.621   2.880  1.00  0.00     0.004 C 
HETATM   36  C1  UNL     1      75.714  47.152   1.693  1.00  0.00     0.005 C 
ENDBRANCH   1  35
TORSDOF 14
ENDMDL
MODEL 4
REMARK VINA RESULT: -7.746184559      3.011      5.275
REMARK  14 active torsions:
REMARK  status: ('A' for Active; 'I' for Inactive)
REMARK    1  A    between atoms: C2_2  and  C3_3 
REMARK    2  A    between atoms: N1_8  and  C8_9 
REMARK    3  A    between atoms: N1_8  and  C16_20 
REMARK    4  A    between atoms: C8_9  and  C9_10 
REMARK    5  A    between atoms: C9_10  and  C10_11 
REMARK    6  A    between atoms: C10_11  and  N2_12 
REMARK       I    between atoms: N2_12  and  C11_14 
REMARK    7  A    between atoms: C11_14  and  C12_16 
REMARK    8  A    between atoms: C16_20  and  C17_21 
REMARK    9  A    between atoms: C17_21  and  C18_22 
REMARK       I    between atoms: C18_22  and  N3_24 
REMARK   10  A    between atoms: N3_24  and  C19_25 
REMARK   11  A    between atoms: C19_25  and  C20_26 
REMARK   12  A    between atoms: C20_26  and  N4_28 
REMARK   13  A    between atoms: C20_26  and  O3_32 
REMARK   14  A    between atoms: C22_34  and  O4_35 
ROOT
HETATM    1  C3  UNL     1      75.926  51.488   7.064  1.00  0.00     0.042 C 
HETATM    2  C4  UNL     1      75.997  52.332   5.827  1.00  0.00     0.015 C 
HETATM    3  C5  UNL     1      74.783  52.178   4.955  1.00  0.00     0.008 C 
HETATM    4  C6  UNL     1      74.618  53.425   4.097  1.00  0.00     0.011 C 
HETATM    5  C7  UNL     1      73.558  51.735   5.622  1.00  0.00     0.244 C 
HETATM    6  N1  UNL     1      73.437  51.821   7.053  1.00  0.00    -0.040 N 
HETATM    7  C22 UNL     1      74.635  51.260   7.679  1.00  0.00     0.327 C 
ENDROOT
BRANCH   6   8
HETATM    8  C8  UNL     1      72.329  51.010   7.428  1.00  0.00     0.242 C 
BRANCH   8   9
HETATM    9  C9  UNL     1      72.391  49.677   7.973  1.00  0.00     0.048 C 
BRANCH   9  10
HETATM   10  C10 UNL     1      72.179  48.490   7.088  1.00  0.00     0.124 C 
BRANCH  10  11
HETATM   11  N2  UNL     1      73.136  48.429   5.998  1.00  0.00    -0.360 N 
HETATM   12  C11 UNL     1      72.778  48.227   4.669  1.00  0.00     0.225 C 
HETATM   13  O1  UNL     1      71.592  48.090   4.316  1.00  0.00    -0.273 OA
ATOM     14  H2  UNL     1      74.125  48.541   6.219  1.00  0.00     0.162 HD
BRANCH  12  15
HETATM   15  C12 UNL     1      73.837  48.168   3.615  1.00  0.00     0.030 C 
HETATM   16  C13 UNL     1      73.599  46.905   2.825  1.00  0.00     0.024 C 
HETATM   17  C14 UNL     1      75.207  48.125   4.284  1.00  0.00     0.024 C 
HETATM   18  C15 UNL     1      73.743  49.403   2.775  1.00  0.00     0.024 C 
ENDBRANCH  12  15
ENDBRANCH  10  11
ENDBRANCH   9  10
ENDBRANCH   8   9
ENDBRANCH   6   8
BRANCH   6  19
HETATM   19  C16 UNL     1      73.219  53.178   7.401  1.00  0.00     0.251 C 
BRANCH  19  20
HETATM   20  C17 UNL     1      72.299  53.593   8.433  1.00  0.00     0.147 C 
BRANCH  20  21
HETATM   21  C18 UNL     1      73.059  54.434   9.498  1.00  0.00     0.292 C 
HETATM   22  O2  UNL     1      74.219  54.755   9.132  1.00  0.00    -0.257 OA
HETATM   23  N3  UNL     1      72.448  54.736  10.662  1.00  0.00    -0.383 NA
BRANCH  23  24
HETATM   24  C19 UNL     1      71.823  55.050  11.858  1.00  0.00     0.226 C 
BRANCH  24  25
HETATM   25  C20 UNL     1      70.536  54.294  12.169  1.00  0.00     0.263 C 
HETATM   26  C21 UNL     1      70.807  52.820  12.152  1.00  0.00     0.085 C 
BRANCH  25  27
HETATM   27  N4  UNL     1      69.515  54.596  11.192  1.00  0.00    -0.041 N 
ATOM     28  H43 UNL     1      69.378  55.601  11.088  1.00  0.00     0.278 HD
ATOM     29  H42 UNL     1      69.826  54.384  10.244  1.00  0.00     0.278 HD
ATOM     30  H41 UNL     1      68.644  54.117  11.420  1.00  0.00     0.278 HD
ENDBRANCH  25  27
BRANCH  25  31
HETATM   31  O3  UNL     1      70.098  54.700  13.432  1.00  0.00    -0.360 OA
ATOM     32  H3  UNL     1      70.855  54.731  14.006  1.00  0.00     0.213 HD
ENDBRANCH  25  31
ENDBRANCH  24  25
ENDBRANCH  23  24
ENDBRANCH  20  21
ENDBRANCH  19  20
ENDBRANCH   6  19
BRANCH   7  33
HETATM   33  O4  UNL     1      74.708  51.633   9.022  1.00  0.00    -0.369 OA
ATOM     34  H4  UNL     1      73.891  52.052   9.266  1.00  0.00     0.212 HD
ENDBRANCH   7  33
BRANCH   1  35
HETATM   35  C2  UNL     1      76.972  52.028   8.030  1.00  0.00     0.004 C 
HETATM   36  C1  UNL     1      77.982  52.807   7.191  1.00  0.00     0.005 C 
ENDBRANCH   1  35
TORSDOF 14
ENDMDL
MODEL 5
REMARK VINA RESULT: -7.737440359      3.033      5.067
REMARK  14 active torsions:
REMARK  status: ('A' for Active; 'I' for Inactive)
REMARK    1  A    between atoms: C2_2  and  C3_3 
REMARK    2  A    between atoms: N1_8  and  C8_9 
REMARK    3  A    between atoms: N1_8  and  C16_20 
REMARK    4  A    between atoms: C8_9  and  C9_10 
REMARK    5  A    between atoms: C9_10  and  C10_11 
REMARK    6  A    between atoms: C10_11  and  N2_12 
REMARK       I    between atoms: N2_12  and  C11_14 
REMARK    7  A    between atoms: C11_14  and  C12_16 
REMARK    8  A    between atoms: C16_20  and  C17_21 
REMARK    9  A    between atoms: C17_21  and  C18_22 
REMARK       I    between atoms: C18_22  and  N3_24 
REMARK   10  A    between atoms: N3_24  and  C19_25 
REMARK   11  A    between atoms: C19_25  and  C20_26 
REMARK   12  A    between atoms: C20_26  and  N4_28 
REMARK   13  A    between atoms: C20_26  and  O3_32 
REMARK   14  A    between atoms: C22_34  and  O4_35 
ROOT
HETATM    1  C3  UNL     1      76.484  50.203   4.166  1.00  0.00     0.042 C 
HETATM    2  C4  UNL     1      77.032  50.594   5.505  1.00  0.00     0.015 C 
HETATM    3  C5  UNL     1      76.289  51.747   6.117  1.00  0.00     0.008 C 
HETATM    4  C6  UNL     1      76.455  51.707   7.631  1.00  0.00     0.011 C 
HETATM    5  C7  UNL     1      74.911  51.944   5.664  1.00  0.00     0.244 C 
HETATM    6  N1  UNL     1      74.211  50.886   4.987  1.00  0.00    -0.040 N 
HETATM    7  C22 UNL     1      75.061  50.335   3.930  1.00  0.00     0.327 C 
ENDROOT
BRANCH   6   8
HETATM    8  C8  UNL     1      73.070  51.470   4.367  1.00  0.00     0.242 C 
BRANCH   8   9
HETATM    9  C9  UNL     1      73.056  52.217   3.134  1.00  0.00     0.048 C 
BRANCH   9  10
HETATM   10  C10 UNL     1      73.004  53.712   3.160  1.00  0.00     0.124 C 
BRANCH  10  11
HETATM   11  N2  UNL     1      71.747  54.236   2.660  1.00  0.00    -0.360 N 
HETATM   12  C11 UNL     1      70.599  54.354   3.436  1.00  0.00     0.225 C 
HETATM   13  O1  UNL     1      70.573  54.022   4.635  1.00  0.00    -0.273 OA
ATOM     14  H2  UNL     1      71.702  54.533   1.685  1.00  0.00     0.162 HD
BRANCH  12  15
HETATM   15  C12 UNL     1      69.344  54.895   2.829  1.00  0.00     0.030 C 
HETATM   16  C13 UNL     1      69.703  56.207   2.175  1.00  0.00     0.024 C 
HETATM   17  C14 UNL     1      68.310  55.117   3.929  1.00  0.00     0.024 C 
HETATM   18  C15 UNL     1      68.812  53.889   1.856  1.00  0.00     0.024 C 
ENDBRANCH  12  15
ENDBRANCH  10  11
ENDBRANCH   9  10
ENDBRANCH   8   9
ENDBRANCH   6   8
BRANCH   6  19
HETATM   19  C16 UNL     1      73.830  49.916   5.948  1.00  0.00     0.251 C 
BRANCH  19  20
HETATM   20  C17 UNL     1      72.455  49.593   6.245  1.00  0.00     0.147 C 
BRANCH  20  21
HETATM   21  C18 UNL     1      72.137  48.158   5.737  1.00  0.00     0.292 C 
HETATM   22  O2  UNL     1      71.721  48.141   4.549  1.00  0.00    -0.257 OA
HETATM   23  N3  UNL     1      72.324  47.107   6.561  1.00  0.00    -0.383 NA
BRANCH  23  24
HETATM   24  C19 UNL     1      72.516  46.025   7.404  1.00  0.00     0.226 C 
BRANCH  24  25
HETATM   25  C20 UNL     1      71.510  45.861   8.537  1.00  0.00     0.263 C 
HETATM   26  C21 UNL     1      71.411  47.144   9.306  1.00  0.00     0.085 C 
BRANCH  25  27
HETATM   27  N4  UNL     1      71.916  44.805   9.435  1.00  0.00    -0.041 N 
ATOM     28  H43 UNL     1      72.459  45.164  10.219  1.00  0.00     0.278 HD
ATOM     29  H42 UNL     1      71.124  44.428   9.956  1.00  0.00     0.278 HD
ATOM     30  H41 UNL     1      72.417  44.074   8.931  1.00  0.00     0.278 HD
ENDBRANCH  25  27
BRANCH  25  31
HETATM   31  O3  UNL     1      70.277  45.532   7.967  1.00  0.00    -0.360 OA
ATOM     32  H3  UNL     1      70.334  44.639   7.647  1.00  0.00     0.213 HD
ENDBRANCH  25  31
ENDBRANCH  24  25
ENDBRANCH  23  24
ENDBRANCH  20  21
ENDBRANCH  19  20
ENDBRANCH   6  19
BRANCH   7  33
HETATM   33  O4  UNL     1      74.565  49.107   3.490  1.00  0.00    -0.369 OA
ATOM     34  H4  UNL     1      75.036  48.412   3.935  1.00  0.00     0.212 HD
ENDBRANCH   7  33
BRANCH   1  35
HETATM   35  C2  UNL     1      77.024  48.814   3.854  1.00  0.00     0.004 C 
HETATM   36  C1  UNL     1      78.544  48.898   3.974  1.00  0.00     0.005 C 
ENDBRANCH   1  35
TORSDOF 14
ENDMDL
