MODEL 1
REMARK VINA RESULT: -9.015290425      0.000      0.000
REMARK  11 active torsions:
REMARK  status: ('A' for Active; 'I' for Inactive)
REMARK    1  A    between atoms: C2_2  and  N1_3 
REMARK    2  A    between atoms: C4_10  and  N4_11 
REMARK    3  A    between atoms: N4_11  and  C5_13 
REMARK    4  A    between atoms: C5_13  and  C6_14 
REMARK    5  A    between atoms: N5_21  and  C12_22 
REMARK    6  A    between atoms: C12_22  and  C13_23 
REMARK    7  A    between atoms: C13_23  and  C16_26 
REMARK    8  A    between atoms: C16_26  and  C17_27 
REMARK    9  A    between atoms: C17_27  and  C18_28 
REMARK   10  A    between atoms: C18_28  and  C19_29 
REMARK   11  A    between atoms: C19_29  and  N6_30 
ROOT
HETATM    1  C6  UNL     1      77.503  51.019   2.814  1.00  0.00     0.105 C 
HETATM    2  C7  UNL     1      78.244  51.538   1.621  1.00  0.00     0.027 C 
HETATM    3  C8  UNL     1      77.603  52.577   0.807  1.00  0.00     0.002 C 
HETATM    4  C9  UNL     1      77.003  51.914  -0.420  1.00  0.00     0.009 C 
HETATM    5  C10 UNL     1      75.737  51.212  -0.119  1.00  0.00     0.103 C 
HETATM    6  C11 UNL     1      75.466  50.929   1.295  1.00  0.00     0.220 C 
HETATM    7  O1  UNL     1      74.201  50.998   1.536  1.00  0.00    -0.273 OA
HETATM    8  N5  UNL     1      76.197  50.601   2.467  1.00  0.00    -0.345 N 
ENDROOT
BRANCH   1   9
HETATM    9  C5  UNL     1      77.560  51.972   4.013  1.00  0.00     0.163 C 
BRANCH   9  10
HETATM   10  N4  UNL     1      78.123  51.378   5.188  1.00  0.00    -0.222 N 
ATOM     11  H4  UNL     1      78.929  50.756   5.121  1.00  0.00     0.177 HD
BRANCH  10  12
HETATM   12  C4  UNL     1      77.598  51.640   6.326  1.00  0.00     0.707 A 
HETATM   13  N3  UNL     1      78.116  52.276   7.395  1.00  0.00    -0.117 N 
HETATM   14  N2  UNL     1      77.255  52.349   8.384  1.00  0.00    -0.117 N 
ATOM     15  H3  UNL     1      79.062  52.656   7.432  1.00  0.00     0.206 HD
HETATM   16  C3  UNL     1      76.124  51.745   7.973  1.00  0.00     0.707 A 
ATOM     17  H2  UNL     1      77.414  52.782   9.293  1.00  0.00     0.206 HD
HETATM   18  N1  UNL     1      75.056  51.640   8.718  1.00  0.00    -0.225 N 
HETATM   19  N9  UNL     1      76.333  51.318   6.729  1.00  0.00    -0.020 N 
ATOM     20  H1  UNL     1      75.018  52.014   9.666  1.00  0.00     0.177 HD
ATOM     21  H9  UNL     1      75.648  50.822   6.160  1.00  0.00     0.203 HD
BRANCH  18  22
HETATM   22  C2  UNL     1      73.914  50.949   8.105  1.00  0.00     0.134 C 
HETATM   23  C1  UNL     1      72.726  51.012   9.028  1.00  0.00     0.027 C 
ENDBRANCH  18  22
ENDBRANCH  10  12
ENDBRANCH   9  10
ENDBRANCH   1   9
BRANCH   8  24
HETATM   24  C12 UNL     1      75.428  49.736   3.335  1.00  0.00     0.135 C 
BRANCH  24  25
HETATM   25  C13 UNL     1      75.741  48.306   3.329  1.00  0.00    -0.031 C 
HETATM   26  C14 UNL     1      75.852  47.695   1.939  1.00  0.00     0.016 C 
HETATM   27  C15 UNL     1      76.982  47.955   4.153  1.00  0.00     0.016 C 
BRANCH  25  28
HETATM   28  C16 UNL     1      74.605  47.588   4.022  1.00  0.00     0.010 C 
BRANCH  28  29
HETATM   29  C17 UNL     1      73.436  47.247   3.182  1.00  0.00     0.002 C 
BRANCH  29  30
HETATM   30  C18 UNL     1      72.285  48.141   3.597  1.00  0.00     0.020 C 
BRANCH  30  31
HETATM   31  C19 UNL     1      71.976  48.116   5.054  1.00  0.00     0.122 C 
BRANCH  31  32
HETATM   32  N6  UNL     1      72.095  46.776   5.576  1.00  0.00    -0.367 N 
HETATM   33  C20 UNL     1      72.292  46.526   6.826  1.00  0.00     0.196 C 
HETATM   34  N7  UNL     1      72.397  45.187   7.260  1.00  0.00    -0.067 NA
HETATM   35  N8  UNL     1      72.393  47.640   7.705  1.00  0.00    -0.067 NA
ATOM     36  H6  UNL     1      72.021  45.992   4.928  1.00  0.00     0.161 HD
ENDBRANCH  31  32
ENDBRANCH  30  31
ENDBRANCH  29  30
ENDBRANCH  28  29
ENDBRANCH  25  28
ENDBRANCH  24  25
ENDBRANCH   8  24
TORSDOF 11
ENDMDL
MODEL 2
REMARK VINA RESULT: -8.750534420      2.613      5.996
REMARK  11 active torsions:
REMARK  status: ('A' for Active; 'I' for Inactive)
REMARK    1  A    between atoms: C2_2  and  N1_3 
REMARK    2  A    between atoms: C4_10  and  N4_11 
REMARK    3  A    between atoms: N4_11  and  C5_13 
REMARK    4  A    between atoms: C5_13  and  C6_14 
REMARK    5  A    between atoms: N5_21  and  C12_22 
REMARK    6  A    between atoms: C12_22  and  C13_23 
REMARK    7  A    between atoms: C13_23  and  C16_26 
REMARK    8  A    between atoms: C16_26  and  C17_27 
REMARK    9  A    between atoms: C17_27  and  C18_28 
REMARK   10  A    between atoms: C18_28  and  C19_29 
REMARK   11  A    between atoms: C19_29  and  N6_30 
ROOT
HETATM    1  C6  UNL     1      76.203  49.403   4.028  1.00  0.00     0.105 C 
HETATM    2  C7  UNL     1      75.995  47.950   3.733  1.00  0.00     0.027 C 
HETATM    3  C8  UNL     1      75.261  47.590   2.515  1.00  0.00     0.002 C 
HETATM    4  C9  UNL     1      73.833  47.250   2.904  1.00  0.00     0.009 C 
HETATM    5  C10 UNL     1      73.020  48.456   3.171  1.00  0.00     0.103 C 
HETATM    6  C11 UNL     1      73.756  49.704   3.402  1.00  0.00     0.220 C 
HETATM    7  O1  UNL     1      73.098  50.710   2.937  1.00  0.00    -0.273 OA
HETATM    8  N5  UNL     1      74.981  50.117   3.990  1.00  0.00    -0.345 N 
ENDROOT
BRANCH   1   9
HETATM    9  C5  UNL     1      77.321  50.029   3.188  1.00  0.00     0.163 C 
BRANCH   9  10
HETATM   10  N4  UNL     1      78.601  49.422   3.397  1.00  0.00    -0.222 N 
ATOM     11  H4  UNL     1      78.957  49.272   4.341  1.00  0.00     0.177 HD
BRANCH  10  12
HETATM   12  C4  UNL     1      79.292  49.069   2.378  1.00  0.00     0.707 A 
HETATM   13  N3  UNL     1      79.798  47.865   2.048  1.00  0.00    -0.117 N 
HETATM   14  N2  UNL     1      80.456  47.908   0.912  1.00  0.00    -0.117 N 
ATOM     15  H3  UNL     1      79.684  47.022   2.611  1.00  0.00     0.206 HD
HETATM   16  C3  UNL     1      80.394  49.175   0.462  1.00  0.00     0.707 A 
ATOM     17  H2  UNL     1      80.926  47.126   0.456  1.00  0.00     0.206 HD
HETATM   18  N1  UNL     1      80.948  49.568  -0.654  1.00  0.00    -0.225 N 
HETATM   19  N9  UNL     1      79.690  49.875   1.349  1.00  0.00    -0.020 N 
ATOM     20  H1  UNL     1      81.466  48.928  -1.256  1.00  0.00     0.177 HD
ATOM     21  H9  UNL     1      79.478  50.870   1.272  1.00  0.00     0.203 HD
BRANCH  18  22
HETATM   22  C2  UNL     1      80.778  50.988  -0.987  1.00  0.00     0.134 C 
HETATM   23  C1  UNL     1      81.229  51.237  -2.401  1.00  0.00     0.027 C 
ENDBRANCH  18  22
ENDBRANCH  10  12
ENDBRANCH   9  10
ENDBRANCH   1   9
BRANCH   8  24
HETATM   24  C12 UNL     1      74.855  51.426   4.592  1.00  0.00     0.135 C 
BRANCH  24  25
HETATM   25  C13 UNL     1      74.797  51.506   6.052  1.00  0.00    -0.031 C 
HETATM   26  C14 UNL     1      76.145  51.353   6.742  1.00  0.00     0.016 C 
HETATM   27  C15 UNL     1      74.092  52.766   6.561  1.00  0.00     0.016 C 
BRANCH  25  28
HETATM   28  C16 UNL     1      73.936  50.362   6.537  1.00  0.00     0.010 C 
BRANCH  28  29
HETATM   29  C17 UNL     1      73.289  50.542   7.855  1.00  0.00     0.002 C 
BRANCH  29  30
HETATM   30  C18 UNL     1      72.161  49.537   7.964  1.00  0.00     0.020 C 
BRANCH  30  31
HETATM   31  C19 UNL     1      71.904  48.757   6.722  1.00  0.00     0.122 C 
BRANCH  31  32
HETATM   32  N6  UNL     1      71.671  47.367   7.032  1.00  0.00    -0.367 N 
HETATM   33  C20 UNL     1      72.579  46.459   6.909  1.00  0.00     0.196 C 
HETATM   34  N7  UNL     1      72.273  45.120   7.233  1.00  0.00    -0.067 NA
HETATM   35  N8  UNL     1      73.857  46.876   6.443  1.00  0.00    -0.067 NA
ATOM     36  H6  UNL     1      70.747  47.091   7.364  1.00  0.00     0.161 HD
ENDBRANCH  31  32
ENDBRANCH  30  31
ENDBRANCH  29  30
ENDBRANCH  28  29
ENDBRANCH  25  28
ENDBRANCH  24  25
ENDBRANCH   8  24
TORSDOF 11
ENDMDL
MODEL 3
REMARK VINA RESULT: -8.677110412      2.826      7.800
REMARK  11 active torsions:
REMARK  status: ('A' for Active; 'I' for Inactive)
REMARK    1  A    between atoms: C2_2  and  N1_3 
REMARK    2  A    between atoms: C4_10  and  N4_11 
REMARK    3  A    between atoms: N4_11  and  C5_13 
REMARK    4  A    between atoms: C5_13  and  C6_14 
REMARK    5  A    between atoms: N5_21  and  C12_22 
REMARK    6  A    between atoms: C12_22  and  C13_23 
REMARK    7  A    between atoms: C13_23  and  C16_26 
REMARK    8  A    between atoms: C16_26  and  C17_27 
REMARK    9  A    between atoms: C17_27  and  C18_28 
REMARK   10  A    between atoms: C18_28  and  C19_29 
REMARK   11  A    between atoms: C19_29  and  N6_30 
ROOT
HETATM    1  C6  UNL     1      72.849  50.349   7.952  1.00  0.00     0.105 C 
HETATM    2  C7  UNL     1      72.682  50.728   9.390  1.00  0.00     0.027 C 
HETATM    3  C8  UNL     1      71.476  51.471   9.773  1.00  0.00     0.002 C 
HETATM    4  C9  UNL     1      71.843  52.939   9.898  1.00  0.00     0.009 C 
HETATM    5  C10 UNL     1      71.968  53.602   8.583  1.00  0.00     0.103 C 
HETATM    6  C11 UNL     1      72.110  52.723   7.417  1.00  0.00     0.220 C 
HETATM    7  O1  UNL     1      71.531  53.239   6.387  1.00  0.00    -0.273 OA
HETATM    8  N5  UNL     1      72.702  51.471   7.102  1.00  0.00    -0.345 N 
ENDROOT
BRANCH   1   9
HETATM    9  C5  UNL     1      71.997  49.141   7.549  1.00  0.00     0.163 C 
BRANCH   9  10
HETATM   10  N4  UNL     1      72.766  48.035   7.063  1.00  0.00    -0.222 N 
ATOM     11  H4  UNL     1      73.316  47.463   7.705  1.00  0.00     0.177 HD
BRANCH  10  12
HETATM   12  C4  UNL     1      72.752  47.775   5.809  1.00  0.00     0.707 A 
HETATM   13  N3  UNL     1      71.721  47.462   5.000  1.00  0.00    -0.117 N 
HETATM   14  N2  UNL     1      72.115  47.264   3.764  1.00  0.00    -0.117 N 
ATOM     15  H3  UNL     1      70.752  47.387   5.311  1.00  0.00     0.206 HD
HETATM   16  C3  UNL     1      73.448  47.448   3.735  1.00  0.00     0.707 A 
ATOM     17  H2  UNL     1      71.521  47.017   2.972  1.00  0.00     0.206 HD
HETATM   18  N1  UNL     1      74.166  47.329   2.650  1.00  0.00    -0.225 N 
HETATM   19  N9  UNL     1      73.831  47.757   4.972  1.00  0.00    -0.020 N 
ATOM     20  H1  UNL     1      73.751  47.086   1.750  1.00  0.00     0.177 HD
ATOM     21  H9  UNL     1      74.791  47.952   5.255  1.00  0.00     0.203 HD
BRANCH  18  22
HETATM   22  C2  UNL     1      75.607  47.566   2.807  1.00  0.00     0.134 C 
HETATM   23  C1  UNL     1      76.277  47.541   1.459  1.00  0.00     0.027 C 
ENDBRANCH  18  22
ENDBRANCH  10  12
ENDBRANCH   9  10
ENDBRANCH   1   9
BRANCH   8  24
HETATM   24  C12 UNL     1      73.175  51.448   5.735  1.00  0.00     0.135 C 
BRANCH  24  25
HETATM   25  C13 UNL     1      74.579  51.781   5.491  1.00  0.00    -0.031 C 
HETATM   26  C14 UNL     1      75.213  51.018   4.337  1.00  0.00     0.016 C 
HETATM   27  C15 UNL     1      74.825  53.283   5.320  1.00  0.00     0.016 C 
BRANCH  25  28
HETATM   28  C16 UNL     1      75.358  51.405   6.731  1.00  0.00     0.010 C 
BRANCH  28  29
HETATM   29  C17 UNL     1      76.815  51.658   6.692  1.00  0.00     0.002 C 
BRANCH  29  30
HETATM   30  C18 UNL     1      77.232  52.203   8.043  1.00  0.00     0.020 C 
BRANCH  30  31
HETATM   31  C19 UNL     1      77.622  53.640   8.037  1.00  0.00     0.122 C 
BRANCH  31  32
HETATM   32  N6  UNL     1      76.661  54.431   8.768  1.00  0.00    -0.367 N 
HETATM   33  C20 UNL     1      76.171  55.534   8.314  1.00  0.00     0.196 C 
HETATM   34  N7  UNL     1      75.234  56.251   9.089  1.00  0.00    -0.067 NA
HETATM   35  N8  UNL     1      76.617  55.966   7.035  1.00  0.00    -0.067 NA
ATOM     36  H6  UNL     1      76.355  54.102   9.684  1.00  0.00     0.161 HD
ENDBRANCH  31  32
ENDBRANCH  30  31
ENDBRANCH  29  30
ENDBRANCH  28  29
ENDBRANCH  25  28
ENDBRANCH  24  25
ENDBRANCH   8  24
TORSDOF 11
ENDMDL
MODEL 4
REMARK VINA RESULT: -8.615933476      3.960      7.630
REMARK  11 active torsions:
REMARK  status: ('A' for Active; 'I' for Inactive)
REMARK    1  A    between atoms: C2_2  and  N1_3 
REMARK    2  A    between atoms: C4_10  and  N4_11 
REMARK    3  A    between atoms: N4_11  and  C5_13 
REMARK    4  A    between atoms: C5_13  and  C6_14 
REMARK    5  A    between atoms: N5_21  and  C12_22 
REMARK    6  A    between atoms: C12_22  and  C13_23 
REMARK    7  A    between atoms: C13_23  and  C16_26 
REMARK    8  A    between atoms: C16_26  and  C17_27 
REMARK    9  A    between atoms: C17_27  and  C18_28 
REMARK   10  A    between atoms: C18_28  and  C19_29 
REMARK   11  A    between atoms: C19_29  and  N6_30 
ROOT
HETATM    1  C6  UNL     1      72.812  50.406   7.923  1.00  0.00     0.105 C 
HETATM    2  C7  UNL     1      72.709  50.800   9.364  1.00  0.00     0.027 C 
HETATM    3  C8  UNL     1      71.482  51.469   9.811  1.00  0.00     0.002 C 
HETATM    4  C9  UNL     1      71.758  52.960   9.893  1.00  0.00     0.009 C 
HETATM    5  C10 UNL     1      71.758  53.606   8.563  1.00  0.00     0.103 C 
HETATM    6  C11 UNL     1      71.886  52.717   7.403  1.00  0.00     0.220 C 
HETATM    7  O1  UNL     1      71.213  53.176   6.404  1.00  0.00    -0.273 OA
HETATM    8  N5  UNL     1      72.539  51.501   7.069  1.00  0.00    -0.345 N 
ENDROOT
BRANCH   1   9
HETATM    9  C5  UNL     1      72.019  49.138   7.592  1.00  0.00     0.163 C 
BRANCH   9  10
HETATM   10  N4  UNL     1      72.827  48.079   7.065  1.00  0.00    -0.222 N 
ATOM     11  H4  UNL     1      73.447  47.547   7.676  1.00  0.00     0.177 HD
BRANCH  10  12
HETATM   12  C4  UNL     1      72.758  47.812   5.815  1.00  0.00     0.707 A 
HETATM   13  N3  UNL     1      71.689  47.518   5.049  1.00  0.00    -0.117 N 
HETATM   14  N2  UNL     1      72.030  47.302   3.799  1.00  0.00    -0.117 N 
ATOM     15  H3  UNL     1      70.731  47.468   5.397  1.00  0.00     0.206 HD
HETATM   16  C3  UNL     1      73.365  47.455   3.718  1.00  0.00     0.707 A 
ATOM     17  H2  UNL     1      71.401  47.064   3.033  1.00  0.00     0.206 HD
HETATM   18  N1  UNL     1      74.037  47.312   2.606  1.00  0.00    -0.225 N 
HETATM   19  N9  UNL     1      73.803  47.763   4.937  1.00  0.00    -0.020 N 
ATOM     20  H1  UNL     1      73.582  47.073   1.725  1.00  0.00     0.177 HD
ATOM     21  H9  UNL     1      74.778  47.938   5.180  1.00  0.00     0.203 HD
BRANCH  18  22
HETATM   22  C2  UNL     1      75.488  47.516   2.705  1.00  0.00     0.134 C 
HETATM   23  C1  UNL     1      76.138  47.202   1.384  1.00  0.00     0.027 C 
ENDBRANCH  18  22
ENDBRANCH  10  12
ENDBRANCH   9  10
ENDBRANCH   1   9
BRANCH   8  24
HETATM   24  C12 UNL     1      72.929  51.485   5.676  1.00  0.00     0.135 C 
BRANCH  24  25
HETATM   25  C13 UNL     1      74.265  51.975   5.333  1.00  0.00    -0.031 C 
HETATM   26  C14 UNL     1      74.824  53.003   6.306  1.00  0.00     0.016 C 
HETATM   27  C15 UNL     1      75.284  50.853   5.117  1.00  0.00     0.016 C 
BRANCH  25  28
HETATM   28  C16 UNL     1      74.166  52.665   3.992  1.00  0.00     0.010 C 
BRANCH  28  29
HETATM   29  C17 UNL     1      72.872  52.540   3.284  1.00  0.00     0.002 C 
BRANCH  29  30
HETATM   30  C18 UNL     1      72.309  53.933   3.088  1.00  0.00     0.020 C 
BRANCH  30  31
HETATM   31  C19 UNL     1      70.839  53.979   2.856  1.00  0.00     0.122 C 
BRANCH  31  32
HETATM   32  N6  UNL     1      70.155  54.488   4.021  1.00  0.00    -0.367 N 
HETATM   33  C20 UNL     1      68.963  54.978   3.976  1.00  0.00     0.196 C 
HETATM   34  N7  UNL     1      68.362  55.456   5.161  1.00  0.00    -0.067 NA
HETATM   35  N8  UNL     1      68.319  55.006   2.708  1.00  0.00    -0.067 NA
ATOM     36  H6  UNL     1      70.637  54.458   4.920  1.00  0.00     0.161 HD
ENDBRANCH  31  32
ENDBRANCH  30  31
ENDBRANCH  29  30
ENDBRANCH  28  29
ENDBRANCH  25  28
ENDBRANCH  24  25
ENDBRANCH   8  24
TORSDOF 11
ENDMDL
MODEL 5
REMARK VINA RESULT: -8.477450679      3.117      7.679
REMARK  11 active torsions:
REMARK  status: ('A' for Active; 'I' for Inactive)
REMARK    1  A    between atoms: C2_2  and  N1_3 
REMARK    2  A    between atoms: C4_10  and  N4_11 
REMARK    3  A    between atoms: N4_11  and  C5_13 
REMARK    4  A    between atoms: C5_13  and  C6_14 
REMARK    5  A    between atoms: N5_21  and  C12_22 
REMARK    6  A    between atoms: C12_22  and  C13_23 
REMARK    7  A    between atoms: C13_23  and  C16_26 
REMARK    8  A    between atoms: C16_26  and  C17_27 
REMARK    9  A    between atoms: C17_27  and  C18_28 
REMARK   10  A    between atoms: C18_28  and  C19_29 
REMARK   11  A    between atoms: C19_29  and  N6_30 
ROOT
HETATM    1  C6  UNL     1      72.929  50.404   8.120  1.00  0.00     0.105 C 
HETATM    2  C7  UNL     1      72.467  50.712   9.511  1.00  0.00     0.027 C 
HETATM    3  C8  UNL     1      71.331  51.626   9.674  1.00  0.00     0.002 C 
HETATM    4  C9  UNL     1      71.874  52.997  10.037  1.00  0.00     0.009 C 
HETATM    5  C10 UNL     1      72.423  53.713   8.865  1.00  0.00     0.103 C 
HETATM    6  C11 UNL     1      72.717  52.900   7.680  1.00  0.00     0.220 C 
HETATM    7  O1  UNL     1      72.499  53.575   6.603  1.00  0.00    -0.273 OA
HETATM    8  N5  UNL     1      73.171  51.588   7.383  1.00  0.00    -0.345 N 
ENDROOT
BRANCH   1   9
HETATM    9  C5  UNL     1      72.031  49.391   7.403  1.00  0.00     0.163 C 
BRANCH   9  10
HETATM   10  N4  UNL     1      72.719  48.200   7.003  1.00  0.00    -0.222 N 
ATOM     11  H4  UNL     1      73.192  47.617   7.693  1.00  0.00     0.177 HD
BRANCH  10  12
HETATM   12  C4  UNL     1      72.730  47.880   5.763  1.00  0.00     0.707 A 
HETATM   13  N3  UNL     1      71.722  47.485   4.960  1.00  0.00    -0.117 N 
HETATM   14  N2  UNL     1      72.139  47.245   3.738  1.00  0.00    -0.117 N 
ATOM     15  H3  UNL     1      70.754  47.386   5.264  1.00  0.00     0.206 HD
HETATM   16  C3  UNL     1      73.464  47.483   3.714  1.00  0.00     0.707 A 
ATOM     17  H2  UNL     1      71.565  46.936   2.953  1.00  0.00     0.206 HD
HETATM   18  N1  UNL     1      74.198  47.341   2.642  1.00  0.00    -0.225 N 
HETATM   19  N9  UNL     1      73.819  47.867   4.938  1.00  0.00    -0.020 N 
ATOM     20  H1  UNL     1      73.804  47.038   1.752  1.00  0.00     0.177 HD
ATOM     21  H9  UNL     1      74.767  48.115   5.220  1.00  0.00     0.203 HD
BRANCH  18  22
HETATM   22  C2  UNL     1      75.626  47.645   2.801  1.00  0.00     0.134 C 
HETATM   23  C1  UNL     1      76.339  47.443   1.491  1.00  0.00     0.027 C 
ENDBRANCH  18  22
ENDBRANCH  10  12
ENDBRANCH   9  10
ENDBRANCH   1   9
BRANCH   8  24
HETATM   24  C12 UNL     1      73.963  51.572   6.172  1.00  0.00     0.135 C 
BRANCH  24  25
HETATM   25  C13 UNL     1      75.418  51.657   6.304  1.00  0.00    -0.031 C 
HETATM   26  C14 UNL     1      75.925  51.547   7.735  1.00  0.00     0.016 C 
HETATM   27  C15 UNL     1      76.165  50.666   5.408  1.00  0.00     0.016 C 
BRANCH  25  28
HETATM   28  C16 UNL     1      75.841  53.019   5.803  1.00  0.00     0.010 C 
BRANCH  28  29
HETATM   29  C17 UNL     1      76.087  53.136   4.349  1.00  0.00     0.002 C 
BRANCH  29  30
HETATM   30  C18 UNL     1      75.165  54.206   3.802  1.00  0.00     0.020 C 
BRANCH  30  31
HETATM   31  C19 UNL     1      73.975  53.684   3.075  1.00  0.00     0.122 C 
BRANCH  31  32
HETATM   32  N6  UNL     1      72.763  54.270   3.595  1.00  0.00    -0.367 N 
HETATM   33  C20 UNL     1      72.093  55.173   2.962  1.00  0.00     0.196 C 
HETATM   34  N7  UNL     1      70.916  55.698   3.538  1.00  0.00    -0.067 NA
HETATM   35  N8  UNL     1      72.595  55.589   1.698  1.00  0.00    -0.067 NA
ATOM     36  H6  UNL     1      72.421  53.957   4.504  1.00  0.00     0.161 HD
ENDBRANCH  31  32
ENDBRANCH  30  31
ENDBRANCH  29  30
ENDBRANCH  28  29
ENDBRANCH  25  28
ENDBRANCH  24  25
ENDBRANCH   8  24
TORSDOF 11
ENDMDL
