MODEL 1
REMARK VINA RESULT: -8.297177373      0.000      0.000
REMARK  11 active torsions:
REMARK  status: ('A' for Active; 'I' for Inactive)
REMARK    1  A    between atoms: C1_2  and  C2_4 
REMARK    2  A    between atoms: C2_4  and  C3_5 
REMARK    3  A    between atoms: C3_5  and  N2_6 
REMARK       I    between atoms: N2_6  and  C4_8 
REMARK    4  A    between atoms: C4_8  and  C5_10 
REMARK    5  A    between atoms: C5_10  and  N3_11 
REMARK       I    between atoms: N3_11  and  C6_13 
REMARK    6  A    between atoms: C6_13  and  C7_15 
REMARK    7  A    between atoms: C10_18  and  C11_19 
REMARK    8  A    between atoms: C11_19  and  N4_20 
REMARK    9  A    between atoms: N4_20  and  C12_22 
REMARK   10  A    between atoms: C12_22  and  N5_24 
REMARK   11  A    between atoms: N5_24  and  C13_26 
ROOT
HETATM    1  C7  UNL     1      72.454  51.741   9.556  1.00  0.00     0.078 C 
HETATM    2  C8  UNL     1      71.043  51.650  10.157  1.00  0.00     0.014 C 
HETATM    3  C9  UNL     1      71.007  52.721  11.223  1.00  0.00     0.007 C 
HETATM    4  C10 UNL     1      71.251  54.088  10.701  1.00  0.00     0.003 C 
HETATM    5  C19 UNL     1      72.379  54.175   9.707  1.00  0.00     0.007 C 
HETATM    6  C20 UNL     1      72.432  53.037   8.738  1.00  0.00     0.014 C 
ENDROOT
BRANCH   1   7
HETATM    7  C6  UNL     1      72.778  50.586   8.725  1.00  0.00     0.222 C 
HETATM    8  N3  UNL     1      71.848  49.543   8.529  1.00  0.00    -0.352 N 
ATOM      9  H3  UNL     1      70.936  49.601   8.981  1.00  0.00     0.162 HD
HETATM   10  O3  UNL     1      73.900  50.517   8.174  1.00  0.00    -0.273 OA
BRANCH   8  11
HETATM   11  C5  UNL     1      72.149  48.405   7.712  1.00  0.00     0.225 C 
BRANCH  11  12
HETATM   12  C4  UNL     1      72.194  48.665   6.267  1.00  0.00     0.235 C 
HETATM   13  N2  UNL     1      73.426  48.690   5.579  1.00  0.00    -0.359 N 
ATOM     14  H2  UNL     1      74.285  48.523   6.103  1.00  0.00     0.162 HD
HETATM   15  O2  UNL     1      71.141  48.870   5.632  1.00  0.00    -0.272 OA
BRANCH  13  16
HETATM   16  C3  UNL     1      73.516  48.944   4.152  1.00  0.00     0.131 C 
BRANCH  16  17
HETATM   17  C2  UNL     1      73.920  47.678   3.442  1.00  0.00     0.119 C 
BRANCH  17  18
HETATM   18  C1  UNL     1      75.384  47.608   3.284  1.00  0.00     0.232 C 
HETATM   19  N1  UNL     1      76.202  48.141   4.311  1.00  0.00    -0.062 NA
HETATM   20  O1  UNL     1      75.918  47.093   2.276  1.00  0.00    -0.277 OA
ENDBRANCH  17  18
ENDBRANCH  16  17
ENDBRANCH  13  16
ENDBRANCH  11  12
ENDBRANCH   8  11
ENDBRANCH   1   7
BRANCH   4  21
HETATM   21  C11 UNL     1      71.656  54.970  11.913  1.00  0.00     0.126 C 
BRANCH  21  22
HETATM   22  N4  UNL     1      73.046  54.815  12.197  1.00  0.00    -0.367 N 
ATOM     23  H4  UNL     1      73.398  53.866  12.073  1.00  0.00     0.161 HD
BRANCH  22  24
HETATM   24  C12 UNL     1      74.002  55.735  12.614  1.00  0.00     0.167 C 
HETATM   25  S1  UNL     1      73.402  56.909  13.673  1.00  0.00    -0.041 SA
BRANCH  24  26
HETATM   26  N5  UNL     1      75.360  55.869  12.323  1.00  0.00    -0.363 N 
ATOM     27  H5  UNL     1      75.966  55.266  12.879  1.00  0.00     0.162 HD
BRANCH  26  28
HETATM   28  C13 UNL     1      76.055  56.690  11.396  1.00  0.00     0.083 C 
HETATM   29  C14 UNL     1      76.556  58.000  11.894  1.00  0.00     0.025 C 
HETATM   30  C15 UNL     1      75.843  59.200  11.331  1.00  0.00     0.002 C 
HETATM   31  C16 UNL     1      75.886  59.223   9.818  1.00  0.00     0.000 C 
HETATM   32  C17 UNL     1      75.992  57.831   9.238  1.00  0.00     0.002 C 
HETATM   33  C18 UNL     1      75.222  56.889  10.111  1.00  0.00     0.025 C 
ENDBRANCH  26  28
ENDBRANCH  24  26
ENDBRANCH  22  24
ENDBRANCH  21  22
ENDBRANCH   4  21
TORSDOF 11
ENDMDL
MODEL 2
REMARK VINA RESULT: -8.284320157      4.050      9.981
REMARK  11 active torsions:
REMARK  status: ('A' for Active; 'I' for Inactive)
REMARK    1  A    between atoms: C1_2  and  C2_4 
REMARK    2  A    between atoms: C2_4  and  C3_5 
REMARK    3  A    between atoms: C3_5  and  N2_6 
REMARK       I    between atoms: N2_6  and  C4_8 
REMARK    4  A    between atoms: C4_8  and  C5_10 
REMARK    5  A    between atoms: C5_10  and  N3_11 
REMARK       I    between atoms: N3_11  and  C6_13 
REMARK    6  A    between atoms: C6_13  and  C7_15 
REMARK    7  A    between atoms: C10_18  and  C11_19 
REMARK    8  A    between atoms: C11_19  and  N4_20 
REMARK    9  A    between atoms: N4_20  and  C12_22 
REMARK   10  A    between atoms: C12_22  and  N5_24 
REMARK   11  A    between atoms: N5_24  and  C13_26 
ROOT
HETATM    1  C7  UNL     1      74.086  52.307   7.725  1.00  0.00     0.078 C 
HETATM    2  C8  UNL     1      73.567  51.218   6.774  1.00  0.00     0.014 C 
HETATM    3  C9  UNL     1      74.558  51.197   5.632  1.00  0.00     0.007 C 
HETATM    4  C10 UNL     1      75.946  50.885   6.055  1.00  0.00     0.003 C 
HETATM    5  C19 UNL     1      76.383  51.602   7.304  1.00  0.00     0.007 C 
HETATM    6  C20 UNL     1      75.332  51.686   8.365  1.00  0.00     0.014 C 
ENDROOT
BRANCH   1   7
HETATM    7  C6  UNL     1      73.097  52.683   8.729  1.00  0.00     0.222 C 
HETATM    8  N3  UNL     1      73.351  53.718   9.654  1.00  0.00    -0.352 N 
ATOM      9  H3  UNL     1      74.246  54.207   9.617  1.00  0.00     0.162 HD
HETATM   10  O3  UNL     1      72.001  52.079   8.774  1.00  0.00    -0.273 OA
BRANCH   8  11
HETATM   11  C5  UNL     1      72.388  54.103  10.643  1.00  0.00     0.225 C 
BRANCH  11  12
HETATM   12  C4  UNL     1      72.891  55.001  11.690  1.00  0.00     0.235 C 
HETATM   13  N2  UNL     1      74.268  55.045  12.000  1.00  0.00    -0.359 N 
ATOM     14  H2  UNL     1      74.907  54.442  11.483  1.00  0.00     0.162 HD
HETATM   15  O2  UNL     1      72.105  55.735  12.320  1.00  0.00    -0.272 OA
BRANCH  13  16
HETATM   16  C3  UNL     1      74.808  55.918  13.027  1.00  0.00     0.131 C 
BRANCH  16  17
HETATM   17  C2  UNL     1      75.946  56.721  12.456  1.00  0.00     0.119 C 
BRANCH  17  18
HETATM   18  C1  UNL     1      75.444  57.795  11.580  1.00  0.00     0.232 C 
HETATM   19  N1  UNL     1      75.080  57.470  10.250  1.00  0.00    -0.062 NA
HETATM   20  O1  UNL     1      75.332  58.977  11.977  1.00  0.00    -0.277 OA
ENDBRANCH  17  18
ENDBRANCH  16  17
ENDBRANCH  13  16
ENDBRANCH  11  12
ENDBRANCH   8  11
ENDBRANCH   1   7
BRANCH   4  21
HETATM   21  C11 UNL     1      76.884  51.363   4.914  1.00  0.00     0.126 C 
BRANCH  21  22
HETATM   22  N4  UNL     1      77.873  50.372   4.635  1.00  0.00    -0.367 N 
ATOM     23  H4  UNL     1      78.823  50.641   4.892  1.00  0.00     0.161 HD
BRANCH  22  24
HETATM   24  C12 UNL     1      77.765  49.104   4.074  1.00  0.00     0.167 C 
HETATM   25  S1  UNL     1      79.043  48.704   3.042  1.00  0.00    -0.041 SA
BRANCH  24  26
HETATM   26  N5  UNL     1      76.800  48.103   4.204  1.00  0.00    -0.363 N 
ATOM     27  H5  UNL     1      76.987  47.442   4.958  1.00  0.00     0.162 HD
BRANCH  26  28
HETATM   28  C13 UNL     1      75.609  47.834   3.482  1.00  0.00     0.083 C 
HETATM   29  C14 UNL     1      75.294  48.730   2.336  1.00  0.00     0.025 C 
HETATM   30  C15 UNL     1      74.110  49.635   2.553  1.00  0.00     0.002 C 
HETATM   31  C16 UNL     1      72.860  48.854   2.899  1.00  0.00     0.000 C 
HETATM   32  C17 UNL     1      73.185  47.546   3.584  1.00  0.00     0.002 C 
HETATM   33  C18 UNL     1      74.400  47.743   4.438  1.00  0.00     0.025 C 
ENDBRANCH  26  28
ENDBRANCH  24  26
ENDBRANCH  22  24
ENDBRANCH  21  22
ENDBRANCH   4  21
TORSDOF 11
ENDMDL
MODEL 3
REMARK VINA RESULT: -8.270851994      4.092      9.863
REMARK  11 active torsions:
REMARK  status: ('A' for Active; 'I' for Inactive)
REMARK    1  A    between atoms: C1_2  and  C2_4 
REMARK    2  A    between atoms: C2_4  and  C3_5 
REMARK    3  A    between atoms: C3_5  and  N2_6 
REMARK       I    between atoms: N2_6  and  C4_8 
REMARK    4  A    between atoms: C4_8  and  C5_10 
REMARK    5  A    between atoms: C5_10  and  N3_11 
REMARK       I    between atoms: N3_11  and  C6_13 
REMARK    6  A    between atoms: C6_13  and  C7_15 
REMARK    7  A    between atoms: C10_18  and  C11_19 
REMARK    8  A    between atoms: C11_19  and  N4_20 
REMARK    9  A    between atoms: N4_20  and  C12_22 
REMARK   10  A    between atoms: C12_22  and  N5_24 
REMARK   11  A    between atoms: N5_24  and  C13_26 
ROOT
HETATM    1  C7  UNL     1      74.690  52.845   7.170  1.00  0.00     0.078 C 
HETATM    2  C8  UNL     1      75.279  51.502   7.628  1.00  0.00     0.014 C 
HETATM    3  C9  UNL     1      74.083  50.597   7.811  1.00  0.00     0.007 C 
HETATM    4  C10 UNL     1      73.286  50.407   6.574  1.00  0.00     0.003 C 
HETATM    5  C19 UNL     1      73.050  51.675   5.794  1.00  0.00     0.007 C 
HETATM    6  C20 UNL     1      74.235  52.585   5.730  1.00  0.00     0.014 C 
ENDROOT
BRANCH   1   7
HETATM    7  C6  UNL     1      75.663  53.930   7.238  1.00  0.00     0.222 C 
HETATM    8  N3  UNL     1      76.420  54.160   8.407  1.00  0.00    -0.352 N 
ATOM      9  H3  UNL     1      76.277  53.556   9.217  1.00  0.00     0.162 HD
HETATM   10  O3  UNL     1      75.833  54.671   6.244  1.00  0.00    -0.273 OA
BRANCH   8  11
HETATM   11  C5  UNL     1      77.383  55.218   8.489  1.00  0.00     0.225 C 
BRANCH  11  12
HETATM   12  C4  UNL     1      77.514  55.845   9.811  1.00  0.00     0.235 C 
HETATM   13  N2  UNL     1      76.397  55.957  10.667  1.00  0.00    -0.359 N 
ATOM     14  H2  UNL     1      75.497  55.594  10.352  1.00  0.00     0.162 HD
HETATM   15  O2  UNL     1      78.615  56.288  10.190  1.00  0.00    -0.272 OA
BRANCH  13  16
HETATM   16  C3  UNL     1      76.481  56.570  11.981  1.00  0.00     0.131 C 
BRANCH  16  17
HETATM   17  C2  UNL     1      75.185  57.270  12.292  1.00  0.00     0.119 C 
BRANCH  17  18
HETATM   18  C1  UNL     1      74.362  56.467  13.215  1.00  0.00     0.232 C 
HETATM   19  N1  UNL     1      73.455  57.139  14.072  1.00  0.00    -0.062 NA
HETATM   20  O1  UNL     1      74.443  55.219  13.262  1.00  0.00    -0.277 OA
ENDBRANCH  17  18
ENDBRANCH  16  17
ENDBRANCH  13  16
ENDBRANCH  11  12
ENDBRANCH   8  11
ENDBRANCH   1   7
BRANCH   4  21
HETATM   21  C11 UNL     1      71.891  49.886   7.010  1.00  0.00     0.126 C 
BRANCH  21  22
HETATM   22  N4  UNL     1      71.454  48.844   6.138  1.00  0.00    -0.367 N 
ATOM     23  H4  UNL     1      70.483  48.926   5.836  1.00  0.00     0.161 HD
BRANCH  22  24
HETATM   24  C12 UNL     1      72.124  47.736   5.629  1.00  0.00     0.167 C 
HETATM   25  S1  UNL     1      72.565  46.606   6.806  1.00  0.00    -0.041 SA
BRANCH  24  26
HETATM   26  N5  UNL     1      72.498  47.385   4.331  1.00  0.00    -0.363 N 
ATOM     27  H5  UNL     1      71.954  46.619   3.935  1.00  0.00     0.162 HD
BRANCH  26  28
HETATM   28  C13 UNL     1      73.496  47.896   3.460  1.00  0.00     0.083 C 
HETATM   29  C14 UNL     1      74.909  47.800   3.918  1.00  0.00     0.025 C 
HETATM   30  C15 UNL     1      75.548  49.118   4.263  1.00  0.00     0.002 C 
HETATM   31  C16 UNL     1      75.493  50.092   3.105  1.00  0.00     0.000 C 
HETATM   32  C17 UNL     1      74.309  49.826   2.203  1.00  0.00     0.002 C 
HETATM   33  C18 UNL     1      73.166  49.346   3.043  1.00  0.00     0.025 C 
ENDBRANCH  26  28
ENDBRANCH  24  26
ENDBRANCH  22  24
ENDBRANCH  21  22
ENDBRANCH   4  21
TORSDOF 11
ENDMDL
MODEL 4
REMARK VINA RESULT: -8.195571324      5.191      8.857
REMARK  11 active torsions:
REMARK  status: ('A' for Active; 'I' for Inactive)
REMARK    1  A    between atoms: C1_2  and  C2_4 
REMARK    2  A    between atoms: C2_4  and  C3_5 
REMARK    3  A    between atoms: C3_5  and  N2_6 
REMARK       I    between atoms: N2_6  and  C4_8 
REMARK    4  A    between atoms: C4_8  and  C5_10 
REMARK    5  A    between atoms: C5_10  and  N3_11 
REMARK       I    between atoms: N3_11  and  C6_13 
REMARK    6  A    between atoms: C6_13  and  C7_15 
REMARK    7  A    between atoms: C10_18  and  C11_19 
REMARK    8  A    between atoms: C11_19  and  N4_20 
REMARK    9  A    between atoms: N4_20  and  C12_22 
REMARK   10  A    between atoms: C12_22  and  N5_24 
REMARK   11  A    between atoms: N5_24  and  C13_26 
ROOT
HETATM    1  C7  UNL     1      75.897  48.197   3.136  1.00  0.00     0.078 C 
HETATM    2  C8  UNL     1      76.271  47.479   1.830  1.00  0.00     0.014 C 
HETATM    3  C9  UNL     1      77.387  48.309   1.238  1.00  0.00     0.007 C 
HETATM    4  C10 UNL     1      78.577  48.418   2.118  1.00  0.00     0.003 C 
HETATM    5  C19 UNL     1      78.250  48.676   3.565  1.00  0.00     0.007 C 
HETATM    6  C20 UNL     1      77.073  47.908   4.075  1.00  0.00     0.014 C 
ENDROOT
BRANCH   1   7
HETATM    7  C6  UNL     1      74.635  47.717   3.690  1.00  0.00     0.222 C 
HETATM    8  N3  UNL     1      74.321  47.898   5.054  1.00  0.00    -0.352 N 
ATOM      9  H3  UNL     1      74.992  48.371   5.659  1.00  0.00     0.162 HD
HETATM   10  O3  UNL     1      73.815  47.135   2.946  1.00  0.00    -0.273 OA
BRANCH   8  11
HETATM   11  C5  UNL     1      73.084  47.437   5.613  1.00  0.00     0.225 C 
BRANCH  11  12
HETATM   12  C4  UNL     1      72.295  48.458   6.313  1.00  0.00     0.235 C 
HETATM   13  N2  UNL     1      72.753  49.014   7.528  1.00  0.00    -0.359 N 
ATOM     14  H2  UNL     1      73.643  48.694   7.909  1.00  0.00     0.162 HD
HETATM   15  O2  UNL     1      71.207  48.844   5.843  1.00  0.00    -0.272 OA
BRANCH  13  16
HETATM   16  C3  UNL     1      72.004  50.024   8.253  1.00  0.00     0.131 C 
BRANCH  16  17
HETATM   17  C2  UNL     1      72.730  51.342   8.171  1.00  0.00     0.119 C 
BRANCH  17  18
HETATM   18  C1  UNL     1      72.063  52.250   7.219  1.00  0.00     0.232 C 
HETATM   19  N1  UNL     1      71.606  53.506   7.689  1.00  0.00    -0.062 NA
HETATM   20  O1  UNL     1      71.893  51.943   6.018  1.00  0.00    -0.277 OA
ENDBRANCH  17  18
ENDBRANCH  16  17
ENDBRANCH  13  16
ENDBRANCH  11  12
ENDBRANCH   8  11
ENDBRANCH   1   7
BRANCH   4  21
HETATM   21  C11 UNL     1      79.395  49.641   1.621  1.00  0.00     0.126 C 
BRANCH  21  22
HETATM   22  N4  UNL     1      78.521  50.673   1.167  1.00  0.00    -0.367 N 
ATOM     23  H4  UNL     1      77.997  50.441   0.322  1.00  0.00     0.161 HD
BRANCH  22  24
HETATM   24  C12 UNL     1      78.259  51.940   1.676  1.00  0.00     0.167 C 
HETATM   25  S1  UNL     1      77.802  53.066   0.501  1.00  0.00    -0.041 SA
BRANCH  24  26
HETATM   26  N5  UNL     1      78.304  52.454   2.973  1.00  0.00    -0.363 N 
ATOM     27  H5  UNL     1      79.222  52.799   3.252  1.00  0.00     0.162 HD
BRANCH  26  28
HETATM   28  C13 UNL     1      77.308  52.586   3.977  1.00  0.00     0.083 C 
HETATM   29  C14 UNL     1      77.761  52.518   5.393  1.00  0.00     0.025 C 
HETATM   30  C15 UNL     1      77.327  51.281   6.132  1.00  0.00     0.002 C 
HETATM   31  C16 UNL     1      75.823  51.108   6.109  1.00  0.00     0.000 C 
HETATM   32  C17 UNL     1      75.204  51.740   4.883  1.00  0.00     0.002 C 
HETATM   33  C18 UNL     1      76.155  51.589   3.735  1.00  0.00     0.025 C 
ENDBRANCH  26  28
ENDBRANCH  24  26
ENDBRANCH  22  24
ENDBRANCH  21  22
ENDBRANCH   4  21
TORSDOF 11
ENDMDL
MODEL 5
REMARK VINA RESULT: -8.122674526      4.192      9.832
REMARK  11 active torsions:
REMARK  status: ('A' for Active; 'I' for Inactive)
REMARK    1  A    between atoms: C1_2  and  C2_4 
REMARK    2  A    between atoms: C2_4  and  C3_5 
REMARK    3  A    between atoms: C3_5  and  N2_6 
REMARK       I    between atoms: N2_6  and  C4_8 
REMARK    4  A    between atoms: C4_8  and  C5_10 
REMARK    5  A    between atoms: C5_10  and  N3_11 
REMARK       I    between atoms: N3_11  and  C6_13 
REMARK    6  A    between atoms: C6_13  and  C7_15 
REMARK    7  A    between atoms: C10_18  and  C11_19 
REMARK    8  A    between atoms: C11_19  and  N4_20 
REMARK    9  A    between atoms: N4_20  and  C12_22 
REMARK   10  A    between atoms: C12_22  and  N5_24 
REMARK   11  A    between atoms: N5_24  and  C13_26 
ROOT
HETATM    1  C7  UNL     1      73.579  50.819   8.157  1.00  0.00     0.078 C 
HETATM    2  C8  UNL     1      74.626  51.802   8.702  1.00  0.00     0.014 C 
HETATM    3  C9  UNL     1      75.860  51.558   7.865  1.00  0.00     0.007 C 
HETATM    4  C10 UNL     1      75.649  51.791   6.414  1.00  0.00     0.003 C 
HETATM    5  C19 UNL     1      74.359  51.225   5.882  1.00  0.00     0.007 C 
HETATM    6  C20 UNL     1      73.188  51.402   6.795  1.00  0.00     0.014 C 
ENDROOT
BRANCH   1   7
HETATM    7  C6  UNL     1      72.424  50.693   9.039  1.00  0.00     0.222 C 
HETATM    8  N3  UNL     1      71.891  51.814   9.711  1.00  0.00    -0.352 N 
ATOM      9  H3  UNL     1      72.328  52.726   9.575  1.00  0.00     0.162 HD
HETATM   10  O3  UNL     1      71.893  49.571   9.206  1.00  0.00    -0.273 OA
BRANCH   8  11
HETATM   11  C5  UNL     1      70.755  51.708  10.577  1.00  0.00     0.225 C 
BRANCH  11  12
HETATM   12  C4  UNL     1      70.684  52.715  11.643  1.00  0.00     0.235 C 
HETATM   13  N2  UNL     1      70.521  54.082  11.331  1.00  0.00    -0.359 N 
ATOM     14  H2  UNL     1      70.453  54.358  10.352  1.00  0.00     0.162 HD
HETATM   15  O2  UNL     1      70.770  52.373  12.838  1.00  0.00    -0.272 OA
BRANCH  13  16
HETATM   16  C3  UNL     1      70.447  55.111  12.353  1.00  0.00     0.131 C 
BRANCH  16  17
HETATM   17  C2  UNL     1      71.763  55.840  12.427  1.00  0.00     0.119 C 
BRANCH  17  18
HETATM   18  C1  UNL     1      71.768  56.805  13.542  1.00  0.00     0.232 C 
HETATM   19  N1  UNL     1      72.812  57.760  13.606  1.00  0.00    -0.062 NA
HETATM   20  O1  UNL     1      70.882  56.802  14.426  1.00  0.00    -0.277 OA
ENDBRANCH  17  18
ENDBRANCH  16  17
ENDBRANCH  13  16
ENDBRANCH  11  12
ENDBRANCH   8  11
ENDBRANCH   1   7
BRANCH   4  21
HETATM   21  C11 UNL     1      76.798  51.061   5.667  1.00  0.00     0.126 C 
BRANCH  21  22
HETATM   22  N4  UNL     1      76.299  50.419   4.494  1.00  0.00    -0.367 N 
ATOM     23  H4  UNL     1      75.574  50.942   4.004  1.00  0.00     0.161 HD
BRANCH  22  24
HETATM   24  C12 UNL     1      76.632  49.204   3.905  1.00  0.00     0.167 C 
HETATM   25  S1  UNL     1      78.296  48.917   3.828  1.00  0.00    -0.041 SA
BRANCH  24  26
HETATM   26  N5  UNL     1      75.850  48.181   3.366  1.00  0.00    -0.363 N 
ATOM     27  H5  UNL     1      76.222  47.784   2.504  1.00  0.00     0.162 HD
BRANCH  26  28
HETATM   28  C13 UNL     1      74.632  47.591   3.795  1.00  0.00     0.083 C 
HETATM   29  C14 UNL     1      73.402  47.951   3.039  1.00  0.00     0.025 C 
HETATM   30  C15 UNL     1      72.425  48.808   3.800  1.00  0.00     0.002 C 
HETATM   31  C16 UNL     1      72.006  48.163   5.104  1.00  0.00     0.000 C 
HETATM   32  C17 UNL     1      73.077  47.244   5.647  1.00  0.00     0.002 C 
HETATM   33  C18 UNL     1      74.417  47.821   5.307  1.00  0.00     0.025 C 
ENDBRANCH  26  28
ENDBRANCH  24  26
ENDBRANCH  22  24
ENDBRANCH  21  22
ENDBRANCH   4  21
TORSDOF 11
ENDMDL
